MODEL 1
REMARK VINA RESULT:      -7.1      0.000      0.000
REMARK  Name = 
REMARK  17 active torsions:
REMARK  status: ('A' for Active; 'I' for Inactive)
REMARK    1  A    between atoms: C_1  and  C_2
REMARK    2  A    between atoms: C_2  and  C_3
REMARK    3  A    between atoms: C_2  and  C_4
REMARK    4  A    between atoms: C_2  and  O_5
REMARK    5  A    between atoms: O_5  and  C_6
REMARK    6  A    between atoms: N_8  and  C_9
REMARK    7  A    between atoms: C_9  and  C_10
REMARK    8  A    between atoms: C_9  and  C_23
REMARK    9  A    between atoms: C_10  and  C_11
REMARK   10  A    between atoms: C_11  and  C_12
REMARK   11  A    between atoms: C_19  and  C_20
REMARK   12  A    between atoms: C_20  and  O_22
REMARK   13  A    between atoms: C_23  and  O_25
REMARK   14  A    between atoms: O_25  and  C_26
REMARK   15  A    between atoms: C_26  and  C_27
REMARK   16  A    between atoms: C_26  and  C_28
REMARK   17  A    between atoms: C_26  and  C_29
REMARK                            x       y       z     vdW  Elec       q    Type
REMARK                         _______ _______ _______ _____ _____    ______ ____
ROOT
ATOM      1  C   UNL     1       2.938   6.721  18.477  0.00  0.00    +0.000 C 
ENDROOT
BRANCH   1   4
ATOM      2  C   UNL     1       5.239   6.145  17.771  0.00  0.00    +0.000 C 
ATOM      3  O   UNL     1       5.579   5.812  18.896  0.00  0.00    +0.000 OA
ATOM      4  N   UNL     1       3.994   6.603  17.467  0.00  0.00    +0.000 N 
ATOM      5  H   UNL     1       3.773   6.753  16.489  0.00  0.00    +0.000 HD
BRANCH   2   6
ATOM      6  O   UNL     1       6.021   6.137  16.662  0.00  0.00    +0.000 OA
BRANCH   6   8
ATOM      7  C   UNL     1       6.979   5.012  14.674  0.00  0.00    +0.000 C 
ATOM      8  C   UNL     1       6.466   4.864  16.113  0.00  0.00    +0.000 C 
ATOM      9  C   UNL     1       5.358   3.808  16.225  0.00  0.00    +0.000 C 
ATOM     10  C   UNL     1       7.646   4.415  16.991  0.00  0.00    +0.000 C 
ENDBRANCH   6   8
ENDBRANCH   2   6
ENDBRANCH   1   4
BRANCH   1  11
ATOM     11  C   UNL     1       2.077   5.449  18.580  0.00  0.00    +0.000 C 
ATOM     12  O   UNL     1       1.580   4.898  17.604  0.00  0.00    +0.000 OA
BRANCH  11  13
ATOM     13  O   UNL     1       1.934   5.012  19.864  0.00  0.00    +0.000 OA
BRANCH  13  14
ATOM     14  C   UNL     1       2.125   3.595  20.141  0.00  0.00    +0.000 C 
ATOM     15  C   UNL     1       3.464   3.107  19.575  0.00  0.00    +0.000 C 
ATOM     16  C   UNL     1       2.173   3.479  21.673  0.00  0.00    +0.000 C 
ATOM     17  C   UNL     1       0.945   2.749  19.642  0.00  0.00    +0.000 C 
ENDBRANCH  13  14
ENDBRANCH  11  13
ENDBRANCH   1  11
BRANCH   1  18
ATOM     18  C   UNL     1       2.055   7.966  18.199  0.00  0.00    +0.000 C 
BRANCH  18  19
ATOM     19  C   UNL     1       1.541   8.726  19.430  0.00  0.00    +0.000 C 
BRANCH  19  20
ATOM     20  C   UNL     1       0.609   9.852  19.022  0.00  0.00    +0.000 C 
ATOM     21  O   UNL     1       0.108   9.843  17.889  0.00  0.00    +0.000 OA
ATOM     22  N   UNL     1       0.201  10.805  19.941  0.00  0.00    +0.000 N 
ATOM     23  C   UNL     1       0.358  10.671  21.315  0.00  0.00    +0.000 C 
ATOM     24  O   UNL     1       1.286  10.168  21.922  0.00  0.00    +0.000 OA
ATOM     25  S   UNL     1      -0.963  11.454  22.163  0.00  0.00    +0.000 S 
ATOM     26  C   UNL     1      -1.334  12.503  20.752  0.00  0.00    +0.000 C 
ATOM     27  C   UNL     1      -0.932  11.648  19.556  0.00  0.00    +0.000 C 
BRANCH  27  28
ATOM     28  C   UNL     1      -0.628  12.592  18.386  0.00  0.00    +0.000 C 
ATOM     29  O   UNL     1       0.237  13.464  18.410  0.00  0.00    +0.000 OA
BRANCH  28  30
ATOM     30  O   UNL     1      -1.401  12.406  17.296  0.00  0.00    +0.000 OA
ATOM     31  H   UNL     1      -0.874  12.285  16.467  0.00  0.00    +0.000 HD
ENDBRANCH  28  30
ENDBRANCH  27  28
ENDBRANCH  19  20
ENDBRANCH  18  19
ENDBRANCH   1  18
TORSDOF 11
ENDMDL
MODEL 2
REMARK VINA RESULT:      -7.1      1.379      4.699
REMARK  Name = 
REMARK  17 active torsions:
REMARK  status: ('A' for Active; 'I' for Inactive)
REMARK    1  A    between atoms: C_1  and  C_2
REMARK    2  A    between atoms: C_2  and  C_3
REMARK    3  A    between atoms: C_2  and  C_4
REMARK    4  A    between atoms: C_2  and  O_5
REMARK    5  A    between atoms: O_5  and  C_6
REMARK    6  A    between atoms: N_8  and  C_9
REMARK    7  A    between atoms: C_9  and  C_10
REMARK    8  A    between atoms: C_9  and  C_23
REMARK    9  A    between atoms: C_10  and  C_11
REMARK   10  A    between atoms: C_11  and  C_12
REMARK   11  A    between atoms: C_19  and  C_20
REMARK   12  A    between atoms: C_20  and  O_22
REMARK   13  A    between atoms: C_23  and  O_25
REMARK   14  A    between atoms: O_25  and  C_26
REMARK   15  A    between atoms: C_26  and  C_27
REMARK   16  A    between atoms: C_26  and  C_28
REMARK   17  A    between atoms: C_26  and  C_29
REMARK                            x       y       z     vdW  Elec       q    Type
REMARK                         _______ _______ _______ _____ _____    ______ ____
ROOT
ATOM      1  C   UNL     1       3.098   6.613  17.683  0.00  0.00    +0.000 C 
ENDROOT
BRANCH   1   4
ATOM      2  C   UNL     1       1.713   4.753  18.548  0.00  0.00    +0.000 C 
ATOM      3  O   UNL     1       1.401   4.370  17.431  0.00  0.00    +0.000 OA
ATOM      4  N   UNL     1       2.519   5.826  18.777  0.00  0.00    +0.000 N 
ATOM      5  H   UNL     1       2.810   6.003  19.731  0.00  0.00    +0.000 HD
BRANCH   2   6
ATOM      6  O   UNL     1       1.313   4.207  19.724  0.00  0.00    +0.000 OA
BRANCH   6   8
ATOM      7  C   UNL     1       1.472   2.595  21.598  0.00  0.00    +0.000 C 
ATOM      8  C   UNL     1       1.927   2.968  20.181  0.00  0.00    +0.000 C 
ATOM      9  C   UNL     1       3.455   3.047  20.068  0.00  0.00    +0.000 C 
ATOM     10  C   UNL     1       1.431   1.873  19.221  0.00  0.00    +0.000 C 
ENDBRANCH   6   8
ENDBRANCH   2   6
ENDBRANCH   1   4
BRANCH   1  11
ATOM     11  C   UNL     1       4.600   6.337  17.490  0.00  0.00    +0.000 C 
ATOM     12  O   UNL     1       5.418   6.428  18.399  0.00  0.00    +0.000 OA
BRANCH  11  13
ATOM     13  O   UNL     1       4.910   5.983  16.211  0.00  0.00    +0.000 OA
BRANCH  13  14
ATOM     14  C   UNL     1       5.549   4.694  15.981  0.00  0.00    +0.000 C 
ATOM     15  C   UNL     1       4.773   3.572  16.680  0.00  0.00    +0.000 C 
ATOM     16  C   UNL     1       5.474   4.464  14.463  0.00  0.00    +0.000 C 
ATOM     17  C   UNL     1       7.031   4.710  16.382  0.00  0.00    +0.000 C 
ENDBRANCH  13  14
ENDBRANCH  11  13
ENDBRANCH   1  11
BRANCH   1  18
ATOM     18  C   UNL     1       2.838   8.127  17.905  0.00  0.00    +0.000 C 
BRANCH  18  19
ATOM     19  C   UNL     1       1.379   8.541  18.142  0.00  0.00    +0.000 C 
BRANCH  19  20
ATOM     20  C   UNL     1       1.163   8.961  19.584  0.00  0.00    +0.000 C 
ATOM     21  O   UNL     1       1.965   8.588  20.451  0.00  0.00    +0.000 OA
ATOM     22  N   UNL     1       0.170   9.869  19.918  0.00  0.00    +0.000 N 
ATOM     23  C   UNL     1      -0.497  10.661  18.993  0.00  0.00    +0.000 C 
ATOM     24  O   UNL     1      -0.841  10.371  17.861  0.00  0.00    +0.000 OA
ATOM     25  S   UNL     1      -0.925  12.207  19.702  0.00  0.00    +0.000 S 
ATOM     26  C   UNL     1      -0.823  11.545  21.369  0.00  0.00    +0.000 C 
ATOM     27  C   UNL     1       0.241  10.458  21.256  0.00  0.00    +0.000 C 
BRANCH  27  28
ATOM     28  C   UNL     1       0.001   9.449  22.387  0.00  0.00    +0.000 C 
ATOM     29  O   UNL     1       0.425   9.583  23.532  0.00  0.00    +0.000 OA
BRANCH  28  30
ATOM     30  O   UNL     1      -0.720   8.365  22.032  0.00  0.00    +0.000 OA
ATOM     31  H   UNL     1      -0.544   7.581  22.610  0.00  0.00    +0.000 HD
ENDBRANCH  28  30
ENDBRANCH  27  28
ENDBRANCH  19  20
ENDBRANCH  18  19
ENDBRANCH   1  18
TORSDOF 11
ENDMDL
MODEL 3
REMARK VINA RESULT:      -7.1      1.366      4.632
REMARK  Name = 
REMARK  17 active torsions:
REMARK  status: ('A' for Active; 'I' for Inactive)
REMARK    1  A    between atoms: C_1  and  C_2
REMARK    2  A    between atoms: C_2  and  C_3
REMARK    3  A    between atoms: C_2  and  C_4
REMARK    4  A    between atoms: C_2  and  O_5
REMARK    5  A    between atoms: O_5  and  C_6
REMARK    6  A    between atoms: N_8  and  C_9
REMARK    7  A    between atoms: C_9  and  C_10
REMARK    8  A    between atoms: C_9  and  C_23
REMARK    9  A    between atoms: C_10  and  C_11
REMARK   10  A    between atoms: C_11  and  C_12
REMARK   11  A    between atoms: C_19  and  C_20
REMARK   12  A    between atoms: C_20  and  O_22
REMARK   13  A    between atoms: C_23  and  O_25
REMARK   14  A    between atoms: O_25  and  C_26
REMARK   15  A    between atoms: C_26  and  C_27
REMARK   16  A    between atoms: C_26  and  C_28
REMARK   17  A    between atoms: C_26  and  C_29
REMARK                            x       y       z     vdW  Elec       q    Type
REMARK                         _______ _______ _______ _____ _____    ______ ____
ROOT
ATOM      1  C   UNL     1       3.217   6.525  17.679  0.00  0.00    +0.000 C 
ENDROOT
BRANCH   1   4
ATOM      2  C   UNL     1       1.737   4.729  18.521  0.00  0.00    +0.000 C 
ATOM      3  O   UNL     1       1.394   4.386  17.400  0.00  0.00    +0.000 OA
ATOM      4  N   UNL     1       2.604   5.750  18.763  0.00  0.00    +0.000 N 
ATOM      5  H   UNL     1       2.912   5.891  19.718  0.00  0.00    +0.000 HD
BRANCH   2   6
ATOM      6  O   UNL     1       1.317   4.183  19.690  0.00  0.00    +0.000 OA
BRANCH   6   8
ATOM      7  C   UNL     1       1.477   1.761  19.193  0.00  0.00    +0.000 C 
ATOM      8  C   UNL     1       1.877   2.912  20.126  0.00  0.00    +0.000 C 
ATOM      9  C   UNL     1       1.501   2.627  21.586  0.00  0.00    +0.000 C 
ATOM     10  C   UNL     1       3.404   3.075  20.048  0.00  0.00    +0.000 C 
ENDBRANCH   6   8
ENDBRANCH   2   6
ENDBRANCH   1   4
BRANCH   1  11
ATOM     11  C   UNL     1       4.726   6.252  17.542  0.00  0.00    +0.000 C 
ATOM     12  O   UNL     1       5.494   6.254  18.498  0.00  0.00    +0.000 OA
BRANCH  11  13
ATOM     13  O   UNL     1       5.104   6.011  16.254  0.00  0.00    +0.000 OA
BRANCH  13  14
ATOM     14  C   UNL     1       5.571   4.677  15.905  0.00  0.00    +0.000 C 
ATOM     15  C   UNL     1       5.492   4.453  14.390  0.00  0.00    +0.000 C 
ATOM     16  C   UNL     1       7.049   4.637  16.327  0.00  0.00    +0.000 C 
ATOM     17  C   UNL     1       4.828   3.586  16.690  0.00  0.00    +0.000 C 
ENDBRANCH  13  14
ENDBRANCH  11  13
ENDBRANCH   1  11
BRANCH   1  18
ATOM     18  C   UNL     1       2.944   8.040  17.871  0.00  0.00    +0.000 C 
BRANCH  18  19
ATOM     19  C   UNL     1       1.479   8.448  18.082  0.00  0.00    +0.000 C 
BRANCH  19  20
ATOM     20  C   UNL     1       1.232   8.854  19.523  0.00  0.00    +0.000 C 
ATOM     21  O   UNL     1       1.986   8.430  20.410  0.00  0.00    +0.000 OA
ATOM     22  N   UNL     1       0.271   9.802  19.839  0.00  0.00    +0.000 N 
ATOM     23  C   UNL     1      -0.327  10.638  18.904  0.00  0.00    +0.000 C 
ATOM     24  O   UNL     1      -0.644  10.382  17.757  0.00  0.00    +0.000 OA
ATOM     25  S   UNL     1      -0.709  12.190  19.626  0.00  0.00    +0.000 S 
ATOM     26  C   UNL     1      -0.695  11.498  21.284  0.00  0.00    +0.000 C 
ATOM     27  C   UNL     1       0.321  10.365  21.188  0.00  0.00    +0.000 C 
BRANCH  27  28
ATOM     28  C   UNL     1      -0.004   9.350  22.292  0.00  0.00    +0.000 C 
ATOM     29  O   UNL     1      -0.746   8.383  22.142  0.00  0.00    +0.000 OA
BRANCH  28  30
ATOM     30  O   UNL     1       0.588   9.599  23.479  0.00  0.00    +0.000 OA
ATOM     31  H   UNL     1       0.220   9.048  24.215  0.00  0.00    +0.000 HD
ENDBRANCH  28  30
ENDBRANCH  27  28
ENDBRANCH  19  20
ENDBRANCH  18  19
ENDBRANCH   1  18
TORSDOF 11
ENDMDL
MODEL 4
REMARK VINA RESULT:      -7.0      1.484      4.638
REMARK  Name = 
REMARK  17 active torsions:
REMARK  status: ('A' for Active; 'I' for Inactive)
REMARK    1  A    between atoms: C_1  and  C_2
REMARK    2  A    between atoms: C_2  and  C_3
REMARK    3  A    between atoms: C_2  and  C_4
REMARK    4  A    between atoms: C_2  and  O_5
REMARK    5  A    between atoms: O_5  and  C_6
REMARK    6  A    between atoms: N_8  and  C_9
REMARK    7  A    between atoms: C_9  and  C_10
REMARK    8  A    between atoms: C_9  and  C_23
REMARK    9  A    between atoms: C_10  and  C_11
REMARK   10  A    between atoms: C_11  and  C_12
REMARK   11  A    between atoms: C_19  and  C_20
REMARK   12  A    between atoms: C_20  and  O_22
REMARK   13  A    between atoms: C_23  and  O_25
REMARK   14  A    between atoms: O_25  and  C_26
REMARK   15  A    between atoms: C_26  and  C_27
REMARK   16  A    between atoms: C_26  and  C_28
REMARK   17  A    between atoms: C_26  and  C_29
REMARK                            x       y       z     vdW  Elec       q    Type
REMARK                         _______ _______ _______ _____ _____    ______ ____
ROOT
ATOM      1  C   UNL     1       3.329   6.746  17.534  0.00  0.00    +0.000 C 
ENDROOT
BRANCH   1   4
ATOM      2  C   UNL     1       2.056   4.925  18.626  0.00  0.00    +0.000 C 
ATOM      3  O   UNL     1       1.506   4.590  17.588  0.00  0.00    +0.000 OA
ATOM      4  N   UNL     1       2.944   5.954  18.707  0.00  0.00    +0.000 N 
ATOM      5  H   UNL     1       3.430   6.089  19.586  0.00  0.00    +0.000 HD
BRANCH   2   6
ATOM      6  O   UNL     1       1.875   4.363  19.847  0.00  0.00    +0.000 OA
BRANCH   6   8
ATOM      7  C   UNL     1       3.913   2.957  19.780  0.00  0.00    +0.000 C 
ATOM      8  C   UNL     1       2.417   3.038  20.111  0.00  0.00    +0.000 C 
ATOM      9  C   UNL     1       1.604   1.964  19.375  0.00  0.00    +0.000 C 
ATOM     10  C   UNL     1       2.255   2.808  21.623  0.00  0.00    +0.000 C 
ENDBRANCH   6   8
ENDBRANCH   2   6
ENDBRANCH   1   4
BRANCH   1  11
ATOM     11  C   UNL     1       4.808   6.554  17.153  0.00  0.00    +0.000 C 
ATOM     12  O   UNL     1       5.262   6.871  16.059  0.00  0.00    +0.000 OA
BRANCH  11  13
ATOM     13  O   UNL     1       5.544   6.000  18.159  0.00  0.00    +0.000 OA
BRANCH  13  14
ATOM     14  C   UNL     1       6.996   6.029  18.054  0.00  0.00    +0.000 C 
ATOM     15  C   UNL     1       7.644   5.700  19.404  0.00  0.00    +0.000 C 
ATOM     16  C   UNL     1       7.357   4.916  17.057  0.00  0.00    +0.000 C 
ATOM     17  C   UNL     1       7.502   7.359  17.479  0.00  0.00    +0.000 C 
ENDBRANCH  13  14
ENDBRANCH  11  13
ENDBRANCH   1  11
BRANCH   1  18
ATOM     18  C   UNL     1       3.006   8.247  17.761  0.00  0.00    +0.000 C 
BRANCH  18  19
ATOM     19  C   UNL     1       1.526   8.604  17.961  0.00  0.00    +0.000 C 
BRANCH  19  20
ATOM     20  C   UNL     1       1.251   8.983  19.405  0.00  0.00    +0.000 C 
ATOM     21  O   UNL     1       2.079   8.686  20.277  0.00  0.00    +0.000 OA
ATOM     22  N   UNL     1       0.165   9.778  19.736  0.00  0.00    +0.000 N 
ATOM     23  C   UNL     1      -0.571  10.506  18.809  0.00  0.00    +0.000 C 
ATOM     24  O   UNL     1      -0.870  10.193  17.671  0.00  0.00    +0.000 OA
ATOM     25  S   UNL     1      -1.166  11.990  19.529  0.00  0.00    +0.000 S 
ATOM     26  C   UNL     1      -1.014  11.324  21.191  0.00  0.00    +0.000 C 
ATOM     27  C   UNL     1       0.159  10.356  21.080  0.00  0.00    +0.000 C 
BRANCH  27  28
ATOM     28  C   UNL     1       0.014   9.315  22.198  0.00  0.00    +0.000 C 
ATOM     29  O   UNL     1      -0.850   8.443  22.219  0.00  0.00    +0.000 OA
BRANCH  28  30
ATOM     30  O   UNL     1       0.918   9.427  23.193  0.00  0.00    +0.000 OA
ATOM     31  H   UNL     1       1.206   8.549  23.550  0.00  0.00    +0.000 HD
ENDBRANCH  28  30
ENDBRANCH  27  28
ENDBRANCH  19  20
ENDBRANCH  18  19
ENDBRANCH   1  18
TORSDOF 11
ENDMDL
MODEL 5
REMARK VINA RESULT:      -7.0      0.904      1.544
REMARK  Name = 
REMARK  17 active torsions:
REMARK  status: ('A' for Active; 'I' for Inactive)
REMARK    1  A    between atoms: C_1  and  C_2
REMARK    2  A    between atoms: C_2  and  C_3
REMARK    3  A    between atoms: C_2  and  C_4
REMARK    4  A    between atoms: C_2  and  O_5
REMARK    5  A    between atoms: O_5  and  C_6
REMARK    6  A    between atoms: N_8  and  C_9
REMARK    7  A    between atoms: C_9  and  C_10
REMARK    8  A    between atoms: C_9  and  C_23
REMARK    9  A    between atoms: C_10  and  C_11
REMARK   10  A    between atoms: C_11  and  C_12
REMARK   11  A    between atoms: C_19  and  C_20
REMARK   12  A    between atoms: C_20  and  O_22
REMARK   13  A    between atoms: C_23  and  O_25
REMARK   14  A    between atoms: O_25  and  C_26
REMARK   15  A    between atoms: C_26  and  C_27
REMARK   16  A    between atoms: C_26  and  C_28
REMARK   17  A    between atoms: C_26  and  C_29
REMARK                            x       y       z     vdW  Elec       q    Type
REMARK                         _______ _______ _______ _____ _____    ______ ____
ROOT
ATOM      1  C   UNL     1       2.952   6.537  19.148  0.00  0.00    +0.000 C 
ENDROOT
BRANCH   1   4
ATOM      2  C   UNL     1       4.967   5.431  18.229  0.00  0.00    +0.000 C 
ATOM      3  O   UNL     1       5.458   5.247  19.333  0.00  0.00    +0.000 OA
ATOM      4  N   UNL     1       3.770   6.049  18.033  0.00  0.00    +0.000 N 
ATOM      5  H   UNL     1       3.394   6.059  17.092  0.00  0.00    +0.000 HD
BRANCH   2   6
ATOM      6  O   UNL     1       5.516   5.081  17.039  0.00  0.00    +0.000 OA
BRANCH   6   8
ATOM      7  C   UNL     1       7.201   6.891  17.177  0.00  0.00    +0.000 C 
ATOM      8  C   UNL     1       6.895   5.449  16.754  0.00  0.00    +0.000 C 
ATOM      9  C   UNL     1       7.229   5.198  15.277  0.00  0.00    +0.000 C 
ATOM     10  C   UNL     1       7.767   4.511  17.607  0.00  0.00    +0.000 C 
ENDBRANCH   6   8
ENDBRANCH   2   6
ENDBRANCH   1   4
BRANCH   1  11
ATOM     11  C   UNL     1       1.965   5.475  19.664  0.00  0.00    +0.000 C 
ATOM     12  O   UNL     1       1.576   5.434  20.826  0.00  0.00    +0.000 OA
BRANCH  11  13
ATOM     13  O   UNL     1       1.579   4.598  18.694  0.00  0.00    +0.000 OA
BRANCH  13  14
ATOM     14  C   UNL     1       1.856   3.182  18.886  0.00  0.00    +0.000 C 
ATOM     15  C   UNL     1       0.559   2.403  19.134  0.00  0.00    +0.000 C 
ATOM     16  C   UNL     1       2.467   2.700  17.560  0.00  0.00    +0.000 C 
ATOM     17  C   UNL     1       2.892   2.947  19.995  0.00  0.00    +0.000 C 
ENDBRANCH  13  14
ENDBRANCH  11  13
ENDBRANCH   1  11
BRANCH   1  18
ATOM     18  C   UNL     1       2.206   7.838  18.747  0.00  0.00    +0.000 C 
BRANCH  18  19
ATOM     19  C   UNL     1       1.589   8.651  19.894  0.00  0.00    +0.000 C 
BRANCH  19  20
ATOM     20  C   UNL     1       0.730   9.780  19.357  0.00  0.00    +0.000 C 
ATOM     21  O   UNL     1       0.339   9.737  18.182  0.00  0.00    +0.000 OA
ATOM     22  N   UNL     1       0.260  10.777  20.197  0.00  0.00    +0.000 N 
ATOM     23  C   UNL     1       0.282  10.694  21.583  0.00  0.00    +0.000 C 
ATOM     24  O   UNL     1       1.134  10.194  22.295  0.00  0.00    +0.000 OA
ATOM     25  S   UNL     1      -1.094  11.538  22.270  0.00  0.00    +0.000 S 
ATOM     26  C   UNL     1      -1.301  12.539  20.793  0.00  0.00    +0.000 C 
ATOM     27  C   UNL     1      -0.809  11.629  19.673  0.00  0.00    +0.000 C 
BRANCH  27  28
ATOM     28  C   UNL     1      -0.370  12.520  18.504  0.00  0.00    +0.000 C 
ATOM     29  O   UNL     1       0.615  13.254  18.528  0.00  0.00    +0.000 OA
BRANCH  28  30
ATOM     30  O   UNL     1      -1.163  12.452  17.415  0.00  0.00    +0.000 OA
ATOM     31  H   UNL     1      -0.656  12.294  16.579  0.00  0.00    +0.000 HD
ENDBRANCH  28  30
ENDBRANCH  27  28
ENDBRANCH  19  20
ENDBRANCH  18  19
ENDBRANCH   1  18
TORSDOF 11
ENDMDL
MODEL 6
REMARK VINA RESULT:      -7.0      1.602      4.868
REMARK  Name = 
REMARK  17 active torsions:
REMARK  status: ('A' for Active; 'I' for Inactive)
REMARK    1  A    between atoms: C_1  and  C_2
REMARK    2  A    between atoms: C_2  and  C_3
REMARK    3  A    between atoms: C_2  and  C_4
REMARK    4  A    between atoms: C_2  and  O_5
REMARK    5  A    between atoms: O_5  and  C_6
REMARK    6  A    between atoms: N_8  and  C_9
REMARK    7  A    between atoms: C_9  and  C_10
REMARK    8  A    between atoms: C_9  and  C_23
REMARK    9  A    between atoms: C_10  and  C_11
REMARK   10  A    between atoms: C_11  and  C_12
REMARK   11  A    between atoms: C_19  and  C_20
REMARK   12  A    between atoms: C_20  and  O_22
REMARK   13  A    between atoms: C_23  and  O_25
REMARK   14  A    between atoms: O_25  and  C_26
REMARK   15  A    between atoms: C_26  and  C_27
REMARK   16  A    between atoms: C_26  and  C_28
REMARK   17  A    between atoms: C_26  and  C_29
REMARK                            x       y       z     vdW  Elec       q    Type
REMARK                         _______ _______ _______ _____ _____    ______ ____
ROOT
ATOM      1  C   UNL     1       3.916   6.558  17.402  0.00  0.00    +0.000 C 
ENDROOT
BRANCH   1   4
ATOM      2  C   UNL     1       3.275   4.398  18.426  0.00  0.00    +0.000 C 
ATOM      3  O   UNL     1       2.761   3.981  17.400  0.00  0.00    +0.000 OA
ATOM      4  N   UNL     1       3.851   5.627  18.533  0.00  0.00    +0.000 N 
ATOM      5  H   UNL     1       4.346   5.843  19.391  0.00  0.00    +0.000 HD
BRANCH   2   6
ATOM      6  O   UNL     1       3.346   3.741  19.612  0.00  0.00    +0.000 OA
BRANCH   6   8
ATOM      7  C   UNL     1       1.139   4.553  20.391  0.00  0.00    +0.000 C 
ATOM      8  C   UNL     1       2.116   3.373  20.298  0.00  0.00    +0.000 C 
ATOM      9  C   UNL     1       2.424   2.769  21.675  0.00  0.00    +0.000 C 
ATOM     10  C   UNL     1       1.460   2.283  19.433  0.00  0.00    +0.000 C 
ENDBRANCH   6   8
ENDBRANCH   2   6
ENDBRANCH   1   4
BRANCH   1  11
ATOM     11  C   UNL     1       5.361   6.823  16.940  0.00  0.00    +0.000 C 
ATOM     12  O   UNL     1       6.184   7.416  17.630  0.00  0.00    +0.000 OA
BRANCH  11  13
ATOM     13  O   UNL     1       5.616   6.328  15.696  0.00  0.00    +0.000 OA
BRANCH  13  14
ATOM     14  C   UNL     1       6.265   5.030  15.584  0.00  0.00    +0.000 C 
ATOM     15  C   UNL     1       5.251   3.946  15.199  0.00  0.00    +0.000 C 
ATOM     16  C   UNL     1       7.279   5.176  14.436  0.00  0.00    +0.000 C 
ATOM     17  C   UNL     1       7.044   4.667  16.856  0.00  0.00    +0.000 C 
ENDBRANCH  13  14
ENDBRANCH  11  13
ENDBRANCH   1  11
BRANCH   1  18
ATOM     18  C   UNL     1       3.194   7.887  17.749  0.00  0.00    +0.000 C 
BRANCH  18  19
ATOM     19  C   UNL     1       1.731   7.770  18.200  0.00  0.00    +0.000 C 
BRANCH  19  20
ATOM     20  C   UNL     1       1.542   8.359  19.585  0.00  0.00    +0.000 C 
ATOM     21  O   UNL     1       2.195   7.900  20.533  0.00  0.00    +0.000 OA
ATOM     22  N   UNL     1       0.765   9.491  19.776  0.00  0.00    +0.000 N 
ATOM     23  C   UNL     1       0.342  10.321  18.746  0.00  0.00    +0.000 C 
ATOM     24  O   UNL     1      -0.002  10.010  17.620  0.00  0.00    +0.000 OA
ATOM     25  S   UNL     1       0.238  11.982  19.300  0.00  0.00    +0.000 S 
ATOM     26  C   UNL     1       0.104  11.471  21.017  0.00  0.00    +0.000 C 
ATOM     27  C   UNL     1       0.899  10.171  21.065  0.00  0.00    +0.000 C 
BRANCH  27  28
ATOM     28  C   UNL     1       0.380   9.349  22.252  0.00  0.00    +0.000 C 
ATOM     29  O   UNL     1       0.733   9.521  23.416  0.00  0.00    +0.000 OA
BRANCH  28  30
ATOM     30  O   UNL     1      -0.508   8.387  21.927  0.00  0.00    +0.000 OA
ATOM     31  H   UNL     1      -1.211   8.265  22.613  0.00  0.00    +0.000 HD
ENDBRANCH  28  30
ENDBRANCH  27  28
ENDBRANCH  19  20
ENDBRANCH  18  19
ENDBRANCH   1  18
TORSDOF 11
ENDMDL
MODEL 7
REMARK VINA RESULT:      -7.0      1.550      4.189
REMARK  Name = 
REMARK  17 active torsions:
REMARK  status: ('A' for Active; 'I' for Inactive)
REMARK    1  A    between atoms: C_1  and  C_2
REMARK    2  A    between atoms: C_2  and  C_3
REMARK    3  A    between atoms: C_2  and  C_4
REMARK    4  A    between atoms: C_2  and  O_5
REMARK    5  A    between atoms: O_5  and  C_6
REMARK    6  A    between atoms: N_8  and  C_9
REMARK    7  A    between atoms: C_9  and  C_10
REMARK    8  A    between atoms: C_9  and  C_23
REMARK    9  A    between atoms: C_10  and  C_11
REMARK   10  A    between atoms: C_11  and  C_12
REMARK   11  A    between atoms: C_19  and  C_20
REMARK   12  A    between atoms: C_20  and  O_22
REMARK   13  A    between atoms: C_23  and  O_25
REMARK   14  A    between atoms: O_25  and  C_26
REMARK   15  A    between atoms: C_26  and  C_27
REMARK   16  A    between atoms: C_26  and  C_28
REMARK   17  A    between atoms: C_26  and  C_29
REMARK                            x       y       z     vdW  Elec       q    Type
REMARK                         _______ _______ _______ _____ _____    ______ ____
ROOT
ATOM      1  C   UNL     1       3.579   6.181  17.453  0.00  0.00    +0.000 C 
ENDROOT
BRANCH   1   4
ATOM      2  C   UNL     1       3.273   3.969  18.519  0.00  0.00    +0.000 C 
ATOM      3  O   UNL     1       3.408   3.362  17.468  0.00  0.00    +0.000 OA
ATOM      4  N   UNL     1       3.331   5.325  18.617  0.00  0.00    +0.000 N 
ATOM      5  H   UNL     1       3.315   5.732  19.545  0.00  0.00    +0.000 HD
BRANCH   2   6
ATOM      6  O   UNL     1       3.031   3.419  19.736  0.00  0.00    +0.000 OA
BRANCH   6   8
ATOM      7  C   UNL     1       0.770   2.549  19.221  0.00  0.00    +0.000 C 
ATOM      8  C   UNL     1       1.659   3.313  20.211  0.00  0.00    +0.000 C 
ATOM      9  C   UNL     1       1.091   4.699  20.544  0.00  0.00    +0.000 C 
ATOM     10  C   UNL     1       1.725   2.497  21.513  0.00  0.00    +0.000 C 
ENDBRANCH   6   8
ENDBRANCH   2   6
ENDBRANCH   1   4
BRANCH   1  11
ATOM     11  C   UNL     1       5.076   6.479  17.249  0.00  0.00    +0.000 C 
ATOM     12  O   UNL     1       5.538   6.881  16.187  0.00  0.00    +0.000 OA
BRANCH  11  13
ATOM     13  O   UNL     1       5.817   6.247  18.370  0.00  0.00    +0.000 OA
BRANCH  13  14
ATOM     14  C   UNL     1       7.245   6.003  18.222  0.00  0.00    +0.000 C 
ATOM     15  C   UNL     1       7.968   7.272  17.758  0.00  0.00    +0.000 C 
ATOM     16  C   UNL     1       7.748   5.643  19.630  0.00  0.00    +0.000 C 
ATOM     17  C   UNL     1       7.528   4.807  17.301  0.00  0.00    +0.000 C 
ENDBRANCH  13  14
ENDBRANCH  11  13
ENDBRANCH   1  11
BRANCH   1  18
ATOM     18  C   UNL     1       2.763   7.496  17.559  0.00  0.00    +0.000 C 
BRANCH  18  19
ATOM     19  C   UNL     1       2.214   7.847  18.949  0.00  0.00    +0.000 C 
BRANCH  19  20
ATOM     20  C   UNL     1       1.451   9.158  18.915  0.00  0.00    +0.000 C 
ATOM     21  O   UNL     1       1.120   9.638  17.821  0.00  0.00    +0.000 OA
ATOM     22  N   UNL     1       0.996   9.747  20.084  0.00  0.00    +0.000 N 
ATOM     23  C   UNL     1       0.941   9.092  21.308  0.00  0.00    +0.000 C 
ATOM     24  O   UNL     1       1.725   8.280  21.765  0.00  0.00    +0.000 OA
ATOM     25  S   UNL     1      -0.417   9.673  22.254  0.00  0.00    +0.000 S 
ATOM     26  C   UNL     1      -0.489  11.211  21.328  0.00  0.00    +0.000 C 
ATOM     27  C   UNL     1       0.007  10.816  19.942  0.00  0.00    +0.000 C 
BRANCH  27  28
ATOM     28  C   UNL     1       0.557  12.078  19.264  0.00  0.00    +0.000 C 
ATOM     29  O   UNL     1       1.437  12.788  19.741  0.00  0.00    +0.000 OA
BRANCH  28  30
ATOM     30  O   UNL     1      -0.012  12.373  18.076  0.00  0.00    +0.000 OA
ATOM     31  H   UNL     1       0.595  12.870  17.473  0.00  0.00    +0.000 HD
ENDBRANCH  28  30
ENDBRANCH  27  28
ENDBRANCH  19  20
ENDBRANCH  18  19
ENDBRANCH   1  18
TORSDOF 11
ENDMDL
MODEL 8
REMARK VINA RESULT:      -6.9      1.333      4.376
REMARK  Name = 
REMARK  17 active torsions:
REMARK  status: ('A' for Active; 'I' for Inactive)
REMARK    1  A    between atoms: C_1  and  C_2
REMARK    2  A    between atoms: C_2  and  C_3
REMARK    3  A    between atoms: C_2  and  C_4
REMARK    4  A    between atoms: C_2  and  O_5
REMARK    5  A    between atoms: O_5  and  C_6
REMARK    6  A    between atoms: N_8  and  C_9
REMARK    7  A    between atoms: C_9  and  C_10
REMARK    8  A    between atoms: C_9  and  C_23
REMARK    9  A    between atoms: C_10  and  C_11
REMARK   10  A    between atoms: C_11  and  C_12
REMARK   11  A    between atoms: C_19  and  C_20
REMARK   12  A    between atoms: C_20  and  O_22
REMARK   13  A    between atoms: C_23  and  O_25
REMARK   14  A    between atoms: O_25  and  C_26
REMARK   15  A    between atoms: C_26  and  C_27
REMARK   16  A    between atoms: C_26  and  C_28
REMARK   17  A    between atoms: C_26  and  C_29
REMARK                            x       y       z     vdW  Elec       q    Type
REMARK                         _______ _______ _______ _____ _____    ______ ____
ROOT
ATOM      1  C   UNL     1       4.064   6.481  17.300  0.00  0.00    +0.000 C 
ENDROOT
BRANCH   1   4
ATOM      2  C   UNL     1       3.260   4.374  18.320  0.00  0.00    +0.000 C 
ATOM      3  O   UNL     1       2.669   4.026  17.309  0.00  0.00    +0.000 OA
ATOM      4  N   UNL     1       3.955   5.540  18.420  0.00  0.00    +0.000 N 
ATOM      5  H   UNL     1       4.502   5.693  19.259  0.00  0.00    +0.000 HD
BRANCH   2   6
ATOM      6  O   UNL     1       3.315   3.692  19.492  0.00  0.00    +0.000 OA
BRANCH   6   8
ATOM      7  C   UNL     1       1.179   2.438  19.454  0.00  0.00    +0.000 C 
ATOM      8  C   UNL     1       2.083   3.417  20.215  0.00  0.00    +0.000 C 
ATOM      9  C   UNL     1       1.355   4.723  20.563  0.00  0.00    +0.000 C 
ATOM     10  C   UNL     1       2.507   2.742  21.531  0.00  0.00    +0.000 C 
ENDBRANCH   6   8
ENDBRANCH   2   6
ENDBRANCH   1   4
BRANCH   1  11
ATOM     11  C   UNL     1       5.521   6.698  16.853  0.00  0.00    +0.000 C 
ATOM     12  O   UNL     1       6.377   7.186  17.583  0.00  0.00    +0.000 OA
BRANCH  11  13
ATOM     13  O   UNL     1       5.745   6.291  15.571  0.00  0.00    +0.000 OA
BRANCH  13  14
ATOM     14  C   UNL     1       6.413   5.015  15.354  0.00  0.00    +0.000 C 
ATOM     15  C   UNL     1       7.141   4.560  16.624  0.00  0.00    +0.000 C 
ATOM     16  C   UNL     1       5.289   4.010  15.051  0.00  0.00    +0.000 C 
ATOM     17  C   UNL     1       7.347   5.057  14.136  0.00  0.00    +0.000 C 
ENDBRANCH  13  14
ENDBRANCH  11  13
ENDBRANCH   1  11
BRANCH   1  18
ATOM     18  C   UNL     1       3.387   7.832  17.656  0.00  0.00    +0.000 C 
BRANCH  18  19
ATOM     19  C   UNL     1       2.285   7.782  18.724  0.00  0.00    +0.000 C 
BRANCH  19  20
ATOM     20  C   UNL     1       1.474   9.064  18.725  0.00  0.00    +0.000 C 
ATOM     21  O   UNL     1       1.116   9.555  17.645  0.00  0.00    +0.000 OA
ATOM     22  N   UNL     1       1.007   9.609  19.911  0.00  0.00    +0.000 N 
ATOM     23  C   UNL     1       0.987   8.926  21.120  0.00  0.00    +0.000 C 
ATOM     24  O   UNL     1       1.804   8.133  21.553  0.00  0.00    +0.000 OA
ATOM     25  S   UNL     1      -0.384   9.434  22.089  0.00  0.00    +0.000 S 
ATOM     26  C   UNL     1      -0.522  10.988  21.198  0.00  0.00    +0.000 C 
ATOM     27  C   UNL     1      -0.023  10.643  19.800  0.00  0.00    +0.000 C 
BRANCH  27  28
ATOM     28  C   UNL     1       0.474  11.939  19.146  0.00  0.00    +0.000 C 
ATOM     29  O   UNL     1      -0.230  12.683  18.468  0.00  0.00    +0.000 OA
BRANCH  28  30
ATOM     30  O   UNL     1       1.777  12.216  19.361  0.00  0.00    +0.000 OA
ATOM     31  H   UNL     1       1.922  12.784  20.159  0.00  0.00    +0.000 HD
ENDBRANCH  28  30
ENDBRANCH  27  28
ENDBRANCH  19  20
ENDBRANCH  18  19
ENDBRANCH   1  18
TORSDOF 11
ENDMDL
MODEL 9
REMARK VINA RESULT:      -6.9      1.456      4.526
REMARK  Name = 
REMARK  17 active torsions:
REMARK  status: ('A' for Active; 'I' for Inactive)
REMARK    1  A    between atoms: C_1  and  C_2
REMARK    2  A    between atoms: C_2  and  C_3
REMARK    3  A    between atoms: C_2  and  C_4
REMARK    4  A    between atoms: C_2  and  O_5
REMARK    5  A    between atoms: O_5  and  C_6
REMARK    6  A    between atoms: N_8  and  C_9
REMARK    7  A    between atoms: C_9  and  C_10
REMARK    8  A    between atoms: C_9  and  C_23
REMARK    9  A    between atoms: C_10  and  C_11
REMARK   10  A    between atoms: C_11  and  C_12
REMARK   11  A    between atoms: C_19  and  C_20
REMARK   12  A    between atoms: C_20  and  O_22
REMARK   13  A    between atoms: C_23  and  O_25
REMARK   14  A    between atoms: O_25  and  C_26
REMARK   15  A    between atoms: C_26  and  C_27
REMARK   16  A    between atoms: C_26  and  C_28
REMARK   17  A    between atoms: C_26  and  C_29
REMARK                            x       y       z     vdW  Elec       q    Type
REMARK                         _______ _______ _______ _____ _____    ______ ____
ROOT
ATOM      1  C   UNL     1       3.172   6.841  17.715  0.00  0.00    +0.000 C 
ENDROOT
BRANCH   1   4
ATOM      2  C   UNL     1       2.328   4.787  18.809  0.00  0.00    +0.000 C 
ATOM      3  O   UNL     1       2.048   4.250  17.748  0.00  0.00    +0.000 OA
ATOM      4  N   UNL     1       2.866   6.034  18.901  0.00  0.00    +0.000 N 
ATOM      5  H   UNL     1       3.164   6.353  19.815  0.00  0.00    +0.000 HD
BRANCH   2   6
ATOM      6  O   UNL     1       2.144   4.263  20.046  0.00  0.00    +0.000 OA
BRANCH   6   8
ATOM      7  C   UNL     1       3.943   2.561  20.084  0.00  0.00    +0.000 C 
ATOM      8  C   UNL     1       2.451   2.859  20.279  0.00  0.00    +0.000 C 
ATOM      9  C   UNL     1       1.564   1.958  19.410  0.00  0.00    +0.000 C 
ATOM     10  C   UNL     1       2.105   2.591  21.754  0.00  0.00    +0.000 C 
ENDBRANCH   6   8
ENDBRANCH   2   6
ENDBRANCH   1   4
BRANCH   1  11
ATOM     11  C   UNL     1       4.631   6.679  17.253  0.00  0.00    +0.000 C 
ATOM     12  O   UNL     1       4.989   6.864  16.094  0.00  0.00    +0.000 OA
BRANCH  11  13
ATOM     13  O   UNL     1       5.467   6.312  18.265  0.00  0.00    +0.000 OA
BRANCH  13  14
ATOM     14  C   UNL     1       6.852   5.996  17.943  0.00  0.00    +0.000 C 
ATOM     15  C   UNL     1       7.584   7.237  17.420  0.00  0.00    +0.000 C 
ATOM     16  C   UNL     1       7.497   5.575  19.274  0.00  0.00    +0.000 C 
ATOM     17  C   UNL     1       6.958   4.811  16.972  0.00  0.00    +0.000 C 
ENDBRANCH  13  14
ENDBRANCH  11  13
ENDBRANCH   1  11
BRANCH   1  18
ATOM     18  C   UNL     1       2.835   8.334  17.970  0.00  0.00    +0.000 C 
BRANCH  18  19
ATOM     19  C   UNL     1       1.357   8.666  18.222  0.00  0.00    +0.000 C 
BRANCH  19  20
ATOM     20  C   UNL     1       1.130   9.066  19.668  0.00  0.00    +0.000 C 
ATOM     21  O   UNL     1       1.933   8.690  20.533  0.00  0.00    +0.000 OA
ATOM     22  N   UNL     1       0.127   9.960  20.009  0.00  0.00    +0.000 N 
ATOM     23  C   UNL     1      -0.544  10.756  19.090  0.00  0.00    +0.000 C 
ATOM     24  O   UNL     1      -0.881  10.477  17.954  0.00  0.00    +0.000 OA
ATOM     25  S   UNL     1      -0.991  12.288  19.818  0.00  0.00    +0.000 S 
ATOM     26  C   UNL     1      -0.889  11.606  21.477  0.00  0.00    +0.000 C 
ATOM     27  C   UNL     1       0.186  10.532  21.355  0.00  0.00    +0.000 C 
BRANCH  27  28
ATOM     28  C   UNL     1      -0.048   9.506  22.472  0.00  0.00    +0.000 C 
ATOM     29  O   UNL     1       0.400   9.614  23.611  0.00  0.00    +0.000 OA
BRANCH  28  30
ATOM     30  O   UNL     1      -0.792   8.440  22.111  0.00  0.00    +0.000 OA
ATOM     31  H   UNL     1      -1.351   8.095  22.851  0.00  0.00    +0.000 HD
ENDBRANCH  28  30
ENDBRANCH  27  28
ENDBRANCH  19  20
ENDBRANCH  18  19
ENDBRANCH   1  18
TORSDOF 11
ENDMDL
