MODEL 1
REMARK VINA RESULT:      -8.5      0.000      0.000
REMARK  Name = 
REMARK  8 active torsions:
REMARK  status: ('A' for Active; 'I' for Inactive)
REMARK    1  A    between atoms: C_1  and  C_2
REMARK    2  A    between atoms: C_7  and  S_8
REMARK    3  A    between atoms: S_8  and  C_11
REMARK    4  A    between atoms: C_11  and  C_12
REMARK    5  A    between atoms: C_12  and  C_13
REMARK    6  A    between atoms: N_15  and  C_16
REMARK    7  A    between atoms: C_16  and  C_17
REMARK    8  A    between atoms: C_17  and  C_18
REMARK                            x       y       z     vdW  Elec       q    Type
REMARK                         _______ _______ _______ _____ _____    ______ ____
ROOT
ATOM      1  S   UNL     1       4.664   4.326  18.052  0.00  0.00    +0.000 S 
ATOM      2  O   UNL     1       5.192   3.568  19.173  0.00  0.00    +0.000 OA
ATOM      3  O   UNL     1       3.927   3.640  17.006  0.00  0.00    +0.000 OA
ENDROOT
BRANCH   1  10
ATOM      4  C   UNL     1       2.831   4.295  20.798  0.00  0.00    +0.000 C 
ATOM      5  C   UNL     1       2.818   5.490  19.887  0.00  0.00    +0.000 A 
ATOM      6  C   UNL     1       1.990   6.568  20.278  0.00  0.00    +0.000 A 
ATOM      7  C   UNL     1       1.908   7.728  19.514  0.00  0.00    +0.000 A 
ATOM      8  C   UNL     1       2.612   7.824  18.315  0.00  0.00    +0.000 A 
ATOM      9  C   UNL     1       3.450   6.781  17.914  0.00  0.00    +0.000 A 
ATOM     10  C   UNL     1       3.577   5.618  18.701  0.00  0.00    +0.000 A 
ATOM     11  O   UNL     1       2.583   8.938  17.517  0.00  0.00    +0.000 OA
ATOM     12  C   UNL     1       1.505   9.823  17.808  0.00  0.00    +0.000 C 
ATOM     13  C   UNL     1       1.097   9.981  19.270  0.00  0.00    +0.000 C 
ATOM     14  O   UNL     1       0.641  11.014  19.749  0.00  0.00    +0.000 OA
ATOM     15  N   UNL     1       1.187   8.823  19.996  0.00  0.00    +0.000 N 
ATOM     16  H   UNL     1       0.823   8.838  20.940  0.00  0.00    +0.000 HD
ENDBRANCH   1  10
BRANCH   1  17
ATOM     17  C   UNL     1       6.011   5.189  17.286  0.00  0.00    +0.000 C 
BRANCH  17  18
ATOM     18  C   UNL     1       7.019   5.769  18.287  0.00  0.00    +0.000 C 
BRANCH  18  19
ATOM     19  C   UNL     1       7.422   7.160  17.843  0.00  0.00    +0.000 C 
ATOM     20  O   UNL     1       6.967   7.665  16.813  0.00  0.00    +0.000 OA
ATOM     21  N   UNL     1       8.322   7.837  18.647  0.00  0.00    +0.000 N 
ATOM     22  H   UNL     1       8.631   7.427  19.516  0.00  0.00    +0.000 HD
BRANCH  21  23
ATOM     23  C   UNL     1       8.735   9.192  18.280  0.00  0.00    +0.000 C 
BRANCH  23  24
ATOM     24  C   UNL     1       9.176  10.053  19.467  0.00  0.00    +0.000 C 
BRANCH  24  25
ATOM     25  C   UNL     1      10.201  11.100  19.083  0.00  0.00    +0.000 A 
ATOM     26  C   UNL     1      11.163  11.526  20.012  0.00  0.00    +0.000 A 
ATOM     27  C   UNL     1      12.099  12.508  19.673  0.00  0.00    +0.000 A 
ATOM     28  C   UNL     1      12.085  13.078  18.402  0.00  0.00    +0.000 A 
ATOM     29  C   UNL     1      11.142  12.662  17.468  0.00  0.00    +0.000 A 
ATOM     30  C   UNL     1      10.203  11.681  17.805  0.00  0.00    +0.000 A 
ENDBRANCH  24  25
ENDBRANCH  23  24
ENDBRANCH  21  23
ENDBRANCH  18  19
ENDBRANCH  17  18
ENDBRANCH   1  17
TORSDOF 7
ENDMDL
MODEL 2
REMARK VINA RESULT:      -8.4      3.590      5.342
REMARK  Name = 
REMARK  8 active torsions:
REMARK  status: ('A' for Active; 'I' for Inactive)
REMARK    1  A    between atoms: C_1  and  C_2
REMARK    2  A    between atoms: C_7  and  S_8
REMARK    3  A    between atoms: S_8  and  C_11
REMARK    4  A    between atoms: C_11  and  C_12
REMARK    5  A    between atoms: C_12  and  C_13
REMARK    6  A    between atoms: N_15  and  C_16
REMARK    7  A    between atoms: C_16  and  C_17
REMARK    8  A    between atoms: C_17  and  C_18
REMARK                            x       y       z     vdW  Elec       q    Type
REMARK                         _______ _______ _______ _____ _____    ______ ____
ROOT
ATOM      1  S   UNL     1       2.752   5.719  19.542  0.00  0.00    +0.000 S 
ATOM      2  O   UNL     1       4.146   5.958  19.210  0.00  0.00    +0.000 OA
ATOM      3  O   UNL     1       2.419   4.903  20.696  0.00  0.00    +0.000 OA
ENDROOT
BRANCH   1  10
ATOM      4  C   UNL     1       2.696   8.323  17.515  0.00  0.00    +0.000 C 
ATOM      5  C   UNL     1       1.998   8.379  18.844  0.00  0.00    +0.000 A 
ATOM      6  C   UNL     1       1.335   9.589  19.155  0.00  0.00    +0.000 A 
ATOM      7  C   UNL     1       0.649   9.747  20.355  0.00  0.00    +0.000 A 
ATOM      8  C   UNL     1       0.647   8.719  21.297  0.00  0.00    +0.000 A 
ATOM      9  C   UNL     1       1.279   7.508  21.008  0.00  0.00    +0.000 A 
ATOM     10  C   UNL     1       1.941   7.319  19.778  0.00  0.00    +0.000 A 
ATOM     11  O   UNL     1      -0.014   8.804  22.495  0.00  0.00    +0.000 OA
ATOM     12  C   UNL     1      -0.372  10.135  22.859  0.00  0.00    +0.000 C 
ATOM     13  C   UNL     1      -0.797  11.081  21.741  0.00  0.00    +0.000 C 
ATOM     14  O   UNL     1      -1.616  11.985  21.878  0.00  0.00    +0.000 OA
ATOM     15  N   UNL     1      -0.104  10.903  20.573  0.00  0.00    +0.000 N 
ATOM     16  H   UNL     1      -0.263  11.574  19.833  0.00  0.00    +0.000 HD
ENDBRANCH   1  10
BRANCH   1  17
ATOM     17  C   UNL     1       1.962   4.998  18.127  0.00  0.00    +0.000 C 
BRANCH  17  18
ATOM     18  C   UNL     1       1.982   3.463  18.126  0.00  0.00    +0.000 C 
BRANCH  18  19
ATOM     19  C   UNL     1       3.314   2.980  17.587  0.00  0.00    +0.000 C 
ATOM     20  O   UNL     1       3.743   1.854  17.845  0.00  0.00    +0.000 OA
ATOM     21  N   UNL     1       4.023   3.863  16.791  0.00  0.00    +0.000 N 
ATOM     22  H   UNL     1       3.621   4.756  16.544  0.00  0.00    +0.000 HD
BRANCH  21  23
ATOM     23  C   UNL     1       5.307   3.448  16.226  0.00  0.00    +0.000 C 
BRANCH  23  24
ATOM     24  C   UNL     1       6.147   4.602  15.673  0.00  0.00    +0.000 C 
BRANCH  24  25
ATOM     25  C   UNL     1       6.818   5.414  16.762  0.00  0.00    +0.000 A 
ATOM     26  C   UNL     1       6.935   6.807  16.639  0.00  0.00    +0.000 A 
ATOM     27  C   UNL     1       7.572   7.562  17.629  0.00  0.00    +0.000 A 
ATOM     28  C   UNL     1       8.100   6.934  18.754  0.00  0.00    +0.000 A 
ATOM     29  C   UNL     1       7.987   5.554  18.894  0.00  0.00    +0.000 A 
ATOM     30  C   UNL     1       7.351   4.797  17.904  0.00  0.00    +0.000 A 
ENDBRANCH  24  25
ENDBRANCH  23  24
ENDBRANCH  21  23
ENDBRANCH  18  19
ENDBRANCH  17  18
ENDBRANCH   1  17
TORSDOF 7
ENDMDL
MODEL 3
REMARK VINA RESULT:      -8.2      3.561      5.173
REMARK  Name = 
REMARK  8 active torsions:
REMARK  status: ('A' for Active; 'I' for Inactive)
REMARK    1  A    between atoms: C_1  and  C_2
REMARK    2  A    between atoms: C_7  and  S_8
REMARK    3  A    between atoms: S_8  and  C_11
REMARK    4  A    between atoms: C_11  and  C_12
REMARK    5  A    between atoms: C_12  and  C_13
REMARK    6  A    between atoms: N_15  and  C_16
REMARK    7  A    between atoms: C_16  and  C_17
REMARK    8  A    between atoms: C_17  and  C_18
REMARK                            x       y       z     vdW  Elec       q    Type
REMARK                         _______ _______ _______ _____ _____    ______ ____
ROOT
ATOM      1  S   UNL     1       2.668   5.222  20.081  0.00  0.00    +0.000 S 
ATOM      2  O   UNL     1       3.991   5.216  19.480  0.00  0.00    +0.000 OA
ATOM      3  O   UNL     1       2.505   4.804  21.461  0.00  0.00    +0.000 OA
ENDROOT
BRANCH   1  10
ATOM      4  C   UNL     1       3.160   7.472  17.716  0.00  0.00    +0.000 C 
ATOM      5  C   UNL     1       2.289   7.790  18.899  0.00  0.00    +0.000 A 
ATOM      6  C   UNL     1       1.713   9.081  18.926  0.00  0.00    +0.000 A 
ATOM      7  C   UNL     1       0.883   9.478  19.970  0.00  0.00    +0.000 A 
ATOM      8  C   UNL     1       0.645   8.614  21.038  0.00  0.00    +0.000 A 
ATOM      9  C   UNL     1       1.189   7.328  21.027  0.00  0.00    +0.000 A 
ATOM     10  C   UNL     1       1.995   6.897  19.955  0.00  0.00    +0.000 A 
ATOM     11  O   UNL     1      -0.166   8.937  22.094  0.00  0.00    +0.000 OA
ATOM     12  C   UNL     1      -0.439  10.332  22.203  0.00  0.00    +0.000 C 
ATOM     13  C   UNL     1      -0.605  11.120  20.908  0.00  0.00    +0.000 C 
ATOM     14  O   UNL     1      -1.340  12.095  20.785  0.00  0.00    +0.000 OA
ATOM     15  N   UNL     1       0.226  10.708  19.899  0.00  0.00    +0.000 N 
ATOM     16  H   UNL     1       0.241  11.264  19.055  0.00  0.00    +0.000 HD
ENDBRANCH   1  10
BRANCH   1  17
ATOM     17  C   UNL     1       1.604   4.214  19.082  0.00  0.00    +0.000 C 
BRANCH  17  18
ATOM     18  C   UNL     1       1.901   4.307  17.579  0.00  0.00    +0.000 C 
BRANCH  18  19
ATOM     19  C   UNL     1       3.148   3.506  17.265  0.00  0.00    +0.000 C 
ATOM     20  O   UNL     1       3.260   2.327  17.607  0.00  0.00    +0.000 OA
ATOM     21  N   UNL     1       4.155   4.161  16.577  0.00  0.00    +0.000 N 
ATOM     22  H   UNL     1       4.013   5.107  16.255  0.00  0.00    +0.000 HD
BRANCH  21  23
ATOM     23  C   UNL     1       5.376   3.436  16.228  0.00  0.00    +0.000 C 
BRANCH  23  24
ATOM     24  C   UNL     1       6.503   4.328  15.702  0.00  0.00    +0.000 C 
BRANCH  24  25
ATOM     25  C   UNL     1       7.053   5.263  16.759  0.00  0.00    +0.000 A 
ATOM     26  C   UNL     1       7.513   4.757  17.984  0.00  0.00    +0.000 A 
ATOM     27  C   UNL     1       8.002   5.615  18.975  0.00  0.00    +0.000 A 
ATOM     28  C   UNL     1       8.036   6.989  18.753  0.00  0.00    +0.000 A 
ATOM     29  C   UNL     1       7.590   7.507  17.541  0.00  0.00    +0.000 A 
ATOM     30  C   UNL     1       7.099   6.650  16.549  0.00  0.00    +0.000 A 
ENDBRANCH  24  25
ENDBRANCH  23  24
ENDBRANCH  21  23
ENDBRANCH  18  19
ENDBRANCH  17  18
ENDBRANCH   1  17
TORSDOF 7
ENDMDL
MODEL 4
REMARK VINA RESULT:      -8.0      2.289      3.851
REMARK  Name = 
REMARK  8 active torsions:
REMARK  status: ('A' for Active; 'I' for Inactive)
REMARK    1  A    between atoms: C_1  and  C_2
REMARK    2  A    between atoms: C_7  and  S_8
REMARK    3  A    between atoms: S_8  and  C_11
REMARK    4  A    between atoms: C_11  and  C_12
REMARK    5  A    between atoms: C_12  and  C_13
REMARK    6  A    between atoms: N_15  and  C_16
REMARK    7  A    between atoms: C_16  and  C_17
REMARK    8  A    between atoms: C_17  and  C_18
REMARK                            x       y       z     vdW  Elec       q    Type
REMARK                         _______ _______ _______ _____ _____    ______ ____
ROOT
ATOM      1  S   UNL     1       5.265   5.590  16.115  0.00  0.00    +0.000 S 
ATOM      2  O   UNL     1       5.022   4.520  15.162  0.00  0.00    +0.000 OA
ATOM      3  O   UNL     1       5.056   6.969  15.713  0.00  0.00    +0.000 OA
ENDROOT
BRANCH   1  10
ATOM      4  C   UNL     1       3.228   7.689  17.645  0.00  0.00    +0.000 C 
ATOM      5  C   UNL     1       3.401   6.286  18.157  0.00  0.00    +0.000 A 
ATOM      6  C   UNL     1       2.652   5.940  19.306  0.00  0.00    +0.000 A 
ATOM      7  C   UNL     1       2.729   4.666  19.859  0.00  0.00    +0.000 A 
ATOM      8  C   UNL     1       3.592   3.718  19.310  0.00  0.00    +0.000 A 
ATOM      9  C   UNL     1       4.330   4.029  18.166  0.00  0.00    +0.000 A 
ATOM     10  C   UNL     1       4.229   5.302  17.569  0.00  0.00    +0.000 A 
ATOM     11  O   UNL     1       3.712   2.444  19.800  0.00  0.00    +0.000 OA
ATOM     12  C   UNL     1       3.184   2.282  21.113  0.00  0.00    +0.000 C 
ATOM     13  C   UNL     1       1.925   3.067  21.468  0.00  0.00    +0.000 C 
ATOM     14  O   UNL     1       1.066   2.673  22.251  0.00  0.00    +0.000 OA
ATOM     15  N   UNL     1       1.878   4.317  20.911  0.00  0.00    +0.000 N 
ATOM     16  H   UNL     1       1.124   4.926  21.200  0.00  0.00    +0.000 HD
ENDBRANCH   1  10
BRANCH   1  17
ATOM     17  C   UNL     1       6.935   5.444  16.694  0.00  0.00    +0.000 C 
BRANCH  17  18
ATOM     18  C   UNL     1       7.115   5.852  18.163  0.00  0.00    +0.000 C 
BRANCH  18  19
ATOM     19  C   UNL     1       7.912   7.139  18.231  0.00  0.00    +0.000 C 
ATOM     20  O   UNL     1       8.769   7.322  19.098  0.00  0.00    +0.000 OA
ATOM     21  N   UNL     1       7.632   8.098  17.273  0.00  0.00    +0.000 N 
ATOM     22  H   UNL     1       6.970   7.899  16.537  0.00  0.00    +0.000 HD
BRANCH  21  23
ATOM     23  C   UNL     1       8.381   9.354  17.274  0.00  0.00    +0.000 C 
BRANCH  23  24
ATOM     24  C   UNL     1       8.286  10.137  18.587  0.00  0.00    +0.000 C 
BRANCH  24  25
ATOM     25  C   UNL     1       9.552  10.906  18.904  0.00  0.00    +0.000 A 
ATOM     26  C   UNL     1      10.419  11.302  17.874  0.00  0.00    +0.000 A 
ATOM     27  C   UNL     1      11.601  11.993  18.160  0.00  0.00    +0.000 A 
ATOM     28  C   UNL     1      11.932  12.295  19.478  0.00  0.00    +0.000 A 
ATOM     29  C   UNL     1      11.080  11.915  20.511  0.00  0.00    +0.000 A 
ATOM     30  C   UNL     1       9.897  11.222  20.227  0.00  0.00    +0.000 A 
ENDBRANCH  24  25
ENDBRANCH  23  24
ENDBRANCH  21  23
ENDBRANCH  18  19
ENDBRANCH  17  18
ENDBRANCH   1  17
TORSDOF 7
ENDMDL
MODEL 5
REMARK VINA RESULT:      -8.0      1.483      1.875
REMARK  Name = 
REMARK  8 active torsions:
REMARK  status: ('A' for Active; 'I' for Inactive)
REMARK    1  A    between atoms: C_1  and  C_2
REMARK    2  A    between atoms: C_7  and  S_8
REMARK    3  A    between atoms: S_8  and  C_11
REMARK    4  A    between atoms: C_11  and  C_12
REMARK    5  A    between atoms: C_12  and  C_13
REMARK    6  A    between atoms: N_15  and  C_16
REMARK    7  A    between atoms: C_16  and  C_17
REMARK    8  A    between atoms: C_17  and  C_18
REMARK                            x       y       z     vdW  Elec       q    Type
REMARK                         _______ _______ _______ _____ _____    ______ ____
ROOT
ATOM      1  S   UNL     1       3.627   5.688  17.849  0.00  0.00    +0.000 S 
ATOM      2  O   UNL     1       2.776   4.555  17.526  0.00  0.00    +0.000 OA
ATOM      3  O   UNL     1       4.240   6.453  16.778  0.00  0.00    +0.000 OA
ENDROOT
BRANCH   1  10
ATOM      4  C   UNL     1       2.227   5.212  20.800  0.00  0.00    +0.000 C 
ATOM      5  C   UNL     1       2.094   6.535  20.099  0.00  0.00    +0.000 A 
ATOM      6  C   UNL     1       1.349   7.531  20.772  0.00  0.00    +0.000 A 
ATOM      7  C   UNL     1       1.170   8.795  20.219  0.00  0.00    +0.000 A 
ATOM      8  C   UNL     1       1.688   9.083  18.957  0.00  0.00    +0.000 A 
ATOM      9  C   UNL     1       2.441   8.122  18.278  0.00  0.00    +0.000 A 
ATOM     10  C   UNL     1       2.668   6.853  18.846  0.00  0.00    +0.000 A 
ATOM     11  O   UNL     1       1.555  10.307  18.356  0.00  0.00    +0.000 OA
ATOM     12  C   UNL     1       0.545  11.126  18.939  0.00  0.00    +0.000 C 
ATOM     13  C   UNL     1       0.363  11.050  20.452  0.00  0.00    +0.000 C 
ATOM     14  O   UNL     1      -0.001  11.991  21.149  0.00  0.00    +0.000 OA
ATOM     15  N   UNL     1       0.544   9.794  20.968  0.00  0.00    +0.000 N 
ATOM     16  H   UNL     1       0.327   9.659  21.946  0.00  0.00    +0.000 HD
ENDBRANCH   1  10
BRANCH   1  17
ATOM     17  C   UNL     1       4.925   5.117  18.915  0.00  0.00    +0.000 C 
BRANCH  17  18
ATOM     18  C   UNL     1       6.276   4.950  18.205  0.00  0.00    +0.000 C 
BRANCH  18  19
ATOM     19  C   UNL     1       7.268   5.943  18.777  0.00  0.00    +0.000 C 
ATOM     20  O   UNL     1       7.863   5.723  19.834  0.00  0.00    +0.000 OA
ATOM     21  N   UNL     1       7.473   7.107  18.056  0.00  0.00    +0.000 N 
ATOM     22  H   UNL     1       7.020   7.235  17.163  0.00  0.00    +0.000 HD
BRANCH  21  23
ATOM     23  C   UNL     1       8.432   8.096  18.547  0.00  0.00    +0.000 C 
BRANCH  23  24
ATOM     24  C   UNL     1       8.361   9.446  17.828  0.00  0.00    +0.000 C 
BRANCH  24  25
ATOM     25  C   UNL     1       9.141  10.532  18.541  0.00  0.00    +0.000 A 
ATOM     26  C   UNL     1       9.425  10.419  19.910  0.00  0.00    +0.000 A 
ATOM     27  C   UNL     1      10.125  11.427  20.581  0.00  0.00    +0.000 A 
ATOM     28  C   UNL     1      10.549  12.561  19.891  0.00  0.00    +0.000 A 
ATOM     29  C   UNL     1      10.281  12.685  18.532  0.00  0.00    +0.000 A 
ATOM     30  C   UNL     1       9.579  11.678  17.859  0.00  0.00    +0.000 A 
ENDBRANCH  24  25
ENDBRANCH  23  24
ENDBRANCH  21  23
ENDBRANCH  18  19
ENDBRANCH  17  18
ENDBRANCH   1  17
TORSDOF 7
ENDMDL
MODEL 6
REMARK VINA RESULT:      -7.9      4.518      7.709
REMARK  Name = 
REMARK  8 active torsions:
REMARK  status: ('A' for Active; 'I' for Inactive)
REMARK    1  A    between atoms: C_1  and  C_2
REMARK    2  A    between atoms: C_7  and  S_8
REMARK    3  A    between atoms: S_8  and  C_11
REMARK    4  A    between atoms: C_11  and  C_12
REMARK    5  A    between atoms: C_12  and  C_13
REMARK    6  A    between atoms: N_15  and  C_16
REMARK    7  A    between atoms: C_16  and  C_17
REMARK    8  A    between atoms: C_17  and  C_18
REMARK                            x       y       z     vdW  Elec       q    Type
REMARK                         _______ _______ _______ _____ _____    ______ ____
ROOT
ATOM      1  S   UNL     1       4.012   2.813  18.787  0.00  0.00    +0.000 S 
ATOM      2  O   UNL     1       3.420   1.736  18.012  0.00  0.00    +0.000 OA
ATOM      3  O   UNL     1       4.751   2.503  19.997  0.00  0.00    +0.000 OA
ENDROOT
BRANCH   1  10
ATOM      4  C   UNL     1       6.002   5.332  19.556  0.00  0.00    +0.000 C 
ATOM      5  C   UNL     1       5.929   4.823  18.144  0.00  0.00    +0.000 A 
ATOM      6  C   UNL     1       6.749   5.479  17.197  0.00  0.00    +0.000 A 
ATOM      7  C   UNL     1       6.768   5.084  15.863  0.00  0.00    +0.000 A 
ATOM      8  C   UNL     1       5.932   4.056  15.429  0.00  0.00    +0.000 A 
ATOM      9  C   UNL     1       5.126   3.380  16.347  0.00  0.00    +0.000 A 
ATOM     10  C   UNL     1       5.130   3.741  17.710  0.00  0.00    +0.000 A 
ATOM     11  O   UNL     1       5.905   3.612  14.133  0.00  0.00    +0.000 OA
ATOM     12  C   UNL     1       6.503   4.514  13.205  0.00  0.00    +0.000 C 
ATOM     13  C   UNL     1       7.732   5.289  13.668  0.00  0.00    +0.000 C 
ATOM     14  O   UNL     1       8.647   5.634  12.927  0.00  0.00    +0.000 OA
ATOM     15  N   UNL     1       7.685   5.665  14.984  0.00  0.00    +0.000 N 
ATOM     16  H   UNL     1       8.418   6.277  15.318  0.00  0.00    +0.000 HD
ENDBRANCH   1  10
BRANCH   1  17
ATOM     17  C   UNL     1       2.724   3.954  19.220  0.00  0.00    +0.000 C 
BRANCH  17  18
ATOM     18  C   UNL     1       2.361   4.929  18.091  0.00  0.00    +0.000 C 
BRANCH  18  19
ATOM     19  C   UNL     1       2.478   6.351  18.601  0.00  0.00    +0.000 C 
ATOM     20  O   UNL     1       2.793   6.593  19.768  0.00  0.00    +0.000 OA
ATOM     21  N   UNL     1       2.217   7.364  17.694  0.00  0.00    +0.000 N 
ATOM     22  H   UNL     1       2.023   7.140  16.729  0.00  0.00    +0.000 HD
BRANCH  21  23
ATOM     23  C   UNL     1       2.333   8.758  18.122  0.00  0.00    +0.000 C 
BRANCH  23  24
ATOM     24  C   UNL     1       1.007   9.523  18.119  0.00  0.00    +0.000 C 
BRANCH  24  25
ATOM     25  C   UNL     1       0.555   9.921  19.509  0.00  0.00    +0.000 A 
ATOM     26  C   UNL     1       0.024  11.198  19.745  0.00  0.00    +0.000 A 
ATOM     27  C   UNL     1      -0.375  11.582  21.029  0.00  0.00    +0.000 A 
ATOM     28  C   UNL     1      -0.246  10.694  22.094  0.00  0.00    +0.000 A 
ATOM     29  C   UNL     1       0.273   9.421  21.876  0.00  0.00    +0.000 A 
ATOM     30  C   UNL     1       0.674   9.036  20.592  0.00  0.00    +0.000 A 
ENDBRANCH  24  25
ENDBRANCH  23  24
ENDBRANCH  21  23
ENDBRANCH  18  19
ENDBRANCH  17  18
ENDBRANCH   1  17
TORSDOF 7
ENDMDL
MODEL 7
REMARK VINA RESULT:      -7.9      3.883      6.697
REMARK  Name = 
REMARK  8 active torsions:
REMARK  status: ('A' for Active; 'I' for Inactive)
REMARK    1  A    between atoms: C_1  and  C_2
REMARK    2  A    between atoms: C_7  and  S_8
REMARK    3  A    between atoms: S_8  and  C_11
REMARK    4  A    between atoms: C_11  and  C_12
REMARK    5  A    between atoms: C_12  and  C_13
REMARK    6  A    between atoms: N_15  and  C_16
REMARK    7  A    between atoms: C_16  and  C_17
REMARK    8  A    between atoms: C_17  and  C_18
REMARK                            x       y       z     vdW  Elec       q    Type
REMARK                         _______ _______ _______ _____ _____    ______ ____
ROOT
ATOM      1  S   UNL     1       7.535   4.981  18.165  0.00  0.00    +0.000 S 
ATOM      2  O   UNL     1       7.661   5.555  19.494  0.00  0.00    +0.000 OA
ATOM      3  O   UNL     1       8.441   3.925  17.751  0.00  0.00    +0.000 OA
ENDROOT
BRANCH   1  10
ATOM      4  C   UNL     1       6.045   3.846  15.447  0.00  0.00    +0.000 C 
ATOM      5  C   UNL     1       5.309   3.889  16.757  0.00  0.00    +0.000 A 
ATOM      6  C   UNL     1       3.974   3.422  16.742  0.00  0.00    +0.000 A 
ATOM      7  C   UNL     1       3.203   3.409  17.901  0.00  0.00    +0.000 A 
ATOM      8  C   UNL     1       3.728   3.905  19.093  0.00  0.00    +0.000 A 
ATOM      9  C   UNL     1       5.049   4.356  19.138  0.00  0.00    +0.000 A 
ATOM     10  C   UNL     1       5.855   4.335  17.982  0.00  0.00    +0.000 A 
ATOM     11  O   UNL     1       3.028   3.916  20.271  0.00  0.00    +0.000 OA
ATOM     12  C   UNL     1       1.624   3.736  20.105  0.00  0.00    +0.000 C 
ATOM     13  C   UNL     1       1.160   2.783  19.007  0.00  0.00    +0.000 C 
ATOM     14  O   UNL     1       0.138   2.107  19.070  0.00  0.00    +0.000 OA
ATOM     15  N   UNL     1       1.937   2.820  17.880  0.00  0.00    +0.000 N 
ATOM     16  H   UNL     1       1.615   2.295  17.078  0.00  0.00    +0.000 HD
ENDBRANCH   1  10
BRANCH   1  17
ATOM     17  C   UNL     1       7.662   6.296  16.981  0.00  0.00    +0.000 C 
BRANCH  17  18
ATOM     18  C   UNL     1       6.899   7.565  17.387  0.00  0.00    +0.000 C 
BRANCH  18  19
ATOM     19  C   UNL     1       5.448   7.430  16.973  0.00  0.00    +0.000 C 
ATOM     20  O   UNL     1       5.132   7.137  15.818  0.00  0.00    +0.000 OA
ATOM     21  N   UNL     1       4.496   7.651  17.953  0.00  0.00    +0.000 N 
ATOM     22  H   UNL     1       4.782   7.828  18.904  0.00  0.00    +0.000 HD
BRANCH  21  23
ATOM     23  C   UNL     1       3.078   7.517  17.619  0.00  0.00    +0.000 C 
BRANCH  23  24
ATOM     24  C   UNL     1       2.187   7.155  18.811  0.00  0.00    +0.000 C 
BRANCH  24  25
ATOM     25  C   UNL     1       1.558   8.370  19.462  0.00  0.00    +0.000 A 
ATOM     26  C   UNL     1       1.263   9.511  18.700  0.00  0.00    +0.000 A 
ATOM     27  C   UNL     1       0.703  10.645  19.297  0.00  0.00    +0.000 A 
ATOM     28  C   UNL     1       0.431  10.653  20.663  0.00  0.00    +0.000 A 
ATOM     29  C   UNL     1       0.711   9.527  21.432  0.00  0.00    +0.000 A 
ATOM     30  C   UNL     1       1.273   8.392  20.837  0.00  0.00    +0.000 A 
ENDBRANCH  24  25
ENDBRANCH  23  24
ENDBRANCH  21  23
ENDBRANCH  18  19
ENDBRANCH  17  18
ENDBRANCH   1  17
TORSDOF 7
ENDMDL
MODEL 8
REMARK VINA RESULT:      -7.9      2.582      4.147
REMARK  Name = 
REMARK  8 active torsions:
REMARK  status: ('A' for Active; 'I' for Inactive)
REMARK    1  A    between atoms: C_1  and  C_2
REMARK    2  A    between atoms: C_7  and  S_8
REMARK    3  A    between atoms: S_8  and  C_11
REMARK    4  A    between atoms: C_11  and  C_12
REMARK    5  A    between atoms: C_12  and  C_13
REMARK    6  A    between atoms: N_15  and  C_16
REMARK    7  A    between atoms: C_16  and  C_17
REMARK    8  A    between atoms: C_17  and  C_18
REMARK                            x       y       z     vdW  Elec       q    Type
REMARK                         _______ _______ _______ _____ _____    ______ ____
ROOT
ATOM      1  S   UNL     1       5.795   5.514  16.248  0.00  0.00    +0.000 S 
ATOM      2  O   UNL     1       6.260   4.233  15.743  0.00  0.00    +0.000 OA
ATOM      3  O   UNL     1       5.126   6.438  15.351  0.00  0.00    +0.000 OA
ENDROOT
BRANCH   1  10
ATOM      4  C   UNL     1       3.512   7.522  17.534  0.00  0.00    +0.000 C 
ATOM      5  C   UNL     1       3.731   6.151  18.110  0.00  0.00    +0.000 A 
ATOM      6  C   UNL     1       2.914   5.792  19.207  0.00  0.00    +0.000 A 
ATOM      7  C   UNL     1       3.026   4.544  19.811  0.00  0.00    +0.000 A 
ATOM      8  C   UNL     1       3.989   3.639  19.368  0.00  0.00    +0.000 A 
ATOM      9  C   UNL     1       4.796   3.961  18.275  0.00  0.00    +0.000 A 
ATOM     10  C   UNL     1       4.664   5.205  17.625  0.00  0.00    +0.000 A 
ATOM     11  O   UNL     1       4.149   2.391  19.912  0.00  0.00    +0.000 OA
ATOM     12  C   UNL     1       3.526   2.236  21.184  0.00  0.00    +0.000 C 
ATOM     13  C   UNL     1       2.196   2.948  21.410  0.00  0.00    +0.000 C 
ATOM     14  O   UNL     1       1.303   2.523  22.136  0.00  0.00    +0.000 OA
ATOM     15  N   UNL     1       2.116   4.174  20.804  0.00  0.00    +0.000 N 
ATOM     16  H   UNL     1       1.304   4.741  21.010  0.00  0.00    +0.000 HD
ENDBRANCH   1  10
BRANCH   1  17
ATOM     17  C   UNL     1       7.180   6.362  16.961  0.00  0.00    +0.000 C 
BRANCH  17  18
ATOM     18  C   UNL     1       6.936   7.862  17.184  0.00  0.00    +0.000 C 
BRANCH  18  19
ATOM     19  C   UNL     1       8.041   8.425  18.053  0.00  0.00    +0.000 C 
ATOM     20  O   UNL     1       8.680   7.709  18.828  0.00  0.00    +0.000 OA
ATOM     21  N   UNL     1       8.300   9.780  17.936  0.00  0.00    +0.000 N 
ATOM     22  H   UNL     1       7.805  10.331  17.250  0.00  0.00    +0.000 HD
BRANCH  21  23
ATOM     23  C   UNL     1       9.368  10.379  18.736  0.00  0.00    +0.000 C 
BRANCH  23  24
ATOM     24  C   UNL     1      10.262  11.348  17.958  0.00  0.00    +0.000 C 
BRANCH  24  25
ATOM     25  C   UNL     1       9.877  12.798  18.169  0.00  0.00    +0.000 A 
ATOM     26  C   UNL     1       8.566  13.229  17.914  0.00  0.00    +0.000 A 
ATOM     27  C   UNL     1       8.207  14.569  18.086  0.00  0.00    +0.000 A 
ATOM     28  C   UNL     1       9.154  15.497  18.512  0.00  0.00    +0.000 A 
ATOM     29  C   UNL     1      10.457  15.085  18.775  0.00  0.00    +0.000 A 
ATOM     30  C   UNL     1      10.819  13.744  18.603  0.00  0.00    +0.000 A 
ENDBRANCH  24  25
ENDBRANCH  23  24
ENDBRANCH  21  23
ENDBRANCH  18  19
ENDBRANCH  17  18
ENDBRANCH   1  17
TORSDOF 7
ENDMDL
MODEL 9
REMARK VINA RESULT:      -7.8      0.830      1.222
REMARK  Name = 
REMARK  8 active torsions:
REMARK  status: ('A' for Active; 'I' for Inactive)
REMARK    1  A    between atoms: C_1  and  C_2
REMARK    2  A    between atoms: C_7  and  S_8
REMARK    3  A    between atoms: S_8  and  C_11
REMARK    4  A    between atoms: C_11  and  C_12
REMARK    5  A    between atoms: C_12  and  C_13
REMARK    6  A    between atoms: N_15  and  C_16
REMARK    7  A    between atoms: C_16  and  C_17
REMARK    8  A    between atoms: C_17  and  C_18
REMARK                            x       y       z     vdW  Elec       q    Type
REMARK                         _______ _______ _______ _____ _____    ______ ____
ROOT
ATOM      1  S   UNL     1       3.961   4.410  18.079  0.00  0.00    +0.000 S 
ATOM      2  O   UNL     1       4.815   3.803  19.085  0.00  0.00    +0.000 OA
ATOM      3  O   UNL     1       2.995   3.592  17.369  0.00  0.00    +0.000 OA
ENDROOT
BRANCH   1  10
ATOM      4  C   UNL     1       2.339   4.412  20.954  0.00  0.00    +0.000 C 
ATOM      5  C   UNL     1       2.360   5.643  20.091  0.00  0.00    +0.000 A 
ATOM      6  C   UNL     1       1.658   6.767  20.584  0.00  0.00    +0.000 A 
ATOM      7  C   UNL     1       1.620   7.962  19.871  0.00  0.00    +0.000 A 
ATOM      8  C   UNL     1       2.240   8.051  18.626  0.00  0.00    +0.000 A 
ATOM      9  C   UNL     1       2.954   6.960  18.125  0.00  0.00    +0.000 A 
ATOM     10  C   UNL     1       3.038   5.758  18.856  0.00  0.00    +0.000 A 
ATOM     11  O   UNL     1       2.247   9.196  17.875  0.00  0.00    +0.000 OA
ATOM     12  C   UNL     1       1.273  10.154  18.280  0.00  0.00    +0.000 C 
ATOM     13  C   UNL     1       0.988  10.282  19.772  0.00  0.00    +0.000 C 
ATOM     14  O   UNL     1       0.658  11.327  20.323  0.00  0.00    +0.000 OA
ATOM     15  N   UNL     1       1.031   9.090  20.447  0.00  0.00    +0.000 N 
ATOM     16  H   UNL     1       0.741   9.095  21.416  0.00  0.00    +0.000 HD
ENDBRANCH   1  10
BRANCH   1  17
ATOM     17  C   UNL     1       5.000   5.190  16.871  0.00  0.00    +0.000 C 
BRANCH  17  18
ATOM     18  C   UNL     1       6.434   5.439  17.360  0.00  0.00    +0.000 C 
BRANCH  18  19
ATOM     19  C   UNL     1       6.708   6.929  17.368  0.00  0.00    +0.000 C 
ATOM     20  O   UNL     1       5.862   7.742  16.988  0.00  0.00    +0.000 OA
ATOM     21  N   UNL     1       7.951   7.333  17.823  0.00  0.00    +0.000 N 
ATOM     22  H   UNL     1       8.601   6.652  18.187  0.00  0.00    +0.000 HD
BRANCH  21  23
ATOM     23  C   UNL     1       8.268   8.760  17.873  0.00  0.00    +0.000 C 
BRANCH  23  24
ATOM     24  C   UNL     1       8.855   9.223  19.209  0.00  0.00    +0.000 C 
BRANCH  24  25
ATOM     25  C   UNL     1       9.518  10.582  19.119  0.00  0.00    +0.000 A 
ATOM     26  C   UNL     1       9.919  11.095  17.876  0.00  0.00    +0.000 A 
ATOM     27  C   UNL     1      10.552  12.339  17.785  0.00  0.00    +0.000 A 
ATOM     28  C   UNL     1      10.792  13.086  18.936  0.00  0.00    +0.000 A 
ATOM     29  C   UNL     1      10.395  12.595  20.176  0.00  0.00    +0.000 A 
ATOM     30  C   UNL     1       9.763  11.349  20.268  0.00  0.00    +0.000 A 
ENDBRANCH  24  25
ENDBRANCH  23  24
ENDBRANCH  21  23
ENDBRANCH  18  19
ENDBRANCH  17  18
ENDBRANCH   1  17
TORSDOF 7
ENDMDL
