MODEL 1
REMARK VINA RESULT:      -8.4      0.000      0.000
REMARK  Name = 
REMARK  5 active torsions:
REMARK  status: ('A' for Active; 'I' for Inactive)
REMARK    1  A    between atoms: C_1  and  C_2
REMARK    2  A    between atoms: C_2  and  C_3
REMARK    3  A    between atoms: C_17  and  C_19
REMARK    4  A    between atoms: C_21  and  C_22
REMARK    5  A    between atoms: C_25  and  O_26
REMARK                            x       y       z     vdW  Elec       q    Type
REMARK                         _______ _______ _______ _____ _____    ______ ____
ROOT
ATOM      1  C   UNL     1       2.130  12.178  18.734  0.00  0.00    +0.000 C 
ATOM      2  O   UNL     1       2.585  11.859  17.637  0.00  0.00    +0.000 OA
ATOM      3  N   UNL     1       1.263  11.387  19.483  0.00  0.00    +0.000 N 
ATOM      4  C   UNL     1       0.548  11.966  20.667  0.00  0.00    +0.000 C 
ATOM      5  C   UNL     1      -0.932  12.325  20.381  0.00  0.00    +0.000 C 
ATOM      6  C   UNL     1      -1.478  11.494  19.279  0.00  0.00    +0.000 A 
ATOM      7  N   UNL     1      -2.767  11.439  18.838  0.00  0.00    +0.000 N 
ATOM      8  C   UNL     1      -2.802  10.498  17.842  0.00  0.00    +0.000 A 
ATOM      9  N   UNL     1      -1.626   9.938  17.649  0.00  0.00    +0.000 NA
ATOM     10  C   UNL     1      -0.787  10.547  18.546  0.00  0.00    +0.000 A 
ATOM     11  C   UNL     1       0.617  10.099  18.936  0.00  0.00    +0.000 C 
ATOM     12  C   UNL     1       0.403   9.123  20.121  0.00  0.00    +0.000 C 
ATOM     13  C   UNL     1       1.770   8.706  20.591  0.00  0.00    +0.000 C 
ATOM     14  N   UNL     1       2.208   7.703  19.654  0.00  0.00    +0.000 N 
ATOM     15  C   UNL     1       1.815   6.411  20.005  0.00  0.00    +0.000 C 
ATOM     16  O   UNL     1       1.058   6.220  20.966  0.00  0.00    +0.000 OA
ATOM     17  C   UNL     1       2.427   8.216  18.297  0.00  0.00    +0.000 C 
ATOM     18  C   UNL     1       1.355   9.257  17.825  0.00  0.00    +0.000 C 
ATOM     19  H   UNL     1      -3.559  11.946  19.204  0.00  0.00    +0.000 HD
ENDROOT
BRANCH  15  20
ATOM     20  C   UNL     1       2.312   5.181  19.365  0.00  0.00    +0.000 A 
ATOM     21  C   UNL     1       3.416   5.368  18.509  0.00  0.00    +0.000 A 
ATOM     22  C   UNL     1       3.728   4.436  17.518  0.00  0.00    +0.000 A 
ATOM     23  C   UNL     1       4.835   4.729  16.549  0.00  0.00    +0.000 C 
ATOM     24  C   UNL     1       2.968   3.268  17.436  0.00  0.00    +0.000 A 
ATOM     25  C   UNL     1       1.904   3.046  18.323  0.00  0.00    +0.000 A 
ATOM     26  C   UNL     1       1.568   4.006  19.282  0.00  0.00    +0.000 A 
BRANCH  26  27
ATOM     27  O   UNL     1       0.475   3.806  20.074  0.00  0.00    +0.000 OA
ATOM     28  H   UNL     1       0.690   4.058  20.986  0.00  0.00    +0.000 HD
ENDBRANCH  26  27
ENDBRANCH  15  20
BRANCH   1  30
ATOM     29  C   UNL     1       2.038  14.747  18.694  0.00  0.00    +0.000 C 
ATOM     30  C   UNL     1       2.557  13.500  19.385  0.00  0.00    +0.000 C 
ENDBRANCH   1  30
TORSDOF 3
ENDMDL
MODEL 2
REMARK VINA RESULT:      -8.3      0.947      1.053
REMARK  Name = 
REMARK  5 active torsions:
REMARK  status: ('A' for Active; 'I' for Inactive)
REMARK    1  A    between atoms: C_1  and  C_2
REMARK    2  A    between atoms: C_2  and  C_3
REMARK    3  A    between atoms: C_17  and  C_19
REMARK    4  A    between atoms: C_21  and  C_22
REMARK    5  A    between atoms: C_25  and  O_26
REMARK                            x       y       z     vdW  Elec       q    Type
REMARK                         _______ _______ _______ _____ _____    ______ ____
ROOT
ATOM      1  C   UNL     1       1.950  12.120  18.944  0.00  0.00    +0.000 C 
ATOM      2  O   UNL     1       2.562  11.979  17.887  0.00  0.00    +0.000 OA
ATOM      3  N   UNL     1       1.109  11.157  19.497  0.00  0.00    +0.000 N 
ATOM      4  C   UNL     1       0.197  11.516  20.632  0.00  0.00    +0.000 C 
ATOM      5  C   UNL     1      -1.274  11.737  20.200  0.00  0.00    +0.000 C 
ATOM      6  C   UNL     1      -1.583  10.981  18.960  0.00  0.00    +0.000 A 
ATOM      7  N   UNL     1      -2.797  10.833  18.357  0.00  0.00    +0.000 N 
ATOM      8  C   UNL     1      -2.602  10.013  17.277  0.00  0.00    +0.000 A 
ATOM      9  N   UNL     1      -1.352   9.612  17.179  0.00  0.00    +0.000 NA
ATOM     10  C   UNL     1      -0.702  10.206  18.231  0.00  0.00    +0.000 A 
ATOM     11  C   UNL     1       0.693   9.876  18.747  0.00  0.00    +0.000 C 
ATOM     12  C   UNL     1       0.470   8.754  19.794  0.00  0.00    +0.000 C 
ATOM     13  C   UNL     1       1.816   8.442  20.388  0.00  0.00    +0.000 C 
ATOM     14  N   UNL     1       2.478   7.606  19.419  0.00  0.00    +0.000 N 
ATOM     15  C   UNL     1       2.212   6.247  19.589  0.00  0.00    +0.000 C 
ATOM     16  O   UNL     1       1.380   5.865  20.423  0.00  0.00    +0.000 OA
ATOM     17  C   UNL     1       2.784   8.290  18.158  0.00  0.00    +0.000 C 
ATOM     18  C   UNL     1       1.651   9.253  17.660  0.00  0.00    +0.000 C 
ATOM     19  H   UNL     1      -3.683  11.204  18.669  0.00  0.00    +0.000 HD
ENDROOT
BRANCH  15  20
ATOM     20  C   UNL     1       2.926   5.161  18.898  0.00  0.00    +0.000 A 
ATOM     21  C   UNL     1       4.329   5.203  19.026  0.00  0.00    +0.000 A 
ATOM     22  C   UNL     1       5.159   4.547  18.117  0.00  0.00    +0.000 A 
ATOM     23  C   UNL     1       6.646   4.718  18.214  0.00  0.00    +0.000 C 
ATOM     24  C   UNL     1       4.571   3.776  17.112  0.00  0.00    +0.000 A 
ATOM     25  C   UNL     1       3.175   3.679  17.012  0.00  0.00    +0.000 A 
ATOM     26  C   UNL     1       2.350   4.378  17.899  0.00  0.00    +0.000 A 
BRANCH  26  27
ATOM     27  O   UNL     1       0.997   4.338  17.727  0.00  0.00    +0.000 OA
ATOM     28  H   UNL     1       0.776   4.678  16.846  0.00  0.00    +0.000 HD
ENDBRANCH  26  27
ENDBRANCH  15  20
BRANCH   1  30
ATOM     29  C   UNL     1       1.846  14.687  19.023  0.00  0.00    +0.000 C 
ATOM     30  C   UNL     1       2.133  13.399  19.772  0.00  0.00    +0.000 C 
ENDBRANCH   1  30
TORSDOF 3
ENDMDL
MODEL 3
REMARK VINA RESULT:      -8.1      0.955      1.684
REMARK  Name = 
REMARK  5 active torsions:
REMARK  status: ('A' for Active; 'I' for Inactive)
REMARK    1  A    between atoms: C_1  and  C_2
REMARK    2  A    between atoms: C_2  and  C_3
REMARK    3  A    between atoms: C_17  and  C_19
REMARK    4  A    between atoms: C_21  and  C_22
REMARK    5  A    between atoms: C_25  and  O_26
REMARK                            x       y       z     vdW  Elec       q    Type
REMARK                         _______ _______ _______ _____ _____    ______ ____
ROOT
ATOM      1  C   UNL     1       2.065  12.252  18.830  0.00  0.00    +0.000 C 
ATOM      2  O   UNL     1       2.556  11.949  17.743  0.00  0.00    +0.000 OA
ATOM      3  N   UNL     1       1.198  11.437  19.553  0.00  0.00    +0.000 N 
ATOM      4  C   UNL     1       0.439  11.994  20.720  0.00  0.00    +0.000 C 
ATOM      5  C   UNL     1      -1.041  12.320  20.398  0.00  0.00    +0.000 C 
ATOM      6  C   UNL     1      -1.538  11.482  19.278  0.00  0.00    +0.000 A 
ATOM      7  N   UNL     1      -2.814  11.399  18.803  0.00  0.00    +0.000 N 
ATOM      8  C   UNL     1      -2.801  10.463  17.803  0.00  0.00    +0.000 A 
ATOM      9  N   UNL     1      -1.609   9.931  17.638  0.00  0.00    +0.000 NA
ATOM     10  C   UNL     1      -0.807  10.555  18.559  0.00  0.00    +0.000 A 
ATOM     11  C   UNL     1       0.596  10.138  18.983  0.00  0.00    +0.000 C 
ATOM     12  C   UNL     1       0.375   9.151  20.158  0.00  0.00    +0.000 C 
ATOM     13  C   UNL     1       1.739   8.764  20.661  0.00  0.00    +0.000 C 
ATOM     14  N   UNL     1       2.224   7.776  19.731  0.00  0.00    +0.000 N 
ATOM     15  C   UNL     1       1.853   6.473  20.066  0.00  0.00    +0.000 C 
ATOM     16  O   UNL     1       1.075   6.260  21.007  0.00  0.00    +0.000 OA
ATOM     17  C   UNL     1       2.466   8.300  18.383  0.00  0.00    +0.000 C 
ATOM     18  C   UNL     1       1.382   9.319  17.888  0.00  0.00    +0.000 C 
ATOM     19  H   UNL     1      -3.627  11.886  19.151  0.00  0.00    +0.000 HD
ENDROOT
BRANCH  15  20
ATOM     20  C   UNL     1       2.394   5.258  19.434  0.00  0.00    +0.000 A 
ATOM     21  C   UNL     1       1.428   4.286  19.104  0.00  0.00    +0.000 A 
ATOM     22  C   UNL     1       1.782   2.950  18.914  0.00  0.00    +0.000 A 
ATOM     23  C   UNL     1       0.711   1.925  18.686  0.00  0.00    +0.000 C 
ATOM     24  C   UNL     1       3.132   2.601  18.983  0.00  0.00    +0.000 A 
ATOM     25  C   UNL     1       4.108   3.573  19.252  0.00  0.00    +0.000 A 
ATOM     26  C   UNL     1       3.740   4.901  19.487  0.00  0.00    +0.000 A 
BRANCH  26  27
ATOM     27  O   UNL     1       4.697   5.810  19.834  0.00  0.00    +0.000 OA
ATOM     28  H   UNL     1       5.571   5.392  19.778  0.00  0.00    +0.000 HD
ENDBRANCH  26  27
ENDBRANCH  15  20
BRANCH   1  30
ATOM     29  C   UNL     1       1.988  14.821  18.752  0.00  0.00    +0.000 C 
ATOM     30  C   UNL     1       2.445  13.580  19.498  0.00  0.00    +0.000 C 
ENDBRANCH   1  30
TORSDOF 3
ENDMDL
MODEL 4
REMARK VINA RESULT:      -7.0      5.058      7.529
REMARK  Name = 
REMARK  5 active torsions:
REMARK  status: ('A' for Active; 'I' for Inactive)
REMARK    1  A    between atoms: C_1  and  C_2
REMARK    2  A    between atoms: C_2  and  C_3
REMARK    3  A    between atoms: C_17  and  C_19
REMARK    4  A    between atoms: C_21  and  C_22
REMARK    5  A    between atoms: C_25  and  O_26
REMARK                            x       y       z     vdW  Elec       q    Type
REMARK                         _______ _______ _______ _____ _____    ______ ____
ROOT
ATOM      1  C   UNL     1      -5.674  15.475  20.139  0.00  0.00    +0.000 C 
ATOM      2  O   UNL     1      -5.794  14.573  19.312  0.00  0.00    +0.000 OA
ATOM      3  N   UNL     1      -5.111  15.309  21.403  0.00  0.00    +0.000 N 
ATOM      4  C   UNL     1      -5.255  16.384  22.437  0.00  0.00    +0.000 C 
ATOM      5  C   UNL     1      -6.339  16.079  23.502  0.00  0.00    +0.000 C 
ATOM      6  C   UNL     1      -6.548  14.616  23.644  0.00  0.00    +0.000 A 
ATOM      7  N   UNL     1      -7.323  13.972  24.562  0.00  0.00    +0.000 N 
ATOM      8  C   UNL     1      -7.163  12.630  24.338  0.00  0.00    +0.000 A 
ATOM      9  N   UNL     1      -6.316  12.388  23.359  0.00  0.00    +0.000 NA
ATOM     10  C   UNL     1      -5.917  13.624  22.918  0.00  0.00    +0.000 A 
ATOM     11  C   UNL     1      -4.750  13.929  21.986  0.00  0.00    +0.000 C 
ATOM     12  C   UNL     1      -3.531  14.106  22.928  0.00  0.00    +0.000 C 
ATOM     13  C   UNL     1      -2.363  14.482  22.059  0.00  0.00    +0.000 C 
ATOM     14  N   UNL     1      -1.912  13.248  21.468  0.00  0.00    +0.000 N 
ATOM     15  C   UNL     1      -0.972  12.574  22.249  0.00  0.00    +0.000 C 
ATOM     16  O   UNL     1      -0.688  12.977  23.385  0.00  0.00    +0.000 OA
ATOM     17  C   UNL     1      -2.878  12.646  20.544  0.00  0.00    +0.000 C 
ATOM     18  C   UNL     1      -4.368  12.741  21.022  0.00  0.00    +0.000 C 
ATOM     19  H   UNL     1      -7.867  14.390  25.302  0.00  0.00    +0.000 HD
ENDROOT
BRANCH  15  20
ATOM     20  C   UNL     1      -0.177  11.421  21.794  0.00  0.00    +0.000 A 
ATOM     21  C   UNL     1       0.483  11.609  20.563  0.00  0.00    +0.000 A 
ATOM     22  C   UNL     1       0.901  10.523  19.793  0.00  0.00    +0.000 A 
ATOM     23  C   UNL     1       1.488  10.762  18.433  0.00  0.00    +0.000 C 
ATOM     24  C   UNL     1       0.721   9.236  20.301  0.00  0.00    +0.000 A 
ATOM     25  C   UNL     1       0.119   9.040  21.553  0.00  0.00    +0.000 A 
ATOM     26  C   UNL     1      -0.339  10.131  22.297  0.00  0.00    +0.000 A 
BRANCH  26  27
ATOM     27  O   UNL     1      -1.000   9.911  23.471  0.00  0.00    +0.000 OA
ATOM     28  H   UNL     1      -0.959   8.967  23.689  0.00  0.00    +0.000 HD
ENDBRANCH  26  27
ENDBRANCH  15  20
BRANCH   1  30
ATOM     29  C   UNL     1      -5.101  17.688  18.964  0.00  0.00    +0.000 C 
ATOM     30  C   UNL     1      -6.107  16.903  19.784  0.00  0.00    +0.000 C 
ENDBRANCH   1  30
TORSDOF 3
ENDMDL
MODEL 5
REMARK VINA RESULT:      -6.9      2.248      4.115
REMARK  Name = 
REMARK  5 active torsions:
REMARK  status: ('A' for Active; 'I' for Inactive)
REMARK    1  A    between atoms: C_1  and  C_2
REMARK    2  A    between atoms: C_2  and  C_3
REMARK    3  A    between atoms: C_17  and  C_19
REMARK    4  A    between atoms: C_21  and  C_22
REMARK    5  A    between atoms: C_25  and  O_26
REMARK                            x       y       z     vdW  Elec       q    Type
REMARK                         _______ _______ _______ _____ _____    ______ ____
ROOT
ATOM      1  C   UNL     1      -1.434  11.856  22.261  0.00  0.00    +0.000 C 
ATOM      2  O   UNL     1      -0.873  11.249  23.172  0.00  0.00    +0.000 OA
ATOM      3  N   UNL     1      -0.864  12.100  21.014  0.00  0.00    +0.000 N 
ATOM      4  C   UNL     1      -1.503  13.075  20.072  0.00  0.00    +0.000 C 
ATOM      5  C   UNL     1      -0.798  14.454  20.035  0.00  0.00    +0.000 C 
ATOM      6  C   UNL     1       0.631  14.332  20.420  0.00  0.00    +0.000 A 
ATOM      7  N   UNL     1       1.589  15.301  20.383  0.00  0.00    +0.000 N 
ATOM      8  C   UNL     1       2.760  14.712  20.780  0.00  0.00    +0.000 A 
ATOM      9  N   UNL     1       2.607  13.429  21.036  0.00  0.00    +0.000 NA
ATOM     10  C   UNL     1       1.279  13.175  20.810  0.00  0.00    +0.000 A 
ATOM     11  C   UNL     1       0.616  11.807  20.696  0.00  0.00    +0.000 C 
ATOM     12  C   UNL     1       0.724  11.440  19.193  0.00  0.00    +0.000 C 
ATOM     13  C   UNL     1       0.017  10.125  19.016  0.00  0.00    +0.000 C 
ATOM     14  N   UNL     1       0.946   9.125  19.476  0.00  0.00    +0.000 N 
ATOM     15  C   UNL     1       1.808   8.671  18.477  0.00  0.00    +0.000 C 
ATOM     16  O   UNL     1       1.814   9.202  17.358  0.00  0.00    +0.000 OA
ATOM     17  C   UNL     1       1.231   9.198  20.913  0.00  0.00    +0.000 C 
ATOM     18  C   UNL     1       1.375  10.658  21.465  0.00  0.00    +0.000 C 
ATOM     19  H   UNL     1       1.480  16.255  20.070  0.00  0.00    +0.000 HD
ENDROOT
BRANCH  15  20
ATOM     20  C   UNL     1       2.694   7.501  18.602  0.00  0.00    +0.000 A 
ATOM     21  C   UNL     1       3.703   7.419  17.623  0.00  0.00    +0.000 A 
ATOM     22  C   UNL     1       4.329   6.207  17.328  0.00  0.00    +0.000 A 
ATOM     23  C   UNL     1       5.309   6.136  16.195  0.00  0.00    +0.000 C 
ATOM     24  C   UNL     1       3.989   5.081  18.079  0.00  0.00    +0.000 A 
ATOM     25  C   UNL     1       3.028   5.165  19.097  0.00  0.00    +0.000 A 
ATOM     26  C   UNL     1       2.372   6.373  19.355  0.00  0.00    +0.000 A 
BRANCH  26  27
ATOM     27  O   UNL     1       1.379   6.409  20.290  0.00  0.00    +0.000 OA
ATOM     28  H   UNL     1       1.554   7.129  20.916  0.00  0.00    +0.000 HD
ENDBRANCH  26  27
ENDBRANCH  15  20
BRANCH   1  30
ATOM     29  C   UNL     1      -3.414  12.233  23.857  0.00  0.00    +0.000 C 
ATOM     30  C   UNL     1      -2.876  12.348  22.443  0.00  0.00    +0.000 C 
ENDBRANCH   1  30
TORSDOF 3
ENDMDL
MODEL 6
REMARK VINA RESULT:      -6.9      1.019      1.131
REMARK  Name = 
REMARK  5 active torsions:
REMARK  status: ('A' for Active; 'I' for Inactive)
REMARK    1  A    between atoms: C_1  and  C_2
REMARK    2  A    between atoms: C_2  and  C_3
REMARK    3  A    between atoms: C_17  and  C_19
REMARK    4  A    between atoms: C_21  and  C_22
REMARK    5  A    between atoms: C_25  and  O_26
REMARK                            x       y       z     vdW  Elec       q    Type
REMARK                         _______ _______ _______ _____ _____    ______ ____
ROOT
ATOM      1  C   UNL     1       1.960  12.209  18.653  0.00  0.00    +0.000 C 
ATOM      2  O   UNL     1       2.599  11.818  17.677  0.00  0.00    +0.000 OA
ATOM      3  N   UNL     1       1.011  11.444  19.325  0.00  0.00    +0.000 N 
ATOM      4  C   UNL     1       0.091  12.088  20.319  0.00  0.00    +0.000 C 
ATOM      5  C   UNL     1      -1.334  12.345  19.768  0.00  0.00    +0.000 C 
ATOM      6  C   UNL     1      -1.662  11.395  18.676  0.00  0.00    +0.000 A 
ATOM      7  N   UNL     1      -2.858  11.236  18.042  0.00  0.00    +0.000 N 
ATOM      8  C   UNL     1      -2.697  10.212  17.147  0.00  0.00    +0.000 A 
ATOM      9  N   UNL     1      -1.487   9.696  17.198  0.00  0.00    +0.000 NA
ATOM     10  C   UNL     1      -0.828  10.423  18.156  0.00  0.00    +0.000 A 
ATOM     11  C   UNL     1       0.509  10.082  18.805  0.00  0.00    +0.000 C 
ATOM     12  C   UNL     1       0.139   9.204  20.028  0.00  0.00    +0.000 C 
ATOM     13  C   UNL     1       1.424   8.899  20.748  0.00  0.00    +0.000 C 
ATOM     14  N   UNL     1       2.045   7.841  19.992  0.00  0.00    +0.000 N 
ATOM     15  C   UNL     1       1.646   6.567  20.396  0.00  0.00    +0.000 C 
ATOM     16  O   UNL     1       0.749   6.423  21.238  0.00  0.00    +0.000 OA
ATOM     17  C   UNL     1       2.464   8.243  18.645  0.00  0.00    +0.000 C 
ATOM     18  C   UNL     1       1.448   9.185  17.911  0.00  0.00    +0.000 C 
ATOM     19  H   UNL     1      -3.718  11.733  18.227  0.00  0.00    +0.000 HD
ENDROOT
BRANCH  15  20
ATOM     20  C   UNL     1       2.284   5.312  19.963  0.00  0.00    +0.000 A 
ATOM     21  C   UNL     1       2.288   5.105  18.569  0.00  0.00    +0.000 A 
ATOM     22  C   UNL     1       2.442   3.828  18.028  0.00  0.00    +0.000 A 
ATOM     23  C   UNL     1       2.317   3.631  16.546  0.00  0.00    +0.000 C 
ATOM     24  C   UNL     1       2.670   2.758  18.896  0.00  0.00    +0.000 A 
ATOM     25  C   UNL     1       2.728   2.964  20.282  0.00  0.00    +0.000 A 
ATOM     26  C   UNL     1       2.526   4.239  20.819  0.00  0.00    +0.000 A 
BRANCH  26  27
ATOM     27  O   UNL     1       2.499   4.399  22.174  0.00  0.00    +0.000 OA
ATOM     28  H   UNL     1       2.247   5.312  22.384  0.00  0.00    +0.000 HD
ENDBRANCH  26  27
ENDBRANCH  15  20
BRANCH   1  30
ATOM     29  C   UNL     1       2.804  14.604  18.252  0.00  0.00    +0.000 C 
ATOM     30  C   UNL     1       2.228  13.603  19.236  0.00  0.00    +0.000 C 
ENDBRANCH   1  30
TORSDOF 3
ENDMDL
MODEL 7
REMARK VINA RESULT:      -6.8      3.734      7.879
REMARK  Name = 
REMARK  5 active torsions:
REMARK  status: ('A' for Active; 'I' for Inactive)
REMARK    1  A    between atoms: C_1  and  C_2
REMARK    2  A    between atoms: C_2  and  C_3
REMARK    3  A    between atoms: C_17  and  C_19
REMARK    4  A    between atoms: C_21  and  C_22
REMARK    5  A    between atoms: C_25  and  O_26
REMARK                            x       y       z     vdW  Elec       q    Type
REMARK                         _______ _______ _______ _____ _____    ______ ____
ROOT
ATOM      1  C   UNL     1       1.187  12.599  18.947  0.00  0.00    +0.000 C 
ATOM      2  O   UNL     1       0.766  13.620  19.488  0.00  0.00    +0.000 OA
ATOM      3  N   UNL     1       0.503  11.386  18.922  0.00  0.00    +0.000 N 
ATOM      4  C   UNL     1       1.204  10.135  18.486  0.00  0.00    +0.000 C 
ATOM      5  C   UNL     1       1.632   9.222  19.662  0.00  0.00    +0.000 C 
ATOM      6  C   UNL     1       0.762   9.438  20.846  0.00  0.00    +0.000 A 
ATOM      7  N   UNL     1       0.755   8.733  22.013  0.00  0.00    +0.000 N 
ATOM      8  C   UNL     1      -0.247   9.259  22.784  0.00  0.00    +0.000 A 
ATOM      9  N   UNL     1      -0.890  10.228  22.167  0.00  0.00    +0.000 NA
ATOM     10  C   UNL     1      -0.273  10.348  20.948  0.00  0.00    +0.000 A 
ATOM     11  C   UNL     1      -0.778  11.128  19.740  0.00  0.00    +0.000 C 
ATOM     12  C   UNL     1      -1.656  10.117  18.958  0.00  0.00    +0.000 C 
ATOM     13  C   UNL     1      -2.121  10.820  17.713  0.00  0.00    +0.000 C 
ATOM     14  N   UNL     1      -3.211  11.664  18.134  0.00  0.00    +0.000 N 
ATOM     15  C   UNL     1      -4.450  11.023  18.101  0.00  0.00    +0.000 C 
ATOM     16  O   UNL     1      -4.528   9.812  17.852  0.00  0.00    +0.000 OA
ATOM     17  C   UNL     1      -2.807  12.747  19.037  0.00  0.00    +0.000 C 
ATOM     18  C   UNL     1      -1.737  12.327  20.102  0.00  0.00    +0.000 C 
ATOM     19  H   UNL     1       1.334   7.940  22.250  0.00  0.00    +0.000 HD
ENDROOT
BRANCH  15  20
ATOM     20  C   UNL     1      -5.748  11.700  18.254  0.00  0.00    +0.000 A 
ATOM     21  C   UNL     1      -6.033  12.659  17.262  0.00  0.00    +0.000 A 
ATOM     22  C   UNL     1      -6.970  13.669  17.479  0.00  0.00    +0.000 A 
ATOM     23  C   UNL     1      -7.156  14.742  16.448  0.00  0.00    +0.000 C 
ATOM     24  C   UNL     1      -7.684  13.671  18.679  0.00  0.00    +0.000 A 
ATOM     25  C   UNL     1      -7.450  12.685  19.650  0.00  0.00    +0.000 A 
ATOM     26  C   UNL     1      -6.476  11.704  19.443  0.00  0.00    +0.000 A 
BRANCH  26  27
ATOM     27  O   UNL     1      -6.205  10.809  20.438  0.00  0.00    +0.000 OA
ATOM     28  H   UNL     1      -5.340  10.402  20.276  0.00  0.00    +0.000 HD
ENDBRANCH  26  27
ENDBRANCH  15  20
BRANCH   1  30
ATOM     29  C   UNL     1       3.130  14.008  18.025  0.00  0.00    +0.000 C 
ATOM     30  C   UNL     1       2.522  12.627  18.191  0.00  0.00    +0.000 C 
ENDBRANCH   1  30
TORSDOF 3
ENDMDL
MODEL 8
REMARK VINA RESULT:      -6.8      2.382      4.405
REMARK  Name = 
REMARK  5 active torsions:
REMARK  status: ('A' for Active; 'I' for Inactive)
REMARK    1  A    between atoms: C_1  and  C_2
REMARK    2  A    between atoms: C_2  and  C_3
REMARK    3  A    between atoms: C_17  and  C_19
REMARK    4  A    between atoms: C_21  and  C_22
REMARK    5  A    between atoms: C_25  and  O_26
REMARK                            x       y       z     vdW  Elec       q    Type
REMARK                         _______ _______ _______ _____ _____    ______ ____
ROOT
ATOM      1  C   UNL     1      -1.500  11.916  21.693  0.00  0.00    +0.000 C 
ATOM      2  O   UNL     1      -1.174  11.202  22.640  0.00  0.00    +0.000 OA
ATOM      3  N   UNL     1      -0.711  12.131  20.566  0.00  0.00    +0.000 N 
ATOM      4  C   UNL     1      -1.061  13.222  19.599  0.00  0.00    +0.000 C 
ATOM      5  C   UNL     1      -0.188  14.492  19.755  0.00  0.00    +0.000 C 
ATOM      6  C   UNL     1       1.132  14.160  20.346  0.00  0.00    +0.000 A 
ATOM      7  N   UNL     1       2.200  14.991  20.515  0.00  0.00    +0.000 N 
ATOM      8  C   UNL     1       3.208  14.232  21.049  0.00  0.00    +0.000 A 
ATOM      9  N   UNL     1       2.853  12.973  21.200  0.00  0.00    +0.000 NA
ATOM     10  C   UNL     1       1.556  12.911  20.758  0.00  0.00    +0.000 A 
ATOM     11  C   UNL     1       0.750  11.652  20.460  0.00  0.00    +0.000 C 
ATOM     12  C   UNL     1       1.050  11.336  18.972  0.00  0.00    +0.000 C 
ATOM     13  C   UNL     1       0.217  10.138  18.608  0.00  0.00    +0.000 C 
ATOM     14  N   UNL     1       0.925   9.002  19.142  0.00  0.00    +0.000 N 
ATOM     15  C   UNL     1       1.870   8.476  18.260  0.00  0.00    +0.000 C 
ATOM     16  O   UNL     1       2.123   9.046  17.190  0.00  0.00    +0.000 OA
ATOM     17  C   UNL     1       0.983   8.977  20.608  0.00  0.00    +0.000 C 
ATOM     18  C   UNL     1       1.223  10.380  21.264  0.00  0.00    +0.000 C 
ATOM     19  H   UNL     1       2.266  15.963  20.249  0.00  0.00    +0.000 HD
ENDROOT
BRANCH  15  20
ATOM     20  C   UNL     1       2.567   7.192  18.447  0.00  0.00    +0.000 A 
ATOM     21  C   UNL     1       2.024   6.368  19.453  0.00  0.00    +0.000 A 
ATOM     22  C   UNL     1       2.781   5.359  20.049  0.00  0.00    +0.000 A 
ATOM     23  C   UNL     1       2.209   4.585  21.200  0.00  0.00    +0.000 C 
ATOM     24  C   UNL     1       4.073   5.126  19.575  0.00  0.00    +0.000 A 
ATOM     25  C   UNL     1       4.602   5.902  18.533  0.00  0.00    +0.000 A 
ATOM     26  C   UNL     1       3.854   6.942  17.974  0.00  0.00    +0.000 A 
BRANCH  26  27
ATOM     27  O   UNL     1       4.422   7.739  17.023  0.00  0.00    +0.000 OA
ATOM     28  H   UNL     1       3.989   8.607  17.032  0.00  0.00    +0.000 HD
ENDBRANCH  26  27
ENDBRANCH  15  20
BRANCH   1  30
ATOM     29  C   UNL     1      -3.576  12.634  23.029  0.00  0.00    +0.000 C 
ATOM     30  C   UNL     1      -2.877  12.593  21.682  0.00  0.00    +0.000 C 
ENDBRANCH   1  30
TORSDOF 3
ENDMDL
MODEL 9
REMARK VINA RESULT:      -6.7      2.546      7.512
REMARK  Name = 
REMARK  5 active torsions:
REMARK  status: ('A' for Active; 'I' for Inactive)
REMARK    1  A    between atoms: C_1  and  C_2
REMARK    2  A    between atoms: C_2  and  C_3
REMARK    3  A    between atoms: C_17  and  C_19
REMARK    4  A    between atoms: C_21  and  C_22
REMARK    5  A    between atoms: C_25  and  O_26
REMARK                            x       y       z     vdW  Elec       q    Type
REMARK                         _______ _______ _______ _____ _____    ______ ____
ROOT
ATOM      1  C   UNL     1       5.324   5.041  18.877  0.00  0.00    +0.000 C 
ATOM      2  O   UNL     1       5.433   5.315  20.072  0.00  0.00    +0.000 OA
ATOM      3  N   UNL     1       4.140   5.151  18.153  0.00  0.00    +0.000 N 
ATOM      4  C   UNL     1       4.033   4.540  16.788  0.00  0.00    +0.000 C 
ATOM      5  C   UNL     1       3.257   3.199  16.768  0.00  0.00    +0.000 C 
ATOM      6  C   UNL     1       2.301   3.121  17.901  0.00  0.00    +0.000 A 
ATOM      7  N   UNL     1       1.366   2.156  18.136  0.00  0.00    +0.000 N 
ATOM      8  C   UNL     1       0.687   2.533  19.264  0.00  0.00    +0.000 A 
ATOM      9  N   UNL     1       1.113   3.686  19.736  0.00  0.00    +0.000 NA
ATOM     10  C   UNL     1       2.120   4.070  18.889  0.00  0.00    +0.000 A 
ATOM     11  C   UNL     1       2.777   5.444  18.811  0.00  0.00    +0.000 C 
ATOM     12  C   UNL     1       1.911   6.237  17.799  0.00  0.00    +0.000 C 
ATOM     13  C   UNL     1       2.563   7.582  17.632  0.00  0.00    +0.000 C 
ATOM     14  N   UNL     1       2.169   8.345  18.789  0.00  0.00    +0.000 N 
ATOM     15  C   UNL     1       0.966   9.030  18.615  0.00  0.00    +0.000 C 
ATOM     16  O   UNL     1       0.283   8.859  17.596  0.00  0.00    +0.000 OA
ATOM     17  C   UNL     1       2.710   7.829  20.051  0.00  0.00    +0.000 C 
ATOM     18  C   UNL     1       2.712   6.265  20.156  0.00  0.00    +0.000 C 
ATOM     19  H   UNL     1       1.167   1.347  17.565  0.00  0.00    +0.000 HD
ENDROOT
BRANCH  15  20
ATOM     20  C   UNL     1       0.446  10.057  19.533  0.00  0.00    +0.000 A 
ATOM     21  C   UNL     1       0.442   9.685  20.892  0.00  0.00    +0.000 A 
ATOM     22  C   UNL     1      -0.386  10.324  21.815  0.00  0.00    +0.000 A 
ATOM     23  C   UNL     1      -0.452   9.818  23.226  0.00  0.00    +0.000 C 
ATOM     24  C   UNL     1      -1.163  11.400  21.382  0.00  0.00    +0.000 A 
ATOM     25  C   UNL     1      -1.121  11.817  20.043  0.00  0.00    +0.000 A 
ATOM     26  C   UNL     1      -0.324  11.141  19.115  0.00  0.00    +0.000 A 
BRANCH  26  27
ATOM     27  O   UNL     1      -0.367  11.509  17.801  0.00  0.00    +0.000 OA
ATOM     28  H   UNL     1       0.400  12.066  17.599  0.00  0.00    +0.000 HD
ENDBRANCH  26  27
ENDBRANCH  15  20
BRANCH   1  30
ATOM     29  C   UNL     1       7.470   5.726  17.639  0.00  0.00    +0.000 C 
ATOM     30  C   UNL     1       6.556   4.597  18.078  0.00  0.00    +0.000 C 
ENDBRANCH   1  30
TORSDOF 3
ENDMDL
