MODEL 1
REMARK VINA RESULT:      -8.1      0.000      0.000
REMARK  Name = 
REMARK  8 active torsions:
REMARK  status: ('A' for Active; 'I' for Inactive)
REMARK    1  A    between atoms: C_2  and  C_3
REMARK    2  A    between atoms: N_5  and  C_6
REMARK    3  A    between atoms: C_9  and  C_10
REMARK    4  A    between atoms: C_10  and  C_12
REMARK    5  A    between atoms: C_13  and  C_14
REMARK    6  A    between atoms: C_16  and  C_17
REMARK    7  A    between atoms: C_18  and  O_19
REMARK    8  A    between atoms: C_20  and  C_21
REMARK                            x       y       z     vdW  Elec       q    Type
REMARK                         _______ _______ _______ _____ _____    ______ ____
ROOT
ATOM      1  C   UNL     1       7.481   7.016  17.339  0.00  0.00    +0.000 C 
ATOM      2  O   UNL     1       7.791   6.729  16.186  0.00  0.00    +0.000 OA
ENDROOT
BRANCH   1   6
ATOM      3  C   UNL     1       4.045   5.187  19.207  0.00  0.00    +0.000 A 
ATOM      4  C   UNL     1       3.919   6.145  18.198  0.00  0.00    +0.000 A 
ATOM      5  C   UNL     1       5.048   6.715  17.602  0.00  0.00    +0.000 A 
ATOM      6  C   UNL     1       6.331   6.330  17.992  0.00  0.00    +0.000 A 
ATOM      7  C   UNL     1       6.472   5.367  18.999  0.00  0.00    +0.000 A 
ATOM      8  C   UNL     1       5.334   4.807  19.608  0.00  0.00    +0.000 A 
BRANCH   3  11
ATOM      9  C   UNL     1       2.387   3.372  19.572  0.00  0.00    +0.000 C 
ATOM     10  O   UNL     1       2.827   2.547  18.785  0.00  0.00    +0.000 OA
ATOM     11  N   UNL     1       2.931   4.609  19.863  0.00  0.00    +0.000 N 
ATOM     12  H   UNL     1       2.537   5.135  20.631  0.00  0.00    +0.000 HD
BRANCH   9  14
ATOM     13  C   UNL     1       1.275   2.696  21.640  0.00  0.00    +0.000 C 
ATOM     14  C   UNL     1       1.155   3.072  20.359  0.00  0.00    +0.000 C 
ENDBRANCH   9  14
ENDBRANCH   3  11
ENDBRANCH   1   6
BRANCH   1  15
ATOM     15  C   UNL     1       8.259   8.005  18.131  0.00  0.00    +0.000 C 
ATOM     16  C   UNL     1       8.242   9.299  17.776  0.00  0.00    +0.000 C 
BRANCH  16  17
ATOM     17  C   UNL     1       9.057  10.278  18.493  0.00  0.00    +0.000 A 
ATOM     18  C   UNL     1       8.798  10.540  19.843  0.00  0.00    +0.000 A 
ATOM     19  C   UNL     1       9.517  11.528  20.535  0.00  0.00    +0.000 A 
ATOM     20  C   UNL     1       9.140  11.844  21.956  0.00  0.00    +0.000 C 
ATOM     21  C   UNL     1      10.524  12.229  19.854  0.00  0.00    +0.000 A 
ATOM     22  C   UNL     1      10.790  11.986  18.499  0.00  0.00    +0.000 A 
ATOM     23  C   UNL     1      11.821  12.763  17.729  0.00  0.00    +0.000 C 
ATOM     24  C   UNL     1      10.048  11.003  17.827  0.00  0.00    +0.000 A 
BRANCH  21  25
ATOM     25  O   UNL     1      11.270  13.189  20.483  0.00  0.00    +0.000 OA
ATOM     26  H   UNL     1      11.712  13.738  19.819  0.00  0.00    +0.000 HD
ENDBRANCH  21  25
ENDBRANCH  16  17
ENDBRANCH   1  15
TORSDOF 6
ENDMDL
MODEL 2
REMARK VINA RESULT:      -7.9      0.665      1.853
REMARK  Name = 
REMARK  8 active torsions:
REMARK  status: ('A' for Active; 'I' for Inactive)
REMARK    1  A    between atoms: C_2  and  C_3
REMARK    2  A    between atoms: N_5  and  C_6
REMARK    3  A    between atoms: C_9  and  C_10
REMARK    4  A    between atoms: C_10  and  C_12
REMARK    5  A    between atoms: C_13  and  C_14
REMARK    6  A    between atoms: C_16  and  C_17
REMARK    7  A    between atoms: C_18  and  O_19
REMARK    8  A    between atoms: C_20  and  C_21
REMARK                            x       y       z     vdW  Elec       q    Type
REMARK                         _______ _______ _______ _____ _____    ______ ____
ROOT
ATOM      1  C   UNL     1       7.239   7.212  17.175  0.00  0.00    +0.000 C 
ATOM      2  O   UNL     1       7.879   6.679  16.274  0.00  0.00    +0.000 OA
ENDROOT
BRANCH   1   6
ATOM      3  C   UNL     1       3.971   5.186  19.139  0.00  0.00    +0.000 A 
ATOM      4  C   UNL     1       3.759   6.174  18.175  0.00  0.00    +0.000 A 
ATOM      5  C   UNL     1       4.834   6.808  17.546  0.00  0.00    +0.000 A 
ATOM      6  C   UNL     1       6.149   6.459  17.858  0.00  0.00    +0.000 A 
ATOM      7  C   UNL     1       6.375   5.466  18.819  0.00  0.00    +0.000 A 
ATOM      8  C   UNL     1       5.291   4.842  19.462  0.00  0.00    +0.000 A 
BRANCH   3  11
ATOM      9  C   UNL     1       2.027   3.642  19.265  0.00  0.00    +0.000 C 
ATOM     10  O   UNL     1       2.068   3.186  18.132  0.00  0.00    +0.000 OA
ATOM     11  N   UNL     1       2.913   4.542  19.827  0.00  0.00    +0.000 N 
ATOM     12  H   UNL     1       2.836   4.733  20.816  0.00  0.00    +0.000 HD
BRANCH   9  14
ATOM     13  C   UNL     1       1.290   2.858  21.459  0.00  0.00    +0.000 C 
ATOM     14  C   UNL     1       0.956   3.206  20.209  0.00  0.00    +0.000 C 
ENDBRANCH   9  14
ENDBRANCH   3  11
ENDBRANCH   1   6
BRANCH   1  15
ATOM     15  C   UNL     1       7.553   8.586  17.647  0.00  0.00    +0.000 C 
ATOM     16  C   UNL     1       8.742   8.835  18.216  0.00  0.00    +0.000 C 
BRANCH  16  17
ATOM     17  C   UNL     1       9.046  10.160  18.756  0.00  0.00    +0.000 A 
ATOM     18  C   UNL     1       9.517  11.164  17.903  0.00  0.00    +0.000 A 
ATOM     19  C   UNL     1       9.886  12.422  18.407  0.00  0.00    +0.000 A 
ATOM     20  C   UNL     1      10.478  13.438  17.471  0.00  0.00    +0.000 C 
ATOM     21  C   UNL     1       9.745  12.663  19.782  0.00  0.00    +0.000 A 
ATOM     22  C   UNL     1       9.284  11.665  20.653  0.00  0.00    +0.000 A 
ATOM     23  C   UNL     1       9.179  11.876  22.137  0.00  0.00    +0.000 C 
ATOM     24  C   UNL     1       8.934  10.413  20.125  0.00  0.00    +0.000 A 
BRANCH  21  25
ATOM     25  O   UNL     1      10.070  13.876  20.326  0.00  0.00    +0.000 OA
ATOM     26  H   UNL     1      10.206  14.520  19.616  0.00  0.00    +0.000 HD
ENDBRANCH  21  25
ENDBRANCH  16  17
ENDBRANCH   1  15
TORSDOF 6
ENDMDL
MODEL 3
REMARK VINA RESULT:      -7.9      3.593      4.622
REMARK  Name = 
REMARK  8 active torsions:
REMARK  status: ('A' for Active; 'I' for Inactive)
REMARK    1  A    between atoms: C_2  and  C_3
REMARK    2  A    between atoms: N_5  and  C_6
REMARK    3  A    between atoms: C_9  and  C_10
REMARK    4  A    between atoms: C_10  and  C_12
REMARK    5  A    between atoms: C_13  and  C_14
REMARK    6  A    between atoms: C_16  and  C_17
REMARK    7  A    between atoms: C_18  and  O_19
REMARK    8  A    between atoms: C_20  and  C_21
REMARK                            x       y       z     vdW  Elec       q    Type
REMARK                         _______ _______ _______ _____ _____    ______ ____
ROOT
ATOM      1  C   UNL     1       7.533   6.706  18.126  0.00  0.00    +0.000 C 
ATOM      2  O   UNL     1       7.607   6.172  19.229  0.00  0.00    +0.000 OA
ENDROOT
BRANCH   1   6
ATOM      3  C   UNL     1       5.785   4.574  14.804  0.00  0.00    +0.000 A 
ATOM      4  C   UNL     1       5.319   5.827  15.209  0.00  0.00    +0.000 A 
ATOM      5  C   UNL     1       5.908   6.501  16.282  0.00  0.00    +0.000 A 
ATOM      6  C   UNL     1       6.989   5.943  16.967  0.00  0.00    +0.000 A 
ATOM      7  C   UNL     1       7.470   4.690  16.568  0.00  0.00    +0.000 A 
ATOM      8  C   UNL     1       6.863   4.007  15.498  0.00  0.00    +0.000 A 
BRANCH   3  11
ATOM      9  C   UNL     1       5.779   3.606  12.515  0.00  0.00    +0.000 C 
ATOM     10  O   UNL     1       6.915   3.903  12.176  0.00  0.00    +0.000 OA
ATOM     11  N   UNL     1       5.196   3.839  13.746  0.00  0.00    +0.000 N 
ATOM     12  H   UNL     1       4.294   3.422  13.933  0.00  0.00    +0.000 HD
BRANCH   9  14
ATOM     13  C   UNL     1       3.826   3.535  11.047  0.00  0.00    +0.000 C 
ATOM     14  C   UNL     1       4.879   2.887  11.565  0.00  0.00    +0.000 C 
ENDBRANCH   9  14
ENDBRANCH   3  11
ENDBRANCH   1   6
BRANCH   1  15
ATOM     15  C   UNL     1       7.927   8.124  17.919  0.00  0.00    +0.000 C 
ATOM     16  C   UNL     1       8.742   8.721  18.802  0.00  0.00    +0.000 C 
BRANCH  16  17
ATOM     17  C   UNL     1       9.085  10.136  18.660  0.00  0.00    +0.000 A 
ATOM     18  C   UNL     1       8.197  11.003  18.014  0.00  0.00    +0.000 A 
ATOM     19  C   UNL     1       8.532  12.349  17.800  0.00  0.00    +0.000 A 
ATOM     20  C   UNL     1       7.591  13.220  17.017  0.00  0.00    +0.000 C 
ATOM     21  C   UNL     1       9.768  12.817  18.274  0.00  0.00    +0.000 A 
ATOM     22  C   UNL     1      10.673  11.961  18.916  0.00  0.00    +0.000 A 
ATOM     23  C   UNL     1      12.027  12.421  19.380  0.00  0.00    +0.000 C 
ATOM     24  C   UNL     1      10.319  10.616  19.105  0.00  0.00    +0.000 A 
BRANCH  21  25
ATOM     25  O   UNL     1      10.140  14.124  18.112  0.00  0.00    +0.000 OA
ATOM     26  H   UNL     1      10.348  14.285  17.179  0.00  0.00    +0.000 HD
ENDBRANCH  21  25
ENDBRANCH  16  17
ENDBRANCH   1  15
TORSDOF 6
ENDMDL
MODEL 4
REMARK VINA RESULT:      -7.9      1.114      2.272
REMARK  Name = 
REMARK  8 active torsions:
REMARK  status: ('A' for Active; 'I' for Inactive)
REMARK    1  A    between atoms: C_2  and  C_3
REMARK    2  A    between atoms: N_5  and  C_6
REMARK    3  A    between atoms: C_9  and  C_10
REMARK    4  A    between atoms: C_10  and  C_12
REMARK    5  A    between atoms: C_13  and  C_14
REMARK    6  A    between atoms: C_16  and  C_17
REMARK    7  A    between atoms: C_18  and  O_19
REMARK    8  A    between atoms: C_20  and  C_21
REMARK                            x       y       z     vdW  Elec       q    Type
REMARK                         _______ _______ _______ _____ _____    ______ ____
ROOT
ATOM      1  C   UNL     1       7.314   7.241  17.122  0.00  0.00    +0.000 C 
ATOM      2  O   UNL     1       7.987   6.673  16.267  0.00  0.00    +0.000 OA
ENDROOT
BRANCH   1   6
ATOM      3  C   UNL     1       4.144   5.018  19.034  0.00  0.00    +0.000 A 
ATOM      4  C   UNL     1       5.483   4.865  19.401  0.00  0.00    +0.000 A 
ATOM      5  C   UNL     1       6.490   5.604  18.773  0.00  0.00    +0.000 A 
ATOM      6  C   UNL     1       6.179   6.525  17.771  0.00  0.00    +0.000 A 
ATOM      7  C   UNL     1       4.840   6.692  17.398  0.00  0.00    +0.000 A 
ATOM      8  C   UNL     1       3.831   5.935  18.020  0.00  0.00    +0.000 A 
BRANCH   3  11
ATOM      9  C   UNL     1       2.051   4.791  20.353  0.00  0.00    +0.000 C 
ATOM     10  O   UNL     1       1.807   5.975  20.536  0.00  0.00    +0.000 OA
ATOM     11  N   UNL     1       3.096   4.266  19.617  0.00  0.00    +0.000 N 
ATOM     12  H   UNL     1       3.101   3.271  19.439  0.00  0.00    +0.000 HD
BRANCH   9  14
ATOM     13  C   UNL     1       1.693   2.632  21.442  0.00  0.00    +0.000 C 
ATOM     14  C   UNL     1       1.153   3.746  20.928  0.00  0.00    +0.000 C 
ENDBRANCH   9  14
ENDBRANCH   3  11
ENDBRANCH   1   6
BRANCH   1  15
ATOM     15  C   UNL     1       7.632   8.621  17.573  0.00  0.00    +0.000 C 
ATOM     16  C   UNL     1       8.743   8.845  18.291  0.00  0.00    +0.000 C 
BRANCH  16  17
ATOM     17  C   UNL     1       9.038  10.180  18.810  0.00  0.00    +0.000 A 
ATOM     18  C   UNL     1       9.465  11.185  17.935  0.00  0.00    +0.000 A 
ATOM     19  C   UNL     1       9.825  12.453  18.415  0.00  0.00    +0.000 A 
ATOM     20  C   UNL     1      10.370  13.471  17.453  0.00  0.00    +0.000 C 
ATOM     21  C   UNL     1       9.720  12.705  19.792  0.00  0.00    +0.000 A 
ATOM     22  C   UNL     1       9.303  11.707  20.685  0.00  0.00    +0.000 A 
ATOM     23  C   UNL     1       9.239  11.931  22.170  0.00  0.00    +0.000 C 
ATOM     24  C   UNL     1       8.962  10.444  20.179  0.00  0.00    +0.000 A 
BRANCH  21  25
ATOM     25  O   UNL     1      10.039  13.929  20.315  0.00  0.00    +0.000 OA
ATOM     26  H   UNL     1       9.712  13.984  21.225  0.00  0.00    +0.000 HD
ENDBRANCH  21  25
ENDBRANCH  16  17
ENDBRANCH   1  15
TORSDOF 6
ENDMDL
MODEL 5
REMARK VINA RESULT:      -7.9      5.861      7.683
REMARK  Name = 
REMARK  8 active torsions:
REMARK  status: ('A' for Active; 'I' for Inactive)
REMARK    1  A    between atoms: C_2  and  C_3
REMARK    2  A    between atoms: N_5  and  C_6
REMARK    3  A    between atoms: C_9  and  C_10
REMARK    4  A    between atoms: C_10  and  C_12
REMARK    5  A    between atoms: C_13  and  C_14
REMARK    6  A    between atoms: C_16  and  C_17
REMARK    7  A    between atoms: C_18  and  O_19
REMARK    8  A    between atoms: C_20  and  C_21
REMARK                            x       y       z     vdW  Elec       q    Type
REMARK                         _______ _______ _______ _____ _____    ______ ____
ROOT
ATOM      1  C   UNL     1       2.392   4.369  20.608  0.00  0.00    +0.000 C 
ATOM      2  O   UNL     1       2.251   3.432  21.389  0.00  0.00    +0.000 OA
ENDROOT
BRANCH   1   6
ATOM      3  C   UNL     1       4.825   3.980  17.063  0.00  0.00    +0.000 A 
ATOM      4  C   UNL     1       5.359   4.387  18.288  0.00  0.00    +0.000 A 
ATOM      5  C   UNL     1       4.552   4.496  19.424  0.00  0.00    +0.000 A 
ATOM      6  C   UNL     1       3.192   4.186  19.364  0.00  0.00    +0.000 A 
ATOM      7  C   UNL     1       2.645   3.771  18.144  0.00  0.00    +0.000 A 
ATOM      8  C   UNL     1       3.458   3.679  16.999  0.00  0.00    +0.000 A 
BRANCH   3  11
ATOM      9  C   UNL     1       5.927   4.951  15.058  0.00  0.00    +0.000 C 
ATOM     10  O   UNL     1       5.696   6.134  15.264  0.00  0.00    +0.000 OA
ATOM     11  N   UNL     1       5.598   3.890  15.880  0.00  0.00    +0.000 N 
ATOM     12  H   UNL     1       5.967   2.977  15.650  0.00  0.00    +0.000 HD
BRANCH   9  14
ATOM     13  C   UNL     1       6.129   3.602  13.030  0.00  0.00    +0.000 C 
ATOM     14  C   UNL     1       6.665   4.536  13.829  0.00  0.00    +0.000 C 
ENDBRANCH   9  14
ENDBRANCH   3  11
ENDBRANCH   1   6
BRANCH   1  15
ATOM     15  C   UNL     1       1.739   5.684  20.843  0.00  0.00    +0.000 C 
ATOM     16  C   UNL     1       2.111   6.748  20.115  0.00  0.00    +0.000 C 
BRANCH  16  17
ATOM     17  C   UNL     1       1.537   8.067  20.378  0.00  0.00    +0.000 A 
ATOM     18  C   UNL     1       0.962   8.337  21.625  0.00  0.00    +0.000 A 
ATOM     19  C   UNL     1       0.340   9.569  21.879  0.00  0.00    +0.000 A 
ATOM     20  C   UNL     1      -0.350   9.780  23.197  0.00  0.00    +0.000 C 
ATOM     21  C   UNL     1       0.331  10.539  20.865  0.00  0.00    +0.000 A 
ATOM     22  C   UNL     1       0.894  10.283  19.607  0.00  0.00    +0.000 A 
ATOM     23  C   UNL     1       0.847  11.281  18.485  0.00  0.00    +0.000 C 
ATOM     24  C   UNL     1       1.499   9.038  19.375  0.00  0.00    +0.000 A 
BRANCH  21  25
ATOM     25  O   UNL     1      -0.244  11.766  21.062  0.00  0.00    +0.000 OA
ATOM     26  H   UNL     1      -0.486  11.860  21.995  0.00  0.00    +0.000 HD
ENDBRANCH  21  25
ENDBRANCH  16  17
ENDBRANCH   1  15
TORSDOF 6
ENDMDL
MODEL 6
REMARK VINA RESULT:      -7.9      0.863      1.306
REMARK  Name = 
REMARK  8 active torsions:
REMARK  status: ('A' for Active; 'I' for Inactive)
REMARK    1  A    between atoms: C_2  and  C_3
REMARK    2  A    between atoms: N_5  and  C_6
REMARK    3  A    between atoms: C_9  and  C_10
REMARK    4  A    between atoms: C_10  and  C_12
REMARK    5  A    between atoms: C_13  and  C_14
REMARK    6  A    between atoms: C_16  and  C_17
REMARK    7  A    between atoms: C_18  and  O_19
REMARK    8  A    between atoms: C_20  and  C_21
REMARK                            x       y       z     vdW  Elec       q    Type
REMARK                         _______ _______ _______ _____ _____    ______ ____
ROOT
ATOM      1  C   UNL     1       7.431   7.157  17.321  0.00  0.00    +0.000 C 
ATOM      2  O   UNL     1       7.941   6.844  16.249  0.00  0.00    +0.000 OA
ENDROOT
BRANCH   1   6
ATOM      3  C   UNL     1       4.044   4.906  18.771  0.00  0.00    +0.000 A 
ATOM      4  C   UNL     1       5.332   4.720  19.280  0.00  0.00    +0.000 A 
ATOM      5  C   UNL     1       6.410   5.468  18.801  0.00  0.00    +0.000 A 
ATOM      6  C   UNL     1       6.223   6.433  17.808  0.00  0.00    +0.000 A 
ATOM      7  C   UNL     1       4.937   6.633  17.293  0.00  0.00    +0.000 A 
ATOM      8  C   UNL     1       3.857   5.866  17.767  0.00  0.00    +0.000 A 
BRANCH   3  11
ATOM      9  C   UNL     1       2.238   4.343  20.383  0.00  0.00    +0.000 C 
ATOM     10  O   UNL     1       2.407   5.247  21.187  0.00  0.00    +0.000 OA
ATOM     11  N   UNL     1       2.929   4.147  19.202  0.00  0.00    +0.000 N 
ATOM     12  H   UNL     1       2.597   3.434  18.567  0.00  0.00    +0.000 HD
BRANCH   9  14
ATOM     13  C   UNL     1       1.246   2.537  21.698  0.00  0.00    +0.000 C 
ATOM     14  C   UNL     1       1.172   3.324  20.615  0.00  0.00    +0.000 C 
ENDBRANCH   9  14
ENDBRANCH   3  11
ENDBRANCH   1   6
BRANCH   1  15
ATOM     15  C   UNL     1       8.018   8.217  18.183  0.00  0.00    +0.000 C 
ATOM     16  C   UNL     1       8.517   9.328  17.621  0.00  0.00    +0.000 C 
BRANCH  16  17
ATOM     17  C   UNL     1       9.166  10.349  18.440  0.00  0.00    +0.000 A 
ATOM     18  C   UNL     1       8.845  10.457  19.798  0.00  0.00    +0.000 A 
ATOM     19  C   UNL     1       9.398  11.474  20.591  0.00  0.00    +0.000 A 
ATOM     20  C   UNL     1       8.952  11.612  22.019  0.00  0.00    +0.000 C 
ATOM     21  C   UNL     1      10.305  12.368  20.000  0.00  0.00    +0.000 A 
ATOM     22  C   UNL     1      10.631  12.282  18.639  0.00  0.00    +0.000 A 
ATOM     23  C   UNL     1      11.553  13.262  17.968  0.00  0.00    +0.000 C 
ATOM     24  C   UNL     1      10.054  11.263  17.867  0.00  0.00    +0.000 A 
BRANCH  21  25
ATOM     25  O   UNL     1      10.891  13.369  20.729  0.00  0.00    +0.000 OA
ATOM     26  H   UNL     1      10.731  13.214  21.671  0.00  0.00    +0.000 HD
ENDBRANCH  21  25
ENDBRANCH  16  17
ENDBRANCH   1  15
TORSDOF 6
ENDMDL
MODEL 7
REMARK VINA RESULT:      -7.8      5.914      7.858
REMARK  Name = 
REMARK  8 active torsions:
REMARK  status: ('A' for Active; 'I' for Inactive)
REMARK    1  A    between atoms: C_2  and  C_3
REMARK    2  A    between atoms: N_5  and  C_6
REMARK    3  A    between atoms: C_9  and  C_10
REMARK    4  A    between atoms: C_10  and  C_12
REMARK    5  A    between atoms: C_13  and  C_14
REMARK    6  A    between atoms: C_16  and  C_17
REMARK    7  A    between atoms: C_18  and  O_19
REMARK    8  A    between atoms: C_20  and  C_21
REMARK                            x       y       z     vdW  Elec       q    Type
REMARK                         _______ _______ _______ _____ _____    ______ ____
ROOT
ATOM      1  C   UNL     1       2.413   4.466  20.681  0.00  0.00    +0.000 C 
ATOM      2  O   UNL     1       2.269   3.509  21.436  0.00  0.00    +0.000 OA
ENDROOT
BRANCH   1   6
ATOM      3  C   UNL     1       4.836   3.951  17.145  0.00  0.00    +0.000 A 
ATOM      4  C   UNL     1       3.472   3.649  17.160  0.00  0.00    +0.000 A 
ATOM      5  C   UNL     1       2.707   3.834  18.315  0.00  0.00    +0.000 A 
ATOM      6  C   UNL     1       3.287   4.339  19.481  0.00  0.00    +0.000 A 
ATOM      7  C   UNL     1       4.652   4.651  19.477  0.00  0.00    +0.000 A 
ATOM      8  C   UNL     1       5.422   4.448  18.318  0.00  0.00    +0.000 A 
BRANCH   3  11
ATOM      9  C   UNL     1       5.879   4.673  15.008  0.00  0.00    +0.000 C 
ATOM     10  O   UNL     1       5.493   5.833  14.986  0.00  0.00    +0.000 OA
ATOM     11  N   UNL     1       5.657   3.747  16.009  0.00  0.00    +0.000 N 
ATOM     12  H   UNL     1       6.146   2.864  15.959  0.00  0.00    +0.000 HD
BRANCH   9  14
ATOM     13  C   UNL     1       6.098   3.569  12.838  0.00  0.00    +0.000 C 
ATOM     14  C   UNL     1       6.708   4.140  13.887  0.00  0.00    +0.000 C 
ENDBRANCH   9  14
ENDBRANCH   3  11
ENDBRANCH   1   6
BRANCH   1  15
ATOM     15  C   UNL     1       1.694   5.748  20.902  0.00  0.00    +0.000 C 
ATOM     16  C   UNL     1       2.010   6.821  20.161  0.00  0.00    +0.000 C 
BRANCH  16  17
ATOM     17  C   UNL     1       1.370   8.112  20.410  0.00  0.00    +0.000 A 
ATOM     18  C   UNL     1       1.472   9.131  19.457  0.00  0.00    +0.000 A 
ATOM     19  C   UNL     1       0.930  10.403  19.702  0.00  0.00    +0.000 A 
ATOM     20  C   UNL     1       1.146  11.496  18.693  0.00  0.00    +0.000 C 
ATOM     21  C   UNL     1       0.256  10.624  20.913  0.00  0.00    +0.000 A 
ATOM     22  C   UNL     1       0.153   9.617  21.883  0.00  0.00    +0.000 A 
ATOM     23  C   UNL     1      -0.510   9.845  23.213  0.00  0.00    +0.000 C 
ATOM     24  C   UNL     1       0.715   8.359  21.618  0.00  0.00    +0.000 A 
BRANCH  21  25
ATOM     25  O   UNL     1      -0.309  11.838  21.198  0.00  0.00    +0.000 OA
ATOM     26  H   UNL     1       0.232  12.296  21.859  0.00  0.00    +0.000 HD
ENDBRANCH  21  25
ENDBRANCH  16  17
ENDBRANCH   1  15
TORSDOF 6
ENDMDL
MODEL 8
REMARK VINA RESULT:      -7.8      0.441      2.079
REMARK  Name = 
REMARK  8 active torsions:
REMARK  status: ('A' for Active; 'I' for Inactive)
REMARK    1  A    between atoms: C_2  and  C_3
REMARK    2  A    between atoms: N_5  and  C_6
REMARK    3  A    between atoms: C_9  and  C_10
REMARK    4  A    between atoms: C_10  and  C_12
REMARK    5  A    between atoms: C_13  and  C_14
REMARK    6  A    between atoms: C_16  and  C_17
REMARK    7  A    between atoms: C_18  and  O_19
REMARK    8  A    between atoms: C_20  and  C_21
REMARK                            x       y       z     vdW  Elec       q    Type
REMARK                         _______ _______ _______ _____ _____    ______ ____
ROOT
ATOM      1  C   UNL     1       7.536   7.057  17.315  0.00  0.00    +0.000 C 
ATOM      2  O   UNL     1       7.911   6.718  16.196  0.00  0.00    +0.000 OA
ENDROOT
BRANCH   1   6
ATOM      3  C   UNL     1       4.250   4.957  19.168  0.00  0.00    +0.000 A 
ATOM      4  C   UNL     1       5.570   4.791  19.593  0.00  0.00    +0.000 A 
ATOM      5  C   UNL     1       6.616   5.490  18.983  0.00  0.00    +0.000 A 
ATOM      6  C   UNL     1       6.363   6.384  17.941  0.00  0.00    +0.000 A 
ATOM      7  C   UNL     1       5.043   6.564  17.509  0.00  0.00    +0.000 A 
ATOM      8  C   UNL     1       3.996   5.846  18.114  0.00  0.00    +0.000 A 
BRANCH   3  11
ATOM      9  C   UNL     1       2.878   2.913  19.502  0.00  0.00    +0.000 C 
ATOM     10  O   UNL     1       3.554   2.119  18.865  0.00  0.00    +0.000 OA
ATOM     11  N   UNL     1       3.164   4.244  19.733  0.00  0.00    +0.000 N 
ATOM     12  H   UNL     1       2.584   4.751  20.388  0.00  0.00    +0.000 HD
BRANCH   9  14
ATOM     13  C   UNL     1       0.583   3.317  20.242  0.00  0.00    +0.000 C 
ATOM     14  C   UNL     1       1.612   2.462  20.155  0.00  0.00    +0.000 C 
ENDBRANCH   9  14
ENDBRANCH   3  11
ENDBRANCH   1   6
BRANCH   1  15
ATOM     15  C   UNL     1       8.258   8.095  18.097  0.00  0.00    +0.000 C 
ATOM     16  C   UNL     1       8.226   9.373  17.689  0.00  0.00    +0.000 C 
BRANCH  16  17
ATOM     17  C   UNL     1       8.988  10.400  18.398  0.00  0.00    +0.000 A 
ATOM     18  C   UNL     1       9.998  11.099  17.730  0.00  0.00    +0.000 A 
ATOM     19  C   UNL     1      10.793  12.037  18.406  0.00  0.00    +0.000 A 
ATOM     20  C   UNL     1      11.930  12.694  17.674  0.00  0.00    +0.000 C 
ATOM     21  C   UNL     1      10.535  12.283  19.764  0.00  0.00    +0.000 A 
ATOM     22  C   UNL     1       9.533  11.585  20.452  0.00  0.00    +0.000 A 
ATOM     23  C   UNL     1       9.274  11.785  21.919  0.00  0.00    +0.000 C 
ATOM     24  C   UNL     1       8.761  10.643  19.755  0.00  0.00    +0.000 A 
BRANCH  21  25
ATOM     25  O   UNL     1      11.265  13.201  20.470  0.00  0.00    +0.000 OA
ATOM     26  H   UNL     1      10.831  14.065  20.417  0.00  0.00    +0.000 HD
ENDBRANCH  21  25
ENDBRANCH  16  17
ENDBRANCH   1  15
TORSDOF 6
ENDMDL
MODEL 9
REMARK VINA RESULT:      -7.7      1.278      1.278
REMARK  Name = 
REMARK  8 active torsions:
REMARK  status: ('A' for Active; 'I' for Inactive)
REMARK    1  A    between atoms: C_2  and  C_3
REMARK    2  A    between atoms: N_5  and  C_6
REMARK    3  A    between atoms: C_9  and  C_10
REMARK    4  A    between atoms: C_10  and  C_12
REMARK    5  A    between atoms: C_13  and  C_14
REMARK    6  A    between atoms: C_16  and  C_17
REMARK    7  A    between atoms: C_18  and  O_19
REMARK    8  A    between atoms: C_20  and  C_21
REMARK                            x       y       z     vdW  Elec       q    Type
REMARK                         _______ _______ _______ _____ _____    ______ ____
ROOT
ATOM      1  C   UNL     1       7.365   7.287  17.202  0.00  0.00    +0.000 C 
ATOM      2  O   UNL     1       8.079   6.819  16.320  0.00  0.00    +0.000 OA
ENDROOT
BRANCH   1   6
ATOM      3  C   UNL     1       4.058   5.046  18.842  0.00  0.00    +0.000 A 
ATOM      4  C   UNL     1       3.893   5.952  17.791  0.00  0.00    +0.000 A 
ATOM      5  C   UNL     1       4.981   6.658  17.271  0.00  0.00    +0.000 A 
ATOM      6  C   UNL     1       6.266   6.464  17.782  0.00  0.00    +0.000 A 
ATOM      7  C   UNL     1       6.447   5.556  18.832  0.00  0.00    +0.000 A 
ATOM      8  C   UNL     1       5.346   4.860  19.364  0.00  0.00    +0.000 A 
BRANCH   3  11
ATOM      9  C   UNL     1       2.018   4.882  20.251  0.00  0.00    +0.000 C 
ATOM     10  O   UNL     1       1.883   6.063  20.535  0.00  0.00    +0.000 OA
ATOM     11  N   UNL     1       2.980   4.336  19.422  0.00  0.00    +0.000 N 
ATOM     12  H   UNL     1       2.894   3.361  19.170  0.00  0.00    +0.000 HD
BRANCH   9  14
ATOM     13  C   UNL     1       1.546   2.813  21.463  0.00  0.00    +0.000 C 
ATOM     14  C   UNL     1       1.065   3.869  20.792  0.00  0.00    +0.000 C 
ENDBRANCH   9  14
ENDBRANCH   3  11
ENDBRANCH   1   6
BRANCH   1  15
ATOM     15  C   UNL     1       7.596   8.648  17.752  0.00  0.00    +0.000 C 
ATOM     16  C   UNL     1       8.790   8.954  18.285  0.00  0.00    +0.000 C 
BRANCH  16  17
ATOM     17  C   UNL     1       9.018  10.261  18.899  0.00  0.00    +0.000 A 
ATOM     18  C   UNL     1       8.963  10.392  20.291  0.00  0.00    +0.000 A 
ATOM     19  C   UNL     1       9.105  11.647  20.903  0.00  0.00    +0.000 A 
ATOM     20  C   UNL     1       8.942  11.756  22.393  0.00  0.00    +0.000 C 
ATOM     21  C   UNL     1       9.334  12.768  20.090  0.00  0.00    +0.000 A 
ATOM     22  C   UNL     1       9.383  12.657  18.693  0.00  0.00    +0.000 A 
ATOM     23  C   UNL     1       9.567  13.850  17.797  0.00  0.00    +0.000 C 
ATOM     24  C   UNL     1       9.224  11.393  18.107  0.00  0.00    +0.000 A 
BRANCH  21  25
ATOM     25  O   UNL     1       9.500  14.015  20.632  0.00  0.00    +0.000 OA
ATOM     26  H   UNL     1       9.653  13.932  21.585  0.00  0.00    +0.000 HD
ENDBRANCH  21  25
ENDBRANCH  16  17
ENDBRANCH   1  15
TORSDOF 6
ENDMDL
