MODEL 1
REMARK VINA RESULT:      -8.9      0.000      0.000
REMARK  Name = 
REMARK  5 active torsions:
REMARK  status: ('A' for Active; 'I' for Inactive)
REMARK    1  A    between atoms: N_3  and  C_4
REMARK    2  A    between atoms: N_11  and  C_12
REMARK    3  A    between atoms: C_16  and  C_17
REMARK    4  A    between atoms: C_21  and  N_22
REMARK    5  A    between atoms: N_22  and  C_23
REMARK                            x       y       z     vdW  Elec       q    Type
REMARK                         _______ _______ _______ _____ _____    ______ ____
ROOT
ATOM      1  C   UNL     1       0.910   9.316  20.527  0.00  0.00    +0.000 A 
ATOM      2  C   UNL     1       0.934   9.936  19.275  0.00  0.00    +0.000 A 
ATOM      3  C   UNL     1       1.569   9.338  18.195  0.00  0.00    +0.000 A 
ATOM      4  C   UNL     1       2.156   8.087  18.348  0.00  0.00    +0.000 A 
ATOM      5  C   UNL     1       2.087   7.388  19.569  0.00  0.00    +0.000 A 
ATOM      6  C   UNL     1       1.477   8.040  20.659  0.00  0.00    +0.000 A 
ENDROOT
BRANCH   1  10
ATOM      7  O   UNL     1      -0.983  11.500  20.643  0.00  0.00    +0.000 OA
ATOM      8  C   UNL     1      -0.559  10.969  21.664  0.00  0.00    +0.000 C 
ATOM      9  N   UNL     1      -0.888  11.393  22.943  0.00  0.00    +0.000 N 
ATOM     10  N   UNL     1       0.337   9.913  21.676  0.00  0.00    +0.000 N 
ATOM     11  H   UNL     1      -0.324  11.042  23.701  0.00  0.00    +0.000 HD
ATOM     12  H   UNL     1       0.712   9.623  22.565  0.00  0.00    +0.000 HD
BRANCH   9  13
ATOM     13  C   UNL     1      -1.725  12.500  23.230  0.00  0.00    +0.000 A 
ATOM     14  C   UNL     1      -1.239  13.801  23.397  0.00  0.00    +0.000 A 
ATOM     15  C   UNL     1      -2.082  14.841  23.796  0.00  0.00    +0.000 A 
ATOM     16  C   UNL     1      -3.436  14.580  24.004  0.00  0.00    +0.000 A 
ATOM     17 CL   UNL     1      -4.468  15.838  24.552  0.00  0.00    +0.000 Cl
ATOM     18  C   UNL     1      -3.945  13.301  23.786  0.00  0.00    +0.000 A 
ATOM     19  C   UNL     1      -3.095  12.263  23.389  0.00  0.00    +0.000 A 
ENDBRANCH   9  13
ENDBRANCH   1  10
BRANCH   5  20
ATOM     20  C   UNL     1       2.589   6.001  19.687  0.00  0.00    +0.000 A 
ATOM     21  C   UNL     1       2.066   5.130  20.645  0.00  0.00    +0.000 A 
ATOM     22  C   UNL     1       2.571   3.845  20.744  0.00  0.00    +0.000 A 
ATOM     23  C   UNL     1       3.586   3.464  19.882  0.00  0.00    +0.000 A 
ATOM     24  C   UNL     1       4.101   4.379  18.967  0.00  0.00    +0.000 A 
ATOM     25  N   UNL     1       3.617   5.637  18.869  0.00  0.00    +0.000 NA
BRANCH  24  26
ATOM     26  N   UNL     1       5.186   3.942  18.200  0.00  0.00    +0.000 N 
ATOM     27  H   UNL     1       5.094   2.951  18.000  0.00  0.00    +0.000 HD
BRANCH  26  28
ATOM     28  C   UNL     1       5.629   4.748  17.074  0.00  0.00    +0.000 C 
ATOM     29  C   UNL     1       7.126   4.539  16.840  0.00  0.00    +0.000 C 
ATOM     30  C   UNL     1       7.340   4.658  15.342  0.00  0.00    +0.000 C 
ATOM     31  C   UNL     1       6.020   4.283  14.687  0.00  0.00    +0.000 C 
ATOM     32  C   UNL     1       4.975   4.213  15.792  0.00  0.00    +0.000 C 
ENDBRANCH  26  28
ENDBRANCH  24  26
ENDBRANCH   5  20
TORSDOF 5
ENDMDL
MODEL 2
REMARK VINA RESULT:      -8.9      3.499      4.203
REMARK  Name = 
REMARK  5 active torsions:
REMARK  status: ('A' for Active; 'I' for Inactive)
REMARK    1  A    between atoms: N_3  and  C_4
REMARK    2  A    between atoms: N_11  and  C_12
REMARK    3  A    between atoms: C_16  and  C_17
REMARK    4  A    between atoms: C_21  and  N_22
REMARK    5  A    between atoms: N_22  and  C_23
REMARK                            x       y       z     vdW  Elec       q    Type
REMARK                         _______ _______ _______ _____ _____    ______ ____
ROOT
ATOM      1  C   UNL     1       1.602   9.052  19.237  0.00  0.00    +0.000 A 
ATOM      2  C   UNL     1       1.140   8.912  20.548  0.00  0.00    +0.000 A 
ATOM      3  C   UNL     1       1.162   7.677  21.183  0.00  0.00    +0.000 A 
ATOM      4  C   UNL     1       1.688   6.572  20.523  0.00  0.00    +0.000 A 
ATOM      5  C   UNL     1       2.239   6.682  19.232  0.00  0.00    +0.000 A 
ATOM      6  C   UNL     1       2.161   7.937  18.594  0.00  0.00    +0.000 A 
ENDROOT
BRANCH   1  10
ATOM      7  O   UNL     1       1.421  11.736  20.299  0.00  0.00    +0.000 OA
ATOM      8  C   UNL     1       1.440  11.529  19.091  0.00  0.00    +0.000 C 
ATOM      9  N   UNL     1       1.317  12.530  18.139  0.00  0.00    +0.000 N 
ATOM     10  N   UNL     1       1.538  10.271  18.520  0.00  0.00    +0.000 N 
ATOM     11  H   UNL     1       1.123  12.240  17.193  0.00  0.00    +0.000 HD
ATOM     12  H   UNL     1       1.430  10.198  17.521  0.00  0.00    +0.000 HD
BRANCH   9  13
ATOM     13  C   UNL     1       1.126  13.902  18.438  0.00  0.00    +0.000 A 
ATOM     14  C   UNL     1      -0.131  14.462  18.683  0.00  0.00    +0.000 A 
ATOM     15  C   UNL     1      -0.287  15.839  18.857  0.00  0.00    +0.000 A 
ATOM     16  C   UNL     1       0.836  16.664  18.811  0.00  0.00    +0.000 A 
ATOM     17 CL   UNL     1       0.647  18.363  18.963  0.00  0.00    +0.000 Cl
ATOM     18  C   UNL     1       2.103  16.114  18.624  0.00  0.00    +0.000 A 
ATOM     19  C   UNL     1       2.252  14.733  18.448  0.00  0.00    +0.000 A 
ENDBRANCH   9  13
ENDBRANCH   1  10
BRANCH   5  20
ATOM     20  C   UNL     1       2.923   5.537  18.591  0.00  0.00    +0.000 A 
ATOM     21  C   UNL     1       2.215   4.637  17.792  0.00  0.00    +0.000 A 
ATOM     22  C   UNL     1       2.880   3.565  17.223  0.00  0.00    +0.000 A 
ATOM     23  C   UNL     1       4.235   3.420  17.467  0.00  0.00    +0.000 A 
ATOM     24  C   UNL     1       4.892   4.323  18.301  0.00  0.00    +0.000 A 
ATOM     25  N   UNL     1       4.248   5.369  18.865  0.00  0.00    +0.000 NA
BRANCH  24  26
ATOM     26  N   UNL     1       6.237   4.049  18.570  0.00  0.00    +0.000 N 
ATOM     27  H   UNL     1       6.417   3.056  18.466  0.00  0.00    +0.000 HD
BRANCH  26  28
ATOM     28  C   UNL     1       7.262   4.913  18.006  0.00  0.00    +0.000 C 
ATOM     29  C   UNL     1       6.628   5.915  17.042  0.00  0.00    +0.000 C 
ATOM     30  C   UNL     1       7.450   7.186  17.154  0.00  0.00    +0.000 C 
ATOM     31  C   UNL     1       8.076   7.175  18.539  0.00  0.00    +0.000 C 
ATOM     32  C   UNL     1       7.844   5.789  19.124  0.00  0.00    +0.000 C 
ENDBRANCH  26  28
ENDBRANCH  24  26
ENDBRANCH   5  20
TORSDOF 5
ENDMDL
MODEL 3
REMARK VINA RESULT:      -8.9      2.232      3.911
REMARK  Name = 
REMARK  5 active torsions:
REMARK  status: ('A' for Active; 'I' for Inactive)
REMARK    1  A    between atoms: N_3  and  C_4
REMARK    2  A    between atoms: N_11  and  C_12
REMARK    3  A    between atoms: C_16  and  C_17
REMARK    4  A    between atoms: C_21  and  N_22
REMARK    5  A    between atoms: N_22  and  C_23
REMARK                            x       y       z     vdW  Elec       q    Type
REMARK                         _______ _______ _______ _____ _____    ______ ____
ROOT
ATOM      1  C   UNL     1       1.897   5.787  20.501  0.00  0.00    +0.000 A 
ATOM      2  C   UNL     1       1.233   4.577  20.282  0.00  0.00    +0.000 A 
ATOM      3  C   UNL     1       1.741   3.634  19.399  0.00  0.00    +0.000 A 
ATOM      4  C   UNL     1       2.948   3.876  18.752  0.00  0.00    +0.000 A 
ATOM      5  C   UNL     1       3.693   5.045  19.002  0.00  0.00    +0.000 A 
ATOM      6  C   UNL     1       3.130   6.004  19.867  0.00  0.00    +0.000 A 
ENDROOT
BRANCH   1  10
ATOM      7  O   UNL     1       1.137   8.478  19.761  0.00  0.00    +0.000 OA
ATOM      8  C   UNL     1       1.052   8.087  20.920  0.00  0.00    +0.000 C 
ATOM      9  N   UNL     1       0.653   8.896  21.975  0.00  0.00    +0.000 N 
ATOM     10  N   UNL     1       1.388   6.810  21.337  0.00  0.00    +0.000 N 
ATOM     11  H   UNL     1       0.827   8.551  22.906  0.00  0.00    +0.000 HD
ATOM     12  H   UNL     1       1.392   6.622  22.327  0.00  0.00    +0.000 HD
BRANCH   9  13
ATOM     13  C   UNL     1       0.324  10.269  21.853  0.00  0.00    +0.000 A 
ATOM     14  C   UNL     1       0.968  11.131  20.961  0.00  0.00    +0.000 A 
ATOM     15  C   UNL     1       0.694  12.502  20.957  0.00  0.00    +0.000 A 
ATOM     16  C   UNL     1      -0.257  13.009  21.840  0.00  0.00    +0.000 A 
ATOM     17 CL   UNL     1      -0.557  14.699  21.885  0.00  0.00    +0.000 Cl
ATOM     18  C   UNL     1      -0.949  12.153  22.696  0.00  0.00    +0.000 A 
ATOM     19  C   UNL     1      -0.668  10.782  22.696  0.00  0.00    +0.000 A 
ENDBRANCH   9  13
ENDBRANCH   1  10
BRANCH   5  20
ATOM     20  C   UNL     1       5.041   5.234  18.420  0.00  0.00    +0.000 A 
ATOM     21  C   UNL     1       6.164   5.354  19.241  0.00  0.00    +0.000 A 
ATOM     22  C   UNL     1       7.408   5.549  18.667  0.00  0.00    +0.000 A 
ATOM     23  C   UNL     1       7.497   5.620  17.286  0.00  0.00    +0.000 A 
ATOM     24  C   UNL     1       6.343   5.531  16.510  0.00  0.00    +0.000 A 
ATOM     25  N   UNL     1       5.125   5.346  17.064  0.00  0.00    +0.000 NA
BRANCH  24  26
ATOM     26  N   UNL     1       6.511   5.706  15.132  0.00  0.00    +0.000 N 
ATOM     27  H   UNL     1       7.057   6.543  14.952  0.00  0.00    +0.000 HD
BRANCH  26  28
ATOM     28  C   UNL     1       6.870   4.561  14.311  0.00  0.00    +0.000 C 
ATOM     29  C   UNL     1       5.607   3.901  13.756  0.00  0.00    +0.000 C 
ATOM     30  C   UNL     1       5.981   3.361  12.387  0.00  0.00    +0.000 C 
ATOM     31  C   UNL     1       7.137   4.211  11.887  0.00  0.00    +0.000 C 
ATOM     32  C   UNL     1       7.609   5.059  13.061  0.00  0.00    +0.000 C 
ENDBRANCH  26  28
ENDBRANCH  24  26
ENDBRANCH   5  20
TORSDOF 5
ENDMDL
MODEL 4
REMARK VINA RESULT:      -8.8      2.985      4.326
REMARK  Name = 
REMARK  5 active torsions:
REMARK  status: ('A' for Active; 'I' for Inactive)
REMARK    1  A    between atoms: N_3  and  C_4
REMARK    2  A    between atoms: N_11  and  C_12
REMARK    3  A    between atoms: C_16  and  C_17
REMARK    4  A    between atoms: C_21  and  N_22
REMARK    5  A    between atoms: N_22  and  C_23
REMARK                            x       y       z     vdW  Elec       q    Type
REMARK                         _______ _______ _______ _____ _____    ______ ____
ROOT
ATOM      1  C   UNL     1       2.003   6.215  20.508  0.00  0.00    +0.000 A 
ATOM      2  C   UNL     1       1.456   4.949  20.728  0.00  0.00    +0.000 A 
ATOM      3  C   UNL     1       2.031   3.816  20.166  0.00  0.00    +0.000 A 
ATOM      4  C   UNL     1       3.190   3.937  19.406  0.00  0.00    +0.000 A 
ATOM      5  C   UNL     1       3.822   5.183  19.224  0.00  0.00    +0.000 A 
ATOM      6  C   UNL     1       3.190   6.320  19.768  0.00  0.00    +0.000 A 
ENDROOT
BRANCH   1  10
ATOM      7  O   UNL     1       1.392   8.635  19.046  0.00  0.00    +0.000 OA
ATOM      8  C   UNL     1       1.160   8.540  20.246  0.00  0.00    +0.000 C 
ATOM      9  N   UNL     1       0.654   9.578  21.014  0.00  0.00    +0.000 N 
ATOM     10  N   UNL     1       1.418   7.407  21.000  0.00  0.00    +0.000 N 
ATOM     11  H   UNL     1       0.707   9.474  22.015  0.00  0.00    +0.000 HD
ATOM     12  H   UNL     1       1.299   7.468  21.998  0.00  0.00    +0.000 HD
BRANCH   9  13
ATOM     13  C   UNL     1       0.370  10.876  20.521  0.00  0.00    +0.000 A 
ATOM     14  C   UNL     1      -0.775  11.176  19.778  0.00  0.00    +0.000 A 
ATOM     15  C   UNL     1      -0.958  12.440  19.210  0.00  0.00    +0.000 A 
ATOM     16  C   UNL     1       0.008  13.424  19.414  0.00  0.00    +0.000 A 
ATOM     17 CL   UNL     1      -0.178  14.961  18.672  0.00  0.00    +0.000 Cl
ATOM     18  C   UNL     1       1.127  13.157  20.200  0.00  0.00    +0.000 A 
ATOM     19  C   UNL     1       1.305  11.888  20.764  0.00  0.00    +0.000 A 
ENDBRANCH   9  13
ENDBRANCH   1  10
BRANCH   5  20
ATOM     20  C   UNL     1       5.128   5.286  18.536  0.00  0.00    +0.000 A 
ATOM     21  C   UNL     1       6.318   5.340  19.264  0.00  0.00    +0.000 A 
ATOM     22  C   UNL     1       7.522   5.456  18.590  0.00  0.00    +0.000 A 
ATOM     23  C   UNL     1       7.504   5.517  17.207  0.00  0.00    +0.000 A 
ATOM     24  C   UNL     1       6.289   5.497  16.526  0.00  0.00    +0.000 A 
ATOM     25  N   UNL     1       5.110   5.389  17.176  0.00  0.00    +0.000 NA
BRANCH  24  26
ATOM     26  N   UNL     1       6.357   5.657  15.138  0.00  0.00    +0.000 N 
ATOM     27  H   UNL     1       6.800   6.542  14.911  0.00  0.00    +0.000 HD
BRANCH  26  28
ATOM     28  C   UNL     1       6.786   4.538  14.315  0.00  0.00    +0.000 C 
ATOM     29  C   UNL     1       5.571   3.868  13.671  0.00  0.00    +0.000 C 
ATOM     30  C   UNL     1       6.036   3.364  12.317  0.00  0.00    +0.000 C 
ATOM     31  C   UNL     1       7.203   4.247  11.905  0.00  0.00    +0.000 C 
ATOM     32  C   UNL     1       7.589   5.076  13.123  0.00  0.00    +0.000 C 
ENDBRANCH  26  28
ENDBRANCH  24  26
ENDBRANCH   5  20
TORSDOF 5
ENDMDL
MODEL 5
REMARK VINA RESULT:      -8.8      5.423      8.978
REMARK  Name = 
REMARK  5 active torsions:
REMARK  status: ('A' for Active; 'I' for Inactive)
REMARK    1  A    between atoms: N_3  and  C_4
REMARK    2  A    between atoms: N_11  and  C_12
REMARK    3  A    between atoms: C_16  and  C_17
REMARK    4  A    between atoms: C_21  and  N_22
REMARK    5  A    between atoms: N_22  and  C_23
REMARK                            x       y       z     vdW  Elec       q    Type
REMARK                         _______ _______ _______ _____ _____    ______ ____
ROOT
ATOM      1  C   UNL     1       7.205   6.403  17.636  0.00  0.00    +0.000 A 
ATOM      2  C   UNL     1       7.455   5.943  16.341  0.00  0.00    +0.000 A 
ATOM      3  C   UNL     1       6.570   5.081  15.706  0.00  0.00    +0.000 A 
ATOM      4  C   UNL     1       5.398   4.700  16.351  0.00  0.00    +0.000 A 
ATOM      5  C   UNL     1       5.065   5.202  17.624  0.00  0.00    +0.000 A 
ATOM      6  C   UNL     1       6.003   6.038  18.262  0.00  0.00    +0.000 A 
ENDROOT
BRANCH   1  10
ATOM      7  O   UNL     1       7.392   9.289  17.606  0.00  0.00    +0.000 OA
ATOM      8  C   UNL     1       8.152   8.608  18.286  0.00  0.00    +0.000 C 
ATOM      9  N   UNL     1       9.190   9.137  19.038  0.00  0.00    +0.000 N 
ATOM     10  N   UNL     1       8.107   7.225  18.353  0.00  0.00    +0.000 N 
ATOM     11  H   UNL     1       9.885   8.490  19.378  0.00  0.00    +0.000 HD
ATOM     12  H   UNL     1       8.846   6.753  18.849  0.00  0.00    +0.000 HD
BRANCH   9  13
ATOM     13  C   UNL     1       9.519  10.514  19.095  0.00  0.00    +0.000 A 
ATOM     14  C   UNL     1       9.305  11.304  20.228  0.00  0.00    +0.000 A 
ATOM     15  C   UNL     1       9.533  12.682  20.202  0.00  0.00    +0.000 A 
ATOM     16  C   UNL     1      10.009  13.272  19.031  0.00  0.00    +0.000 A 
ATOM     17 CL   UNL     1      10.236  14.973  18.970  0.00  0.00    +0.000 Cl
ATOM     18  C   UNL     1      10.282  12.489  17.911  0.00  0.00    +0.000 A 
ATOM     19  C   UNL     1      10.048  11.109  17.944  0.00  0.00    +0.000 A 
ENDBRANCH   9  13
ENDBRANCH   1  10
BRANCH   5  20
ATOM     20  C   UNL     1       3.754   4.906  18.245  0.00  0.00    +0.000 A 
ATOM     21  C   UNL     1       2.961   3.857  17.776  0.00  0.00    +0.000 A 
ATOM     22  C   UNL     1       1.732   3.618  18.365  0.00  0.00    +0.000 A 
ATOM     23  C   UNL     1       1.326   4.435  19.407  0.00  0.00    +0.000 A 
ATOM     24  C   UNL     1       2.135   5.492  19.817  0.00  0.00    +0.000 A 
ATOM     25  N   UNL     1       3.335   5.735  19.243  0.00  0.00    +0.000 NA
BRANCH  24  26
ATOM     26  N   UNL     1       1.609   6.323  20.811  0.00  0.00    +0.000 N 
ATOM     27  H   UNL     1       1.809   5.938  21.728  0.00  0.00    +0.000 HD
BRANCH  26  28
ATOM     28  C   UNL     1       1.795   7.762  20.704  0.00  0.00    +0.000 C 
ATOM     29  C   UNL     1       1.676   8.196  19.243  0.00  0.00    +0.000 C 
ATOM     30  C   UNL     1       1.059   9.583  19.265  0.00  0.00    +0.000 C 
ATOM     31  C   UNL     1       0.256   9.679  20.552  0.00  0.00    +0.000 C 
ATOM     32  C   UNL     1       0.622   8.467  21.399  0.00  0.00    +0.000 C 
ENDBRANCH  26  28
ENDBRANCH  24  26
ENDBRANCH   5  20
TORSDOF 5
ENDMDL
MODEL 6
REMARK VINA RESULT:      -8.8      5.510      9.302
REMARK  Name = 
REMARK  5 active torsions:
REMARK  status: ('A' for Active; 'I' for Inactive)
REMARK    1  A    between atoms: N_3  and  C_4
REMARK    2  A    between atoms: N_11  and  C_12
REMARK    3  A    between atoms: C_16  and  C_17
REMARK    4  A    between atoms: C_21  and  N_22
REMARK    5  A    between atoms: N_22  and  C_23
REMARK                            x       y       z     vdW  Elec       q    Type
REMARK                         _______ _______ _______ _____ _____    ______ ____
ROOT
ATOM      1  C   UNL     1       6.295   6.586  17.154  0.00  0.00    +0.000 A 
ATOM      2  C   UNL     1       6.717   5.548  16.319  0.00  0.00    +0.000 A 
ATOM      3  C   UNL     1       6.209   4.264  16.464  0.00  0.00    +0.000 A 
ATOM      4  C   UNL     1       5.236   4.013  17.426  0.00  0.00    +0.000 A 
ATOM      5  C   UNL     1       4.721   5.044  18.235  0.00  0.00    +0.000 A 
ATOM      6  C   UNL     1       5.289   6.327  18.097  0.00  0.00    +0.000 A 
ENDROOT
BRANCH   1  10
ATOM      7  O   UNL     1       8.551   7.654  18.613  0.00  0.00    +0.000 OA
ATOM      8  C   UNL     1       7.912   8.349  17.831  0.00  0.00    +0.000 C 
ATOM      9  N   UNL     1       8.161   9.697  17.621  0.00  0.00    +0.000 N 
ATOM     10  N   UNL     1       6.831   7.895  17.094  0.00  0.00    +0.000 N 
ATOM     11  H   UNL     1       7.452  10.223  17.136  0.00  0.00    +0.000 HD
ATOM     12  H   UNL     1       6.302   8.571  16.567  0.00  0.00    +0.000 HD
BRANCH   9  13
ATOM     13  C   UNL     1       9.158  10.443  18.298  0.00  0.00    +0.000 A 
ATOM     14  C   UNL     1       9.202  10.572  19.689  0.00  0.00    +0.000 A 
ATOM     15  C   UNL     1      10.130  11.413  20.308  0.00  0.00    +0.000 A 
ATOM     16  C   UNL     1      11.045  12.113  19.524  0.00  0.00    +0.000 A 
ATOM     17 CL   UNL     1      12.151  13.193  20.270  0.00  0.00    +0.000 Cl
ATOM     18  C   UNL     1      11.052  11.950  18.139  0.00  0.00    +0.000 A 
ATOM     19  C   UNL     1      10.117  11.108  17.526  0.00  0.00    +0.000 A 
ENDBRANCH   9  13
ENDBRANCH   1  10
BRANCH   5  20
ATOM     20  C   UNL     1       3.589   4.801  19.157  0.00  0.00    +0.000 A 
ATOM     21  C   UNL     1       3.223   3.501  19.513  0.00  0.00    +0.000 A 
ATOM     22  C   UNL     1       2.148   3.307  20.362  0.00  0.00    +0.000 A 
ATOM     23  C   UNL     1       1.465   4.416  20.832  0.00  0.00    +0.000 A 
ATOM     24  C   UNL     1       1.844   5.692  20.420  0.00  0.00    +0.000 A 
ATOM     25  N   UNL     1       2.890   5.889  19.587  0.00  0.00    +0.000 NA
BRANCH  24  26
ATOM     26  N   UNL     1       1.043   6.748  20.867  0.00  0.00    +0.000 N 
ATOM     27  H   UNL     1       0.572   6.488  21.727  0.00  0.00    +0.000 HD
BRANCH  26  28
ATOM     28  C   UNL     1       1.582   8.099  20.857  0.00  0.00    +0.000 C 
ATOM     29  C   UNL     1       1.142   8.826  19.586  0.00  0.00    +0.000 C 
ATOM     30  C   UNL     1       0.976  10.285  19.971  0.00  0.00    +0.000 C 
ATOM     31  C   UNL     1       0.673  10.307  21.461  0.00  0.00    +0.000 C 
ATOM     32  C   UNL     1       0.929   8.902  21.990  0.00  0.00    +0.000 C 
ENDBRANCH  26  28
ENDBRANCH  24  26
ENDBRANCH   5  20
TORSDOF 5
ENDMDL
MODEL 7
REMARK VINA RESULT:      -8.7      0.732      1.081
REMARK  Name = 
REMARK  5 active torsions:
REMARK  status: ('A' for Active; 'I' for Inactive)
REMARK    1  A    between atoms: N_3  and  C_4
REMARK    2  A    between atoms: N_11  and  C_12
REMARK    3  A    between atoms: C_16  and  C_17
REMARK    4  A    between atoms: C_21  and  N_22
REMARK    5  A    between atoms: N_22  and  C_23
REMARK                            x       y       z     vdW  Elec       q    Type
REMARK                         _______ _______ _______ _____ _____    ______ ____
ROOT
ATOM      1  C   UNL     1       1.053   9.068  20.462  0.00  0.00    +0.000 A 
ATOM      2  C   UNL     1       1.100   9.690  19.212  0.00  0.00    +0.000 A 
ATOM      3  C   UNL     1       1.750   9.089  18.141  0.00  0.00    +0.000 A 
ATOM      4  C   UNL     1       2.328   7.835  18.302  0.00  0.00    +0.000 A 
ATOM      5  C   UNL     1       2.235   7.135  19.521  0.00  0.00    +0.000 A 
ATOM      6  C   UNL     1       1.610   7.789  20.602  0.00  0.00    +0.000 A 
ENDROOT
BRANCH   1  10
ATOM      7  O   UNL     1      -0.806  11.283  20.552  0.00  0.00    +0.000 OA
ATOM      8  C   UNL     1      -0.413  10.738  21.578  0.00  0.00    +0.000 C 
ATOM      9  N   UNL     1      -0.764  11.159  22.852  0.00  0.00    +0.000 N 
ATOM     10  N   UNL     1       0.465   9.667  21.602  0.00  0.00    +0.000 N 
ATOM     11  H   UNL     1      -0.222  10.793  23.620  0.00  0.00    +0.000 HD
ATOM     12  H   UNL     1       0.815   9.365  22.497  0.00  0.00    +0.000 HD
BRANCH   9  13
ATOM     13  C   UNL     1      -1.588  12.278  23.129  0.00  0.00    +0.000 A 
ATOM     14  C   UNL     1      -1.110  13.592  23.148  0.00  0.00    +0.000 A 
ATOM     15  C   UNL     1      -1.929  14.653  23.541  0.00  0.00    +0.000 A 
ATOM     16  C   UNL     1      -3.253  14.398  23.894  0.00  0.00    +0.000 A 
ATOM     17 CL   UNL     1      -4.250  15.686  24.436  0.00  0.00    +0.000 Cl
ATOM     18  C   UNL     1      -3.760  13.101  23.825  0.00  0.00    +0.000 A 
ATOM     19  C   UNL     1      -2.933  12.042  23.433  0.00  0.00    +0.000 A 
ENDBRANCH   9  13
ENDBRANCH   1  10
BRANCH   5  20
ATOM     20  C   UNL     1       2.727   5.745  19.645  0.00  0.00    +0.000 A 
ATOM     21  C   UNL     1       1.936   4.756  20.234  0.00  0.00    +0.000 A 
ATOM     22  C   UNL     1       2.433   3.470  20.353  0.00  0.00    +0.000 A 
ATOM     23  C   UNL     1       3.708   3.205  19.882  0.00  0.00    +0.000 A 
ATOM     24  C   UNL     1       4.474   4.233  19.335  0.00  0.00    +0.000 A 
ATOM     25  N   UNL     1       3.998   5.492  19.220  0.00  0.00    +0.000 NA
BRANCH  24  26
ATOM     26  N   UNL     1       5.783   3.900  18.970  0.00  0.00    +0.000 N 
ATOM     27  H   UNL     1       5.939   2.906  19.103  0.00  0.00    +0.000 HD
BRANCH  26  28
ATOM     28  C   UNL     1       6.334   4.440  17.738  0.00  0.00    +0.000 C 
ATOM     29  C   UNL     1       5.239   4.537  16.675  0.00  0.00    +0.000 C 
ATOM     30  C   UNL     1       5.574   5.757  15.835  0.00  0.00    +0.000 C 
ATOM     31  C   UNL     1       6.384   6.685  16.725  0.00  0.00    +0.000 C 
ATOM     32  C   UNL     1       6.750   5.898  17.977  0.00  0.00    +0.000 C 
ENDBRANCH  26  28
ENDBRANCH  24  26
ENDBRANCH   5  20
TORSDOF 5
ENDMDL
MODEL 8
REMARK VINA RESULT:      -8.6      3.461      4.173
REMARK  Name = 
REMARK  5 active torsions:
REMARK  status: ('A' for Active; 'I' for Inactive)
REMARK    1  A    between atoms: N_3  and  C_4
REMARK    2  A    between atoms: N_11  and  C_12
REMARK    3  A    between atoms: C_16  and  C_17
REMARK    4  A    between atoms: C_21  and  N_22
REMARK    5  A    between atoms: N_22  and  C_23
REMARK                            x       y       z     vdW  Elec       q    Type
REMARK                         _______ _______ _______ _____ _____    ______ ____
ROOT
ATOM      1  C   UNL     1       1.350   9.449  19.052  0.00  0.00    +0.000 A 
ATOM      2  C   UNL     1       1.060   9.177  20.391  0.00  0.00    +0.000 A 
ATOM      3  C   UNL     1       1.312   7.924  20.935  0.00  0.00    +0.000 A 
ATOM      4  C   UNL     1       1.898   6.938  20.150  0.00  0.00    +0.000 A 
ATOM      5  C   UNL     1       2.282   7.191  18.818  0.00  0.00    +0.000 A 
ATOM      6  C   UNL     1       1.971   8.456  18.280  0.00  0.00    +0.000 A 
ENDROOT
BRANCH   1  10
ATOM      7  O   UNL     1       1.868  12.115  20.047  0.00  0.00    +0.000 OA
ATOM      8  C   UNL     1       1.315  11.934  18.968  0.00  0.00    +0.000 C 
ATOM      9  N   UNL     1       0.838  12.962  18.167  0.00  0.00    +0.000 N 
ATOM     10  N   UNL     1       1.049  10.685  18.430  0.00  0.00    +0.000 N 
ATOM     11  H   UNL     1       0.211  12.707  17.420  0.00  0.00    +0.000 HD
ATOM     12  H   UNL     1       0.489  10.641  17.594  0.00  0.00    +0.000 HD
BRANCH   9  13
ATOM     13  C   UNL     1       0.903  14.337  18.504  0.00  0.00    +0.000 A 
ATOM     14  C   UNL     1       2.094  15.069  18.494  0.00  0.00    +0.000 A 
ATOM     15  C   UNL     1       2.133  16.390  18.947  0.00  0.00    +0.000 A 
ATOM     16  C   UNL     1       0.957  16.994  19.391  0.00  0.00    +0.000 A 
ATOM     17 CL   UNL     1       1.006  18.596  20.005  0.00  0.00    +0.000 Cl
ATOM     18  C   UNL     1      -0.248  16.295  19.354  0.00  0.00    +0.000 A 
ATOM     19  C   UNL     1      -0.280  14.971  18.901  0.00  0.00    +0.000 A 
ENDBRANCH   9  13
ENDBRANCH   1  10
BRANCH   5  20
ATOM     20  C   UNL     1       3.031   6.185  18.033  0.00  0.00    +0.000 A 
ATOM     21  C   UNL     1       2.637   4.845  18.025  0.00  0.00    +0.000 A 
ATOM     22  C   UNL     1       3.371   3.926  17.296  0.00  0.00    +0.000 A 
ATOM     23  C   UNL     1       4.479   4.369  16.594  0.00  0.00    +0.000 A 
ATOM     24  C   UNL     1       4.855   5.709  16.661  0.00  0.00    +0.000 A 
ATOM     25  N   UNL     1       4.147   6.611  17.375  0.00  0.00    +0.000 NA
BRANCH  24  26
ATOM     26  N   UNL     1       6.038   6.052  15.999  0.00  0.00    +0.000 N 
ATOM     27  H   UNL     1       5.883   6.862  15.407  0.00  0.00    +0.000 HD
BRANCH  26  28
ATOM     28  C   UNL     1       7.286   6.077  16.746  0.00  0.00    +0.000 C 
ATOM     29  C   UNL     1       7.487   7.455  17.379  0.00  0.00    +0.000 C 
ATOM     30  C   UNL     1       8.212   7.213  18.691  0.00  0.00    +0.000 C 
ATOM     31  C   UNL     1       7.863   5.799  19.124  0.00  0.00    +0.000 C 
ATOM     32  C   UNL     1       7.166   5.130  17.947  0.00  0.00    +0.000 C 
ENDBRANCH  26  28
ENDBRANCH  24  26
ENDBRANCH   5  20
TORSDOF 5
ENDMDL
MODEL 9
REMARK VINA RESULT:      -8.6      3.102      4.326
REMARK  Name = 
REMARK  5 active torsions:
REMARK  status: ('A' for Active; 'I' for Inactive)
REMARK    1  A    between atoms: N_3  and  C_4
REMARK    2  A    between atoms: N_11  and  C_12
REMARK    3  A    between atoms: C_16  and  C_17
REMARK    4  A    between atoms: C_21  and  N_22
REMARK    5  A    between atoms: N_22  and  C_23
REMARK                            x       y       z     vdW  Elec       q    Type
REMARK                         _______ _______ _______ _____ _____    ______ ____
ROOT
ATOM      1  C   UNL     1       2.024   5.991  20.450  0.00  0.00    +0.000 A 
ATOM      2  C   UNL     1       1.366   4.789  20.722  0.00  0.00    +0.000 A 
ATOM      3  C   UNL     1       1.838   3.586  20.212  0.00  0.00    +0.000 A 
ATOM      4  C   UNL     1       3.002   3.570  19.452  0.00  0.00    +0.000 A 
ATOM      5  C   UNL     1       3.744   4.745  19.219  0.00  0.00    +0.000 A 
ATOM      6  C   UNL     1       3.216   5.956  19.710  0.00  0.00    +0.000 A 
ENDROOT
BRANCH   1  10
ATOM      7  O   UNL     1       1.551   8.364  18.866  0.00  0.00    +0.000 OA
ATOM      8  C   UNL     1       1.353   8.356  20.076  0.00  0.00    +0.000 C 
ATOM      9  N   UNL     1       0.953   9.472  20.795  0.00  0.00    +0.000 N 
ATOM     10  N   UNL     1       1.548   7.250  20.887  0.00  0.00    +0.000 N 
ATOM     11  H   UNL     1       1.032   9.421  21.799  0.00  0.00    +0.000 HD
ATOM     12  H   UNL     1       1.468   7.377  21.883  0.00  0.00    +0.000 HD
BRANCH   9  13
ATOM     13  C   UNL     1       0.752  10.758  20.235  0.00  0.00    +0.000 A 
ATOM     14  C   UNL     1       1.647  11.817  20.414  0.00  0.00    +0.000 A 
ATOM     15  C   UNL     1       1.352  13.099  19.945  0.00  0.00    +0.000 A 
ATOM     16  C   UNL     1       0.157  13.317  19.262  0.00  0.00    +0.000 A 
ATOM     17 CL   UNL     1      -0.242  14.901  18.733  0.00  0.00    +0.000 Cl
ATOM     18  C   UNL     1      -0.719  12.259  19.025  0.00  0.00    +0.000 A 
ATOM     19  C   UNL     1      -0.419  10.977  19.501  0.00  0.00    +0.000 A 
ENDBRANCH   9  13
ENDBRANCH   1  10
BRANCH   5  20
ATOM     20  C   UNL     1       5.053   4.701  18.532  0.00  0.00    +0.000 A 
ATOM     21  C   UNL     1       6.174   5.321  19.088  0.00  0.00    +0.000 A 
ATOM     22  C   UNL     1       7.380   5.278  18.410  0.00  0.00    +0.000 A 
ATOM     23  C   UNL     1       7.435   4.618  17.194  0.00  0.00    +0.000 A 
ATOM     24  C   UNL     1       6.281   4.046  16.662  0.00  0.00    +0.000 A 
ATOM     25  N   UNL     1       5.099   4.088  17.315  0.00  0.00    +0.000 NA
BRANCH  24  26
ATOM     26  N   UNL     1       6.404   3.481  15.388  0.00  0.00    +0.000 N 
ATOM     27  H   UNL     1       5.885   2.610  15.342  0.00  0.00    +0.000 HD
BRANCH  26  28
ATOM     28  C   UNL     1       6.260   4.333  14.218  0.00  0.00    +0.000 C 
ATOM     29  C   UNL     1       7.557   5.105  13.972  0.00  0.00    +0.000 C 
ATOM     30  C   UNL     1       7.675   5.263  12.467  0.00  0.00    +0.000 C 
ATOM     31  C   UNL     1       6.899   4.110  11.850  0.00  0.00    +0.000 C 
ATOM     32  C   UNL     1       6.113   3.448  12.973  0.00  0.00    +0.000 C 
ENDBRANCH  26  28
ENDBRANCH  24  26
ENDBRANCH   5  20
TORSDOF 5
ENDMDL
