MODEL 1
REMARK VINA RESULT:      -7.9      0.000      0.000
REMARK  Name = 
REMARK  4 active torsions:
REMARK  status: ('A' for Active; 'I' for Inactive)
REMARK    1  A    between atoms: C_1  and  O_2
REMARK    2  A    between atoms: O_2  and  C_3
REMARK    3  A    between atoms: N_9  and  S_10
REMARK    4  A    between atoms: S_10  and  C_13
REMARK                            x       y       z     vdW  Elec       q    Type
REMARK                         _______ _______ _______ _____ _____    ______ ____
ROOT
ATOM      1  C   UNL     1       6.151   4.036  14.179  0.00  0.00    +0.000 A 
ATOM      2  C   UNL     1       7.147   4.993  14.321  0.00  0.00    +0.000 A 
ATOM      3  C   UNL     1       7.349   5.585  15.564  0.00  0.00    +0.000 A 
ATOM      4  C   UNL     1       6.544   5.226  16.659  0.00  0.00    +0.000 A 
ATOM      5  C   UNL     1       5.504   4.288  16.531  0.00  0.00    +0.000 A 
ATOM      6  C   UNL     1       5.354   3.685  15.278  0.00  0.00    +0.000 A 
ATOM      7  N   UNL     1       4.770   3.875  17.725  0.00  0.00    +0.000 N 
ATOM      8  C   UNL     1       4.733   4.894  18.811  0.00  0.00    +0.000 C 
ATOM      9  C   UNL     1       6.145   5.295  19.177  0.00  0.00    +0.000 C 
ATOM     10  C   UNL     1       6.841   5.850  17.971  0.00  0.00    +0.000 C 
ATOM     11  O   UNL     1       7.676   6.745  18.065  0.00  0.00    +0.000 OA
ENDROOT
BRANCH   7  12
ATOM     12  S   UNL     1       3.367   2.879  17.651  0.00  0.00    +0.000 S 
ATOM     13  O   UNL     1       2.425   3.396  16.683  0.00  0.00    +0.000 OA
ATOM     14  O   UNL     1       3.816   1.504  17.544  0.00  0.00    +0.000 OA
BRANCH  12  15
ATOM     15  C   UNL     1       2.642   3.056  19.272  0.00  0.00    +0.000 A 
ATOM     16  C   UNL     1       1.462   3.785  19.449  0.00  0.00    +0.000 A 
ATOM     17  C   UNL     1       0.902   3.894  20.723  0.00  0.00    +0.000 A 
ATOM     18  C   UNL     1       1.498   3.248  21.806  0.00  0.00    +0.000 A 
ATOM     19  C   UNL     1       2.650   2.483  21.620  0.00  0.00    +0.000 A 
ATOM     20  C   UNL     1       3.222   2.380  20.353  0.00  0.00    +0.000 A 
ENDBRANCH  12  15
ENDBRANCH   7  12
BRANCH   1  22
ATOM     21  C   UNL     1       6.776   3.514  11.959  0.00  0.00    +0.000 C 
ATOM     22  O   UNL     1       5.828   3.397  13.014  0.00  0.00    +0.000 OA
ENDBRANCH   1  22
TORSDOF 3
ENDMDL
MODEL 2
REMARK VINA RESULT:      -7.8      0.073      1.035
REMARK  Name = 
REMARK  4 active torsions:
REMARK  status: ('A' for Active; 'I' for Inactive)
REMARK    1  A    between atoms: C_1  and  O_2
REMARK    2  A    between atoms: O_2  and  C_3
REMARK    3  A    between atoms: N_9  and  S_10
REMARK    4  A    between atoms: S_10  and  C_13
REMARK                            x       y       z     vdW  Elec       q    Type
REMARK                         _______ _______ _______ _____ _____    ______ ____
ROOT
ATOM      1  C   UNL     1       6.203   4.047  14.231  0.00  0.00    +0.000 A 
ATOM      2  C   UNL     1       7.194   5.007  14.400  0.00  0.00    +0.000 A 
ATOM      3  C   UNL     1       7.369   5.590  15.651  0.00  0.00    +0.000 A 
ATOM      4  C   UNL     1       6.545   5.219  16.727  0.00  0.00    +0.000 A 
ATOM      5  C   UNL     1       5.510   4.279  16.572  0.00  0.00    +0.000 A 
ATOM      6  C   UNL     1       5.386   3.685  15.312  0.00  0.00    +0.000 A 
ATOM      7  N   UNL     1       4.754   3.853  17.748  0.00  0.00    +0.000 N 
ATOM      8  C   UNL     1       4.693   4.864  18.841  0.00  0.00    +0.000 C 
ATOM      9  C   UNL     1       6.096   5.266  19.238  0.00  0.00    +0.000 C 
ATOM     10  C   UNL     1       6.814   5.833  18.050  0.00  0.00    +0.000 C 
ATOM     11  O   UNL     1       7.643   6.730  18.167  0.00  0.00    +0.000 OA
ENDROOT
BRANCH   7  12
ATOM     12  S   UNL     1       3.357   2.853  17.639  0.00  0.00    +0.000 S 
ATOM     13  O   UNL     1       2.425   3.384  16.669  0.00  0.00    +0.000 OA
ATOM     14  O   UNL     1       3.812   1.483  17.513  0.00  0.00    +0.000 OA
BRANCH  12  15
ATOM     15  C   UNL     1       2.611   2.999  19.254  0.00  0.00    +0.000 A 
ATOM     16  C   UNL     1       3.209   2.407  20.371  0.00  0.00    +0.000 A 
ATOM     17  C   UNL     1       2.620   2.551  21.627  0.00  0.00    +0.000 A 
ATOM     18  C   UNL     1       1.461   3.313  21.772  0.00  0.00    +0.000 A 
ATOM     19  C   UNL     1       0.891   3.942  20.665  0.00  0.00    +0.000 A 
ATOM     20  C   UNL     1       1.467   3.793  19.404  0.00  0.00    +0.000 A 
ENDBRANCH  12  15
ENDBRANCH   7  12
BRANCH   1  22
ATOM     21  C   UNL     1       6.817   3.636  11.985  0.00  0.00    +0.000 C 
ATOM     22  O   UNL     1       5.905   3.417  13.055  0.00  0.00    +0.000 OA
ENDBRANCH   1  22
TORSDOF 3
ENDMDL
MODEL 3
REMARK VINA RESULT:      -7.6      2.613      6.188
REMARK  Name = 
REMARK  4 active torsions:
REMARK  status: ('A' for Active; 'I' for Inactive)
REMARK    1  A    between atoms: C_1  and  O_2
REMARK    2  A    between atoms: O_2  and  C_3
REMARK    3  A    between atoms: N_9  and  S_10
REMARK    4  A    between atoms: S_10  and  C_13
REMARK                            x       y       z     vdW  Elec       q    Type
REMARK                         _______ _______ _______ _____ _____    ______ ____
ROOT
ATOM      1  C   UNL     1       2.308   7.021  19.562  0.00  0.00    +0.000 A 
ATOM      2  C   UNL     1       1.585   6.436  20.593  0.00  0.00    +0.000 A 
ATOM      3  C   UNL     1       1.784   5.089  20.884  0.00  0.00    +0.000 A 
ATOM      4  C   UNL     1       2.699   4.330  20.133  0.00  0.00    +0.000 A 
ATOM      5  C   UNL     1       3.414   4.891  19.059  0.00  0.00    +0.000 A 
ATOM      6  C   UNL     1       3.218   6.255  18.820  0.00  0.00    +0.000 A 
ATOM      7  N   UNL     1       4.428   4.085  18.384  0.00  0.00    +0.000 N 
ATOM      8  C   UNL     1       4.187   2.615  18.440  0.00  0.00    +0.000 C 
ATOM      9  C   UNL     1       4.048   2.180  19.882  0.00  0.00    +0.000 C 
ATOM     10  C   UNL     1       2.910   2.916  20.523  0.00  0.00    +0.000 C 
ATOM     11  O   UNL     1       2.213   2.393  21.389  0.00  0.00    +0.000 OA
ENDROOT
BRANCH   7  12
ATOM     12  S   UNL     1       5.225   4.610  16.950  0.00  0.00    +0.000 S 
ATOM     13  O   UNL     1       5.913   3.507  16.317  0.00  0.00    +0.000 OA
ATOM     14  O   UNL     1       4.271   5.388  16.184  0.00  0.00    +0.000 OA
BRANCH  12  15
ATOM     15  C   UNL     1       6.455   5.754  17.551  0.00  0.00    +0.000 A 
ATOM     16  C   UNL     1       6.620   7.005  16.947  0.00  0.00    +0.000 A 
ATOM     17  C   UNL     1       7.574   7.892  17.446  0.00  0.00    +0.000 A 
ATOM     18  C   UNL     1       8.334   7.546  18.563  0.00  0.00    +0.000 A 
ATOM     19  C   UNL     1       8.136   6.318  19.193  0.00  0.00    +0.000 A 
ATOM     20  C   UNL     1       7.193   5.420  18.693  0.00  0.00    +0.000 A 
ENDBRANCH  12  15
ENDBRANCH   7  12
BRANCH   1  22
ATOM     21  C   UNL     1       2.277   8.540  17.750  0.00  0.00    +0.000 C 
ATOM     22  O   UNL     1       2.192   8.321  19.153  0.00  0.00    +0.000 OA
ENDBRANCH   1  22
TORSDOF 3
ENDMDL
MODEL 4
REMARK VINA RESULT:      -7.6      2.667      6.299
REMARK  Name = 
REMARK  4 active torsions:
REMARK  status: ('A' for Active; 'I' for Inactive)
REMARK    1  A    between atoms: C_1  and  O_2
REMARK    2  A    between atoms: O_2  and  C_3
REMARK    3  A    between atoms: N_9  and  S_10
REMARK    4  A    between atoms: S_10  and  C_13
REMARK                            x       y       z     vdW  Elec       q    Type
REMARK                         _______ _______ _______ _____ _____    ______ ____
ROOT
ATOM      1  C   UNL     1       2.262   7.007  19.600  0.00  0.00    +0.000 A 
ATOM      2  C   UNL     1       1.534   6.398  20.614  0.00  0.00    +0.000 A 
ATOM      3  C   UNL     1       1.758   5.054  20.899  0.00  0.00    +0.000 A 
ATOM      4  C   UNL     1       2.702   4.321  20.158  0.00  0.00    +0.000 A 
ATOM      5  C   UNL     1       3.423   4.906  19.101  0.00  0.00    +0.000 A 
ATOM      6  C   UNL     1       3.200   6.267  18.868  0.00  0.00    +0.000 A 
ATOM      7  N   UNL     1       4.465   4.127  18.437  0.00  0.00    +0.000 N 
ATOM      8  C   UNL     1       4.256   2.653  18.478  0.00  0.00    +0.000 C 
ATOM      9  C   UNL     1       4.103   2.204  19.914  0.00  0.00    +0.000 C 
ATOM     10  C   UNL     1       2.938   2.909  20.542  0.00  0.00    +0.000 C 
ATOM     11  O   UNL     1       2.238   2.364  21.391  0.00  0.00    +0.000 OA
ENDROOT
BRANCH   7  12
ATOM     12  S   UNL     1       5.274   4.680  17.020  0.00  0.00    +0.000 S 
ATOM     13  O   UNL     1       6.002   3.599  16.395  0.00  0.00    +0.000 OA
ATOM     14  O   UNL     1       4.315   5.439  16.241  0.00  0.00    +0.000 OA
BRANCH  12  15
ATOM     15  C   UNL     1       6.464   5.852  17.649  0.00  0.00    +0.000 A 
ATOM     16  C   UNL     1       7.304   5.513  18.714  0.00  0.00    +0.000 A 
ATOM     17  C   UNL     1       8.241   6.437  19.177  0.00  0.00    +0.000 A 
ATOM     18  C   UNL     1       8.363   7.680  18.555  0.00  0.00    +0.000 A 
ATOM     19  C   UNL     1       7.556   8.000  17.463  0.00  0.00    +0.000 A 
ATOM     20  C   UNL     1       6.609   7.086  17.003  0.00  0.00    +0.000 A 
ENDBRANCH  12  15
ENDBRANCH   7  12
BRANCH   1  22
ATOM     21  C   UNL     1       2.355   8.558  17.817  0.00  0.00    +0.000 C 
ATOM     22  O   UNL     1       2.123   8.307  19.199  0.00  0.00    +0.000 OA
ENDBRANCH   1  22
TORSDOF 3
ENDMDL
MODEL 5
REMARK VINA RESULT:      -7.3      2.646      6.653
REMARK  Name = 
REMARK  4 active torsions:
REMARK  status: ('A' for Active; 'I' for Inactive)
REMARK    1  A    between atoms: C_1  and  O_2
REMARK    2  A    between atoms: O_2  and  C_3
REMARK    3  A    between atoms: N_9  and  S_10
REMARK    4  A    between atoms: S_10  and  C_13
REMARK                            x       y       z     vdW  Elec       q    Type
REMARK                         _______ _______ _______ _____ _____    ______ ____
ROOT
ATOM      1  C   UNL     1       1.970   6.665  20.124  0.00  0.00    +0.000 A 
ATOM      2  C   UNL     1       1.220   5.666  20.732  0.00  0.00    +0.000 A 
ATOM      3  C   UNL     1       1.369   4.349  20.306  0.00  0.00    +0.000 A 
ATOM      4  C   UNL     1       2.259   4.039  19.264  0.00  0.00    +0.000 A 
ATOM      5  C   UNL     1       3.000   5.038  18.606  0.00  0.00    +0.000 A 
ATOM      6  C   UNL     1       2.855   6.344  19.085  0.00  0.00    +0.000 A 
ATOM      7  N   UNL     1       3.988   4.646  17.604  0.00  0.00    +0.000 N 
ATOM      8  C   UNL     1       3.693   3.355  16.919  0.00  0.00    +0.000 C 
ATOM      9  C   UNL     1       3.531   2.261  17.950  0.00  0.00    +0.000 C 
ATOM     10  C   UNL     1       2.417   2.613  18.889  0.00  0.00    +0.000 C 
ATOM     11  O   UNL     1       1.697   1.751  19.385  0.00  0.00    +0.000 OA
ENDROOT
BRANCH   7  12
ATOM     12  S   UNL     1       4.810   5.792  16.615  0.00  0.00    +0.000 S 
ATOM     13  O   UNL     1       5.298   5.164  15.407  0.00  0.00    +0.000 OA
ATOM     14  O   UNL     1       3.966   6.966  16.517  0.00  0.00    +0.000 OA
BRANCH  12  15
ATOM     15  C   UNL     1       6.222   6.257  17.602  0.00  0.00    +0.000 A 
ATOM     16  C   UNL     1       6.695   5.413  18.612  0.00  0.00    +0.000 A 
ATOM     17  C   UNL     1       7.814   5.788  19.358  0.00  0.00    +0.000 A 
ATOM     18  C   UNL     1       8.476   6.981  19.072  0.00  0.00    +0.000 A 
ATOM     19  C   UNL     1       8.032   7.800  18.034  0.00  0.00    +0.000 A 
ATOM     20  C   UNL     1       6.908   7.438  17.292  0.00  0.00    +0.000 A 
ENDBRANCH  12  15
ENDBRANCH   7  12
BRANCH   1  22
ATOM     21  C   UNL     1       1.133   8.337  21.572  0.00  0.00    +0.000 C 
ATOM     22  O   UNL     1       1.903   7.997  20.424  0.00  0.00    +0.000 OA
ENDBRANCH   1  22
TORSDOF 3
ENDMDL
MODEL 6
REMARK VINA RESULT:      -7.3      2.647      6.595
REMARK  Name = 
REMARK  4 active torsions:
REMARK  status: ('A' for Active; 'I' for Inactive)
REMARK    1  A    between atoms: C_1  and  O_2
REMARK    2  A    between atoms: O_2  and  C_3
REMARK    3  A    between atoms: N_9  and  S_10
REMARK    4  A    between atoms: S_10  and  C_13
REMARK                            x       y       z     vdW  Elec       q    Type
REMARK                         _______ _______ _______ _____ _____    ______ ____
ROOT
ATOM      1  C   UNL     1       2.011   6.822  20.027  0.00  0.00    +0.000 A 
ATOM      2  C   UNL     1       1.283   5.836  20.682  0.00  0.00    +0.000 A 
ATOM      3  C   UNL     1       1.445   4.507  20.303  0.00  0.00    +0.000 A 
ATOM      4  C   UNL     1       2.327   4.169  19.262  0.00  0.00    +0.000 A 
ATOM      5  C   UNL     1       3.046   5.153  18.559  0.00  0.00    +0.000 A 
ATOM      6  C   UNL     1       2.888   6.474  18.990  0.00  0.00    +0.000 A 
ATOM      7  N   UNL     1       4.027   4.737  17.559  0.00  0.00    +0.000 N 
ATOM      8  C   UNL     1       3.743   3.418  16.927  0.00  0.00    +0.000 C 
ATOM      9  C   UNL     1       3.609   2.361  18.000  0.00  0.00    +0.000 C 
ATOM     10  C   UNL     1       2.501   2.733  18.939  0.00  0.00    +0.000 C 
ATOM     11  O   UNL     1       1.799   1.881  19.476  0.00  0.00    +0.000 OA
ENDROOT
BRANCH   7  12
ATOM     12  S   UNL     1       4.822   5.856  16.519  0.00  0.00    +0.000 S 
ATOM     13  O   UNL     1       5.268   5.198  15.310  0.00  0.00    +0.000 OA
ATOM     14  O   UNL     1       3.978   7.031  16.421  0.00  0.00    +0.000 OA
BRANCH  12  15
ATOM     15  C   UNL     1       6.267   6.338  17.449  0.00  0.00    +0.000 A 
ATOM     16  C   UNL     1       6.862   7.586  17.243  0.00  0.00    +0.000 A 
ATOM     17  C   UNL     1       7.980   7.950  17.995  0.00  0.00    +0.000 A 
ATOM     18  C   UNL     1       8.475   7.088  18.973  0.00  0.00    +0.000 A 
ATOM     19  C   UNL     1       7.852   5.863  19.210  0.00  0.00    +0.000 A 
ATOM     20  C   UNL     1       6.743   5.486  18.453  0.00  0.00    +0.000 A 
ENDBRANCH  12  15
ENDBRANCH   7  12
BRANCH   1  22
ATOM     21  C   UNL     1       1.243   8.531  21.469  0.00  0.00    +0.000 C 
ATOM     22  O   UNL     1       1.929   8.163  20.278  0.00  0.00    +0.000 OA
ENDBRANCH   1  22
TORSDOF 3
ENDMDL
MODEL 7
REMARK VINA RESULT:      -7.2      2.978      6.221
REMARK  Name = 
REMARK  4 active torsions:
REMARK  status: ('A' for Active; 'I' for Inactive)
REMARK    1  A    between atoms: C_1  and  O_2
REMARK    2  A    between atoms: O_2  and  C_3
REMARK    3  A    between atoms: N_9  and  S_10
REMARK    4  A    between atoms: S_10  and  C_13
REMARK                            x       y       z     vdW  Elec       q    Type
REMARK                         _______ _______ _______ _____ _____    ______ ____
ROOT
ATOM      1  C   UNL     1       2.814   4.136  20.232  0.00  0.00    +0.000 A 
ATOM      2  C   UNL     1       1.925   4.849  21.025  0.00  0.00    +0.000 A 
ATOM      3  C   UNL     1       1.596   6.155  20.673  0.00  0.00    +0.000 A 
ATOM      4  C   UNL     1       2.169   6.747  19.534  0.00  0.00    +0.000 A 
ATOM      5  C   UNL     1       3.101   6.058  18.737  0.00  0.00    +0.000 A 
ATOM      6  C   UNL     1       3.378   4.735  19.097  0.00  0.00    +0.000 A 
ATOM      7  N   UNL     1       3.581   6.682  17.506  0.00  0.00    +0.000 N 
ATOM      8  C   UNL     1       3.562   8.172  17.522  0.00  0.00    +0.000 C 
ATOM      9  C   UNL     1       2.165   8.656  17.843  0.00  0.00    +0.000 C 
ATOM     10  C   UNL     1       1.740   8.120  19.177  0.00  0.00    +0.000 C 
ATOM     11  O   UNL     1       1.010   8.764  19.926  0.00  0.00    +0.000 OA
ENDROOT
BRANCH   7  12
ATOM     12  S   UNL     1       4.853   6.008  16.561  0.00  0.00    +0.000 S 
ATOM     13  O   UNL     1       4.708   4.573  16.462  0.00  0.00    +0.000 OA
ATOM     14  O   UNL     1       4.960   6.799  15.350  0.00  0.00    +0.000 OA
BRANCH  12  15
ATOM     15  C   UNL     1       6.316   6.348  17.525  0.00  0.00    +0.000 A 
ATOM     16  C   UNL     1       7.015   7.547  17.361  0.00  0.00    +0.000 A 
ATOM     17  C   UNL     1       8.145   7.801  18.140  0.00  0.00    +0.000 A 
ATOM     18  C   UNL     1       8.551   6.878  19.103  0.00  0.00    +0.000 A 
ATOM     19  C   UNL     1       7.826   5.702  19.298  0.00  0.00    +0.000 A 
ATOM     20  C   UNL     1       6.704   5.436  18.515  0.00  0.00    +0.000 A 
ENDBRANCH  12  15
ENDBRANCH   7  12
BRANCH   1  22
ATOM     21  C   UNL     1       4.327   2.407  19.673  0.00  0.00    +0.000 C 
ATOM     22  O   UNL     1       3.243   2.860  20.475  0.00  0.00    +0.000 OA
ENDBRANCH   1  22
TORSDOF 3
ENDMDL
MODEL 8
REMARK VINA RESULT:      -7.0      2.935      6.273
REMARK  Name = 
REMARK  4 active torsions:
REMARK  status: ('A' for Active; 'I' for Inactive)
REMARK    1  A    between atoms: C_1  and  O_2
REMARK    2  A    between atoms: O_2  and  C_3
REMARK    3  A    between atoms: N_9  and  S_10
REMARK    4  A    between atoms: S_10  and  C_13
REMARK                            x       y       z     vdW  Elec       q    Type
REMARK                         _______ _______ _______ _____ _____    ______ ____
ROOT
ATOM      1  C   UNL     1       2.899   3.956  20.138  0.00  0.00    +0.000 A 
ATOM      2  C   UNL     1       1.991   4.589  20.978  0.00  0.00    +0.000 A 
ATOM      3  C   UNL     1       1.614   5.901  20.705  0.00  0.00    +0.000 A 
ATOM      4  C   UNL     1       2.156   6.579  19.599  0.00  0.00    +0.000 A 
ATOM      5  C   UNL     1       3.106   5.971  18.757  0.00  0.00    +0.000 A 
ATOM      6  C   UNL     1       3.433   4.641  19.038  0.00  0.00    +0.000 A 
ATOM      7  N   UNL     1       3.555   6.684  17.563  0.00  0.00    +0.000 N 
ATOM      8  C   UNL     1       3.482   8.168  17.666  0.00  0.00    +0.000 C 
ATOM      9  C   UNL     1       2.072   8.583  18.023  0.00  0.00    +0.000 C 
ATOM     10  C   UNL     1       1.677   7.954  19.326  0.00  0.00    +0.000 C 
ATOM     11  O   UNL     1       0.930   8.526  20.115  0.00  0.00    +0.000 OA
ENDROOT
BRANCH   7  12
ATOM     12  S   UNL     1       4.842   6.112  16.573  0.00  0.00    +0.000 S 
ATOM     13  O   UNL     1       4.744   4.681  16.385  0.00  0.00    +0.000 OA
ATOM     14  O   UNL     1       4.916   6.979  15.413  0.00  0.00    +0.000 OA
BRANCH  12  15
ATOM     15  C   UNL     1       6.299   6.439  17.550  0.00  0.00    +0.000 A 
ATOM     16  C   UNL     1       6.806   5.469  18.420  0.00  0.00    +0.000 A 
ATOM     17  C   UNL     1       7.958   5.739  19.160  0.00  0.00    +0.000 A 
ATOM     18  C   UNL     1       8.619   6.956  19.004  0.00  0.00    +0.000 A 
ATOM     19  C   UNL     1       8.140   7.905  18.101  0.00  0.00    +0.000 A 
ATOM     20  C   UNL     1       6.982   7.648  17.367  0.00  0.00    +0.000 A 
ENDBRANCH  12  15
ENDBRANCH   7  12
BRANCH   1  22
ATOM     21  C   UNL     1       3.775   2.012  19.116  0.00  0.00    +0.000 C 
ATOM     22  O   UNL     1       3.374   2.685  20.304  0.00  0.00    +0.000 OA
ENDBRANCH   1  22
TORSDOF 3
ENDMDL
MODEL 9
REMARK VINA RESULT:      -6.7      2.617      6.551
REMARK  Name = 
REMARK  4 active torsions:
REMARK  status: ('A' for Active; 'I' for Inactive)
REMARK    1  A    between atoms: C_1  and  O_2
REMARK    2  A    between atoms: O_2  and  C_3
REMARK    3  A    between atoms: N_9  and  S_10
REMARK    4  A    between atoms: S_10  and  C_13
REMARK                            x       y       z     vdW  Elec       q    Type
REMARK                         _______ _______ _______ _____ _____    ______ ____
ROOT
ATOM      1  C   UNL     1       2.107   4.866  20.950  0.00  0.00    +0.000 A 
ATOM      2  C   UNL     1       1.431   6.072  21.085  0.00  0.00    +0.000 A 
ATOM      3  C   UNL     1       1.661   7.087  20.161  0.00  0.00    +0.000 A 
ATOM      4  C   UNL     1       2.576   6.896  19.112  0.00  0.00    +0.000 A 
ATOM      5  C   UNL     1       3.301   5.697  18.977  0.00  0.00    +0.000 A 
ATOM      6  C   UNL     1       3.017   4.685  19.899  0.00  0.00    +0.000 A 
ATOM      7  N   UNL     1       4.157   5.514  17.807  0.00  0.00    +0.000 N 
ATOM      8  C   UNL     1       4.682   6.779  17.221  0.00  0.00    +0.000 C 
ATOM      9  C   UNL     1       3.528   7.698  16.886  0.00  0.00    +0.000 C 
ATOM     10  C   UNL     1       2.739   7.991  18.126  0.00  0.00    +0.000 C 
ATOM     11  O   UNL     1       2.191   9.076  18.299  0.00  0.00    +0.000 OA
ENDROOT
BRANCH   7  12
ATOM     12  S   UNL     1       5.222   4.170  17.641  0.00  0.00    +0.000 S 
ATOM     13  O   UNL     1       6.324   4.276  18.571  0.00  0.00    +0.000 OA
ATOM     14  O   UNL     1       4.408   2.970  17.633  0.00  0.00    +0.000 OA
BRANCH  12  15
ATOM     15  C   UNL     1       5.875   4.357  15.990  0.00  0.00    +0.000 A 
ATOM     16  C   UNL     1       7.126   4.946  15.782  0.00  0.00    +0.000 A 
ATOM     17  C   UNL     1       7.626   5.063  14.484  0.00  0.00    +0.000 A 
ATOM     18  C   UNL     1       6.897   4.562  13.406  0.00  0.00    +0.000 A 
ATOM     19  C   UNL     1       5.671   3.932  13.620  0.00  0.00    +0.000 A 
ATOM     20  C   UNL     1       5.158   3.823  14.912  0.00  0.00    +0.000 A 
ENDBRANCH  12  15
ENDBRANCH   7  12
BRANCH   1  22
ATOM     21  C   UNL     1       1.863   2.525  21.179  0.00  0.00    +0.000 C 
ATOM     22  O   UNL     1       1.997   3.799  21.798  0.00  0.00    +0.000 OA
ENDBRANCH   1  22
TORSDOF 3
ENDMDL
