MODEL 1
REMARK VINA RESULT:      -8.0      0.000      0.000
REMARK  Name = 
REMARK  1 active torsions:
REMARK  status: ('A' for Active; 'I' for Inactive)
REMARK    1  A    between atoms: C_6  and  C_7
REMARK                            x       y       z     vdW  Elec       q    Type
REMARK                         _______ _______ _______ _____ _____    ______ ____
ROOT
ATOM      1  C   UNL     1       5.277   5.018  15.787  0.00  0.00    +0.000 A 
ATOM      2  C   UNL     1       5.075   6.334  16.216  0.00  0.00    +0.000 A 
ATOM      3  C   UNL     1       4.414   6.596  17.415  0.00  0.00    +0.000 A 
ATOM      4  C   UNL     1       3.929   5.548  18.209  0.00  0.00    +0.000 A 
ATOM      5  C   UNL     1       3.246   5.800  19.408  0.00  0.00    +0.000 A 
ATOM      6  C   UNL     1       2.765   4.749  20.189  0.00  0.00    +0.000 A 
ATOM      7  C   UNL     1       2.973   3.433  19.785  0.00  0.00    +0.000 A 
ATOM      8  C   UNL     1       3.652   3.165  18.597  0.00  0.00    +0.000 A 
ATOM      9  C   UNL     1       4.132   4.213  17.793  0.00  0.00    +0.000 A 
ATOM     10  C   UNL     1       4.805   3.966  16.586  0.00  0.00    +0.000 A 
ENDROOT
BRANCH   1  16
ATOM     11  O   UNL     1       8.910   5.986  12.943  0.00  0.00    +0.000 OA
ATOM     12  C   UNL     1       7.897   5.342  13.175  0.00  0.00    +0.000 A 
ATOM     13  C   UNL     1       7.435   4.315  12.220  0.00  0.00    +0.000 A 
ATOM     14  C   UNL     1       6.332   3.599  12.458  0.00  0.00    +0.000 A 
ATOM     15  C   UNL     1       5.579   3.817  13.656  0.00  0.00    +0.000 A 
ATOM     16  C   UNL     1       5.990   4.745  14.532  0.00  0.00    +0.000 A 
ATOM     17  O   UNL     1       7.142   5.532  14.300  0.00  0.00    +0.000 OA
ENDBRANCH   1  16
TORSDOF 1
ENDMDL
MODEL 2
REMARK VINA RESULT:      -7.7      3.315      6.654
REMARK  Name = 
REMARK  1 active torsions:
REMARK  status: ('A' for Active; 'I' for Inactive)
REMARK    1  A    between atoms: C_6  and  C_7
REMARK                            x       y       z     vdW  Elec       q    Type
REMARK                         _______ _______ _______ _____ _____    ______ ____
ROOT
ATOM      1  C   UNL     1       4.118   4.008  18.135  0.00  0.00    +0.000 A 
ATOM      2  C   UNL     1       5.243   4.588  18.731  0.00  0.00    +0.000 A 
ATOM      3  C   UNL     1       6.338   4.970  17.957  0.00  0.00    +0.000 A 
ATOM      4  C   UNL     1       6.340   4.770  16.570  0.00  0.00    +0.000 A 
ATOM      5  C   UNL     1       7.443   5.133  15.784  0.00  0.00    +0.000 A 
ATOM      6  C   UNL     1       7.435   4.927  14.405  0.00  0.00    +0.000 A 
ATOM      7  C   UNL     1       6.318   4.366  13.794  0.00  0.00    +0.000 A 
ATOM      8  C   UNL     1       5.210   4.001  14.560  0.00  0.00    +0.000 A 
ATOM      9  C   UNL     1       5.208   4.192  15.952  0.00  0.00    +0.000 A 
ATOM     10  C   UNL     1       4.112   3.818  16.745  0.00  0.00    +0.000 A 
ENDROOT
BRANCH   1  16
ATOM     11  O   UNL     1       2.348   3.068  22.401  0.00  0.00    +0.000 OA
ATOM     12  C   UNL     1       2.187   3.170  21.194  0.00  0.00    +0.000 A 
ATOM     13  C   UNL     1       0.857   2.929  20.600  0.00  0.00    +0.000 A 
ATOM     14  C   UNL     1       0.661   3.038  19.282  0.00  0.00    +0.000 A 
ATOM     15  C   UNL     1       1.748   3.399  18.422  0.00  0.00    +0.000 A 
ATOM     16  C   UNL     1       2.959   3.623  18.951  0.00  0.00    +0.000 A 
ATOM     17  O   UNL     1       3.203   3.497  20.338  0.00  0.00    +0.000 OA
ENDBRANCH   1  16
TORSDOF 1
ENDMDL
MODEL 3
REMARK VINA RESULT:      -7.6      0.698      1.946
REMARK  Name = 
REMARK  1 active torsions:
REMARK  status: ('A' for Active; 'I' for Inactive)
REMARK    1  A    between atoms: C_6  and  C_7
REMARK                            x       y       z     vdW  Elec       q    Type
REMARK                         _______ _______ _______ _____ _____    ______ ____
ROOT
ATOM      1  C   UNL     1       5.241   4.769  15.757  0.00  0.00    +0.000 A 
ATOM      2  C   UNL     1       5.039   3.672  16.601  0.00  0.00    +0.000 A 
ATOM      3  C   UNL     1       4.306   3.809  17.780  0.00  0.00    +0.000 A 
ATOM      4  C   UNL     1       3.768   5.049  18.149  0.00  0.00    +0.000 A 
ATOM      5  C   UNL     1       3.045   5.202  19.340  0.00  0.00    +0.000 A 
ATOM      6  C   UNL     1       2.516   6.441  19.699  0.00  0.00    +0.000 A 
ATOM      7  C   UNL     1       2.693   7.540  18.863  0.00  0.00    +0.000 A 
ATOM      8  C   UNL     1       3.408   7.404  17.672  0.00  0.00    +0.000 A 
ATOM      9  C   UNL     1       3.957   6.164  17.303  0.00  0.00    +0.000 A 
ATOM     10  C   UNL     1       4.692   6.009  16.117  0.00  0.00    +0.000 A 
ENDROOT
BRANCH   1  16
ATOM     11  O   UNL     1       8.937   6.045  13.125  0.00  0.00    +0.000 OA
ATOM     12  C   UNL     1       7.932   5.364  13.268  0.00  0.00    +0.000 A 
ATOM     13  C   UNL     1       7.523   4.412  12.216  0.00  0.00    +0.000 A 
ATOM     14  C   UNL     1       6.429   3.658  12.357  0.00  0.00    +0.000 A 
ATOM     15  C   UNL     1       5.635   3.759  13.544  0.00  0.00    +0.000 A 
ATOM     16  C   UNL     1       5.998   4.617  14.508  0.00  0.00    +0.000 A 
ATOM     17  O   UNL     1       7.139   5.443  14.381  0.00  0.00    +0.000 OA
ENDBRANCH   1  16
TORSDOF 1
ENDMDL
MODEL 4
REMARK VINA RESULT:      -7.6      1.873      2.810
REMARK  Name = 
REMARK  1 active torsions:
REMARK  status: ('A' for Active; 'I' for Inactive)
REMARK    1  A    between atoms: C_6  and  C_7
REMARK                            x       y       z     vdW  Elec       q    Type
REMARK                         _______ _______ _______ _____ _____    ______ ____
ROOT
ATOM      1  C   UNL     1       3.940   4.100  17.502  0.00  0.00    +0.000 A 
ATOM      2  C   UNL     1       2.617   4.425  17.185  0.00  0.00    +0.000 A 
ATOM      3  C   UNL     1       1.589   4.185  18.096  0.00  0.00    +0.000 A 
ATOM      4  C   UNL     1       1.858   3.603  19.342  0.00  0.00    +0.000 A 
ATOM      5  C   UNL     1       0.831   3.341  20.259  0.00  0.00    +0.000 A 
ATOM      6  C   UNL     1       1.110   2.758  21.495  0.00  0.00    +0.000 A 
ATOM      7  C   UNL     1       2.423   2.444  21.834  0.00  0.00    +0.000 A 
ATOM      8  C   UNL     1       3.457   2.701  20.934  0.00  0.00    +0.000 A 
ATOM      9  C   UNL     1       3.191   3.276  19.680  0.00  0.00    +0.000 A 
ATOM     10  C   UNL     1       4.214   3.529  18.754  0.00  0.00    +0.000 A 
ENDROOT
BRANCH   1  16
ATOM     11  O   UNL     1       7.725   6.660  16.347  0.00  0.00    +0.000 OA
ATOM     12  C   UNL     1       6.944   5.758  16.082  0.00  0.00    +0.000 A 
ATOM     13  C   UNL     1       7.114   4.967  14.847  0.00  0.00    +0.000 A 
ATOM     14  C   UNL     1       6.271   3.975  14.543  0.00  0.00    +0.000 A 
ATOM     15  C   UNL     1       5.185   3.661  15.421  0.00  0.00    +0.000 A 
ATOM     16  C   UNL     1       5.022   4.370  16.547  0.00  0.00    +0.000 A 
ATOM     17  O   UNL     1       5.885   5.437  16.888  0.00  0.00    +0.000 OA
ENDBRANCH   1  16
TORSDOF 1
ENDMDL
MODEL 5
REMARK VINA RESULT:      -7.5      4.247      6.507
REMARK  Name = 
REMARK  1 active torsions:
REMARK  status: ('A' for Active; 'I' for Inactive)
REMARK    1  A    between atoms: C_6  and  C_7
REMARK                            x       y       z     vdW  Elec       q    Type
REMARK                         _______ _______ _______ _____ _____    ______ ____
ROOT
ATOM      1  C   UNL     1       3.714   4.863  18.593  0.00  0.00    +0.000 A 
ATOM      2  C   UNL     1       3.469   5.743  17.533  0.00  0.00    +0.000 A 
ATOM      3  C   UNL     1       4.470   6.600  17.076  0.00  0.00    +0.000 A 
ATOM      4  C   UNL     1       5.736   6.606  17.675  0.00  0.00    +0.000 A 
ATOM      5  C   UNL     1       6.744   7.476  17.236  0.00  0.00    +0.000 A 
ATOM      6  C   UNL     1       8.001   7.475  17.841  0.00  0.00    +0.000 A 
ATOM      7  C   UNL     1       8.267   6.594  18.886  0.00  0.00    +0.000 A 
ATOM      8  C   UNL     1       7.276   5.720  19.333  0.00  0.00    +0.000 A 
ATOM      9  C   UNL     1       6.002   5.717  18.741  0.00  0.00    +0.000 A 
ATOM     10  C   UNL     1       4.986   4.857  19.186  0.00  0.00    +0.000 A 
ENDROOT
BRANCH   1  16
ATOM     11  O   UNL     1       1.694   2.573  22.183  0.00  0.00    +0.000 OA
ATOM     12  C   UNL     1       1.729   2.838  20.990  0.00  0.00    +0.000 A 
ATOM     13  C   UNL     1       0.726   2.264  20.072  0.00  0.00    +0.000 A 
ATOM     14  C   UNL     1       0.748   2.544  18.765  0.00  0.00    +0.000 A 
ATOM     15  C   UNL     1       1.750   3.419  18.235  0.00  0.00    +0.000 A 
ATOM     16  C   UNL     1       2.664   3.949  19.060  0.00  0.00    +0.000 A 
ATOM     17  O   UNL     1       2.680   3.657  20.443  0.00  0.00    +0.000 OA
ENDBRANCH   1  16
TORSDOF 1
ENDMDL
MODEL 6
REMARK VINA RESULT:      -7.4      1.606      2.275
REMARK  Name = 
REMARK  1 active torsions:
REMARK  status: ('A' for Active; 'I' for Inactive)
REMARK    1  A    between atoms: C_6  and  C_7
REMARK                            x       y       z     vdW  Elec       q    Type
REMARK                         _______ _______ _______ _____ _____    ______ ____
ROOT
ATOM      1  C   UNL     1       4.493   4.772  16.967  0.00  0.00    +0.000 A 
ATOM      2  C   UNL     1       4.491   5.846  17.864  0.00  0.00    +0.000 A 
ATOM      3  C   UNL     1       3.588   5.881  18.926  0.00  0.00    +0.000 A 
ATOM      4  C   UNL     1       2.659   4.849  19.111  0.00  0.00    +0.000 A 
ATOM      5  C   UNL     1       1.735   4.882  20.166  0.00  0.00    +0.000 A 
ATOM      6  C   UNL     1       0.813   3.851  20.338  0.00  0.00    +0.000 A 
ATOM      7  C   UNL     1       0.812   2.766  19.466  0.00  0.00    +0.000 A 
ATOM      8  C   UNL     1       1.727   2.716  18.413  0.00  0.00    +0.000 A 
ATOM      9  C   UNL     1       2.654   3.754  18.219  0.00  0.00    +0.000 A 
ATOM     10  C   UNL     1       3.573   3.731  17.157  0.00  0.00    +0.000 A 
ENDROOT
BRANCH   1  16
ATOM     11  O   UNL     1       5.490   3.408  12.567  0.00  0.00    +0.000 OA
ATOM     12  C   UNL     1       5.831   3.972  13.597  0.00  0.00    +0.000 A 
ATOM     13  C   UNL     1       7.164   4.599  13.694  0.00  0.00    +0.000 A 
ATOM     14  C   UNL     1       7.552   5.222  14.811  0.00  0.00    +0.000 A 
ATOM     15  C   UNL     1       6.670   5.294  15.937  0.00  0.00    +0.000 A 
ATOM     16  C   UNL     1       5.456   4.730  15.859  0.00  0.00    +0.000 A 
ATOM     17  O   UNL     1       5.023   4.048  14.699  0.00  0.00    +0.000 OA
ENDBRANCH   1  16
TORSDOF 1
ENDMDL
MODEL 7
REMARK VINA RESULT:      -7.3      4.820      6.113
REMARK  Name = 
REMARK  1 active torsions:
REMARK  status: ('A' for Active; 'I' for Inactive)
REMARK    1  A    between atoms: C_6  and  C_7
REMARK                            x       y       z     vdW  Elec       q    Type
REMARK                         _______ _______ _______ _____ _____    ______ ____
ROOT
ATOM      1  C   UNL     1       2.282   5.675  19.312  0.00  0.00    +0.000 A 
ATOM      2  C   UNL     1       1.734   5.972  20.564  0.00  0.00    +0.000 A 
ATOM      3  C   UNL     1       1.325   7.270  20.869  0.00  0.00    +0.000 A 
ATOM      4  C   UNL     1       1.465   8.304  19.934  0.00  0.00    +0.000 A 
ATOM      5  C   UNL     1       1.073   9.616  20.236  0.00  0.00    +0.000 A 
ATOM      6  C   UNL     1       1.219  10.638  19.298  0.00  0.00    +0.000 A 
ATOM      7  C   UNL     1       1.748  10.356  18.041  0.00  0.00    +0.000 A 
ATOM      8  C   UNL     1       2.139   9.055  17.723  0.00  0.00    +0.000 A 
ATOM      9  C   UNL     1       2.009   8.018  18.662  0.00  0.00    +0.000 A 
ATOM     10  C   UNL     1       2.412   6.705  18.368  0.00  0.00    +0.000 A 
ENDROOT
BRANCH   1  16
ATOM     11  O   UNL     1       5.017   1.967  20.308  0.00  0.00    +0.000 OA
ATOM     12  C   UNL     1       4.154   2.482  19.611  0.00  0.00    +0.000 A 
ATOM     13  C   UNL     1       3.548   1.724  18.499  0.00  0.00    +0.000 A 
ATOM     14  C   UNL     1       2.601   2.269  17.729  0.00  0.00    +0.000 A 
ATOM     15  C   UNL     1       2.155   3.606  17.979  0.00  0.00    +0.000 A 
ATOM     16  C   UNL     1       2.696   4.303  18.987  0.00  0.00    +0.000 A 
ATOM     17  O   UNL     1       3.712   3.762  19.808  0.00  0.00    +0.000 OA
ENDBRANCH   1  16
TORSDOF 1
ENDMDL
MODEL 8
REMARK VINA RESULT:      -7.3      3.011      6.598
REMARK  Name = 
REMARK  1 active torsions:
REMARK  status: ('A' for Active; 'I' for Inactive)
REMARK    1  A    between atoms: C_6  and  C_7
REMARK                            x       y       z     vdW  Elec       q    Type
REMARK                         _______ _______ _______ _____ _____    ______ ____
ROOT
ATOM      1  C   UNL     1       4.225   4.438  18.009  0.00  0.00    +0.000 A 
ATOM      2  C   UNL     1       5.335   5.164  18.453  0.00  0.00    +0.000 A 
ATOM      3  C   UNL     1       6.390   5.447  17.587  0.00  0.00    +0.000 A 
ATOM      4  C   UNL     1       6.366   5.001  16.259  0.00  0.00    +0.000 A 
ATOM      5  C   UNL     1       7.430   5.264  15.384  0.00  0.00    +0.000 A 
ATOM      6  C   UNL     1       7.396   4.813  14.065  0.00  0.00    +0.000 A 
ATOM      7  C   UNL     1       6.291   4.105  13.601  0.00  0.00    +0.000 A 
ATOM      8  C   UNL     1       5.223   3.837  14.458  0.00  0.00    +0.000 A 
ATOM      9  C   UNL     1       5.248   4.274  15.793  0.00  0.00    +0.000 A 
ATOM     10  C   UNL     1       4.191   4.002  16.676  0.00  0.00    +0.000 A 
ENDROOT
BRANCH   1  16
ATOM     11  O   UNL     1       0.197   2.129  18.824  0.00  0.00    +0.000 OA
ATOM     12  C   UNL     1       1.057   2.911  19.202  0.00  0.00    +0.000 A 
ATOM     13  C   UNL     1       0.965   3.525  20.542  0.00  0.00    +0.000 A 
ATOM     14  C   UNL     1       1.897   4.381  20.973  0.00  0.00    +0.000 A 
ATOM     15  C   UNL     1       3.010   4.711  20.136  0.00  0.00    +0.000 A 
ATOM     16  C   UNL     1       3.106   4.157  18.919  0.00  0.00    +0.000 A 
ATOM     17  O   UNL     1       2.128   3.264  18.426  0.00  0.00    +0.000 OA
ENDBRANCH   1  16
TORSDOF 1
ENDMDL
MODEL 9
REMARK VINA RESULT:      -7.3      1.307      1.734
REMARK  Name = 
REMARK  1 active torsions:
REMARK  status: ('A' for Active; 'I' for Inactive)
REMARK    1  A    between atoms: C_6  and  C_7
REMARK                            x       y       z     vdW  Elec       q    Type
REMARK                         _______ _______ _______ _____ _____    ______ ____
ROOT
ATOM      1  C   UNL     1       5.323   4.980  15.650  0.00  0.00    +0.000 A 
ATOM      2  C   UNL     1       5.172   6.309  16.058  0.00  0.00    +0.000 A 
ATOM      3  C   UNL     1       4.549   6.614  17.268  0.00  0.00    +0.000 A 
ATOM      4  C   UNL     1       4.052   5.597  18.093  0.00  0.00    +0.000 A 
ATOM      5  C   UNL     1       3.408   5.892  19.303  0.00  0.00    +0.000 A 
ATOM      6  C   UNL     1       2.914   4.872  20.116  0.00  0.00    +0.000 A 
ATOM      7  C   UNL     1       3.070   3.543  19.733  0.00  0.00    +0.000 A 
ATOM      8  C   UNL     1       3.711   3.232  18.534  0.00  0.00    +0.000 A 
ATOM      9  C   UNL     1       4.203   4.249  17.699  0.00  0.00    +0.000 A 
ATOM     10  C   UNL     1       4.837   3.959  16.480  0.00  0.00    +0.000 A 
ENDROOT
BRANCH   1  16
ATOM     11  O   UNL     1       5.320   2.565  11.602  0.00  0.00    +0.000 OA
ATOM     12  C   UNL     1       5.863   3.365  12.350  0.00  0.00    +0.000 A 
ATOM     13  C   UNL     1       7.142   3.994  11.963  0.00  0.00    +0.000 A 
ATOM     14  C   UNL     1       7.748   4.873  12.767  0.00  0.00    +0.000 A 
ATOM     15  C   UNL     1       7.157   5.224  14.023  0.00  0.00    +0.000 A 
ATOM     16  C   UNL     1       5.995   4.662  14.384  0.00  0.00    +0.000 A 
ATOM     17  O   UNL     1       5.338   3.714  13.565  0.00  0.00    +0.000 OA
ENDBRANCH   1  16
TORSDOF 1
ENDMDL
