MODEL 1
REMARK VINA RESULT:      -6.5      0.000      0.000
REMARK  Name = 
REMARK  7 active torsions:
REMARK  status: ('A' for Active; 'I' for Inactive)
REMARK    1  A    between atoms: C_1  and  N_2
REMARK    2  A    between atoms: C_6  and  C_8
REMARK    3  A    between atoms: C_10  and  S_11
REMARK    4  A    between atoms: S_11  and  N_14
REMARK    5  A    between atoms: N_14  and  C_15
REMARK    6  A    between atoms: N_14  and  C_16
REMARK    7  A    between atoms: C_19  and  N_20
REMARK                            x       y       z     vdW  Elec       q    Type
REMARK                         _______ _______ _______ _____ _____    ______ ____
ROOT
ATOM      1  C   UNL     1       3.287   5.088  18.746  0.00  0.00    +0.000 A 
ATOM      2  C   UNL     1       4.621   5.425  18.496  0.00  0.00    +0.000 A 
ATOM      3  C   UNL     1       5.346   4.747  17.515  0.00  0.00    +0.000 A 
ATOM      4  C   UNL     1       4.796   3.645  16.863  0.00  0.00    +0.000 A 
ATOM      5  C   UNL     1       3.496   3.243  17.182  0.00  0.00    +0.000 A 
ATOM      6  C   UNL     1       2.728   3.944  18.131  0.00  0.00    +0.000 A 
ENDROOT
BRANCH   1  12
ATOM      7  C   UNL     1       1.688  11.334  18.698  0.00  0.00    +0.000 C 
ATOM      8  N   UNL     1       1.339   9.925  18.861  0.00  0.00    +0.000 NA
ATOM      9  C   UNL     1       1.647   9.458  20.232  0.00  0.00    +0.000 C 
ATOM     10  C   UNL     1       1.364   7.953  20.437  0.00  0.00    +0.000 C 
ATOM     11  N   UNL     1       1.984   7.137  19.390  0.00  0.00    +0.000 N 
ATOM     12  C   UNL     1       2.489   5.885  19.734  0.00  0.00    +0.000 C 
ATOM     13  O   UNL     1       2.352   5.408  20.862  0.00  0.00    +0.000 OA
ATOM     14  C   UNL     1       1.650   7.606  18.036  0.00  0.00    +0.000 C 
ATOM     15  C   UNL     1       2.049   9.086  17.873  0.00  0.00    +0.000 C 
ENDBRANCH   1  12
BRANCH   3  16
ATOM     16  S   UNL     1       6.857   5.482  16.929  0.00  0.00    +0.000 S 
ATOM     17  O   UNL     1       7.885   4.464  16.921  0.00  0.00    +0.000 OA
ATOM     18  O   UNL     1       6.523   6.209  15.723  0.00  0.00    +0.000 OA
BRANCH  16  19
ATOM     19  N   UNL     1       7.259   6.615  18.142  0.00  0.00    +0.000 NA
ATOM     20  C   UNL     1       8.112   6.084  19.229  0.00  0.00    +0.000 C 
ATOM     21  C   UNL     1       7.832   7.864  17.581  0.00  0.00    +0.000 C 
ENDBRANCH  16  19
ENDBRANCH   3  16
BRANCH   6  22
ATOM     22  N   UNL     1       1.359   3.618  18.239  0.00  0.00    +0.000 N 
ATOM     23  H   UNL     1       0.988   3.679  19.180  0.00  0.00    +0.000 HD
ATOM     24  H   UNL     1       0.797   4.162  17.573  0.00  0.00    +0.000 HD
ENDBRANCH   6  22
TORSDOF 4
ENDMDL
MODEL 2
REMARK VINA RESULT:      -6.3      0.938      1.239
REMARK  Name = 
REMARK  7 active torsions:
REMARK  status: ('A' for Active; 'I' for Inactive)
REMARK    1  A    between atoms: C_1  and  N_2
REMARK    2  A    between atoms: C_6  and  C_8
REMARK    3  A    between atoms: C_10  and  S_11
REMARK    4  A    between atoms: S_11  and  N_14
REMARK    5  A    between atoms: N_14  and  C_15
REMARK    6  A    between atoms: N_14  and  C_16
REMARK    7  A    between atoms: C_19  and  N_20
REMARK                            x       y       z     vdW  Elec       q    Type
REMARK                         _______ _______ _______ _____ _____    ______ ____
ROOT
ATOM      1  C   UNL     1       3.468   5.032  18.963  0.00  0.00    +0.000 A 
ATOM      2  C   UNL     1       4.854   5.198  19.053  0.00  0.00    +0.000 A 
ATOM      3  C   UNL     1       5.695   4.612  18.106  0.00  0.00    +0.000 A 
ATOM      4  C   UNL     1       5.180   3.752  17.137  0.00  0.00    +0.000 A 
ATOM      5  C   UNL     1       3.805   3.506  17.105  0.00  0.00    +0.000 A 
ATOM      6  C   UNL     1       2.932   4.127  18.019  0.00  0.00    +0.000 A 
ENDROOT
BRANCH   1  12
ATOM      7  C   UNL     1       1.507  11.173  19.042  0.00  0.00    +0.000 C 
ATOM      8  N   UNL     1       1.233   9.742  19.134  0.00  0.00    +0.000 NA
ATOM      9  C   UNL     1       1.488   9.239  20.503  0.00  0.00    +0.000 C 
ATOM     10  C   UNL     1       1.283   7.714  20.637  0.00  0.00    +0.000 C 
ATOM     11  N   UNL     1       2.011   6.976  19.601  0.00  0.00    +0.000 N 
ATOM     12  C   UNL     1       2.568   5.742  19.929  0.00  0.00    +0.000 C 
ATOM     13  O   UNL     1       2.394   5.214  21.030  0.00  0.00    +0.000 OA
ATOM     14  C   UNL     1       1.728   7.478  18.246  0.00  0.00    +0.000 C 
ATOM     15  C   UNL     1       2.048   8.984  18.160  0.00  0.00    +0.000 C 
ENDBRANCH   1  12
BRANCH   3  16
ATOM     16  S   UNL     1       7.371   5.199  17.994  0.00  0.00    +0.000 S 
ATOM     17  O   UNL     1       7.815   5.560  19.323  0.00  0.00    +0.000 OA
ATOM     18  O   UNL     1       8.099   4.227  17.207  0.00  0.00    +0.000 OA
BRANCH  16  19
ATOM     19  N   UNL     1       7.241   6.637  17.082  0.00  0.00    +0.000 NA
ATOM     20  C   UNL     1       5.882   6.930  16.574  0.00  0.00    +0.000 C 
ATOM     21  C   UNL     1       7.804   7.811  17.795  0.00  0.00    +0.000 C 
ENDBRANCH  16  19
ENDBRANCH   3  16
BRANCH   6  22
ATOM     22  N   UNL     1       1.544   4.004  17.789  0.00  0.00    +0.000 N 
ATOM     23  H   UNL     1       1.191   3.057  17.854  0.00  0.00    +0.000 HD
ATOM     24  H   UNL     1       1.014   4.649  18.388  0.00  0.00    +0.000 HD
ENDBRANCH   6  22
TORSDOF 4
ENDMDL
MODEL 3
REMARK VINA RESULT:      -6.2      1.110      1.328
REMARK  Name = 
REMARK  7 active torsions:
REMARK  status: ('A' for Active; 'I' for Inactive)
REMARK    1  A    between atoms: C_1  and  N_2
REMARK    2  A    between atoms: C_6  and  C_8
REMARK    3  A    between atoms: C_10  and  S_11
REMARK    4  A    between atoms: S_11  and  N_14
REMARK    5  A    between atoms: N_14  and  C_15
REMARK    6  A    between atoms: N_14  and  C_16
REMARK    7  A    between atoms: C_19  and  N_20
REMARK                            x       y       z     vdW  Elec       q    Type
REMARK                         _______ _______ _______ _____ _____    ______ ____
ROOT
ATOM      1  C   UNL     1       3.166   5.453  19.091  0.00  0.00    +0.000 A 
ATOM      2  C   UNL     1       4.529   5.539  19.392  0.00  0.00    +0.000 A 
ATOM      3  C   UNL     1       5.464   4.839  18.627  0.00  0.00    +0.000 A 
ATOM      4  C   UNL     1       5.045   3.949  17.639  0.00  0.00    +0.000 A 
ATOM      5  C   UNL     1       3.678   3.787  17.402  0.00  0.00    +0.000 A 
ATOM      6  C   UNL     1       2.720   4.522  18.126  0.00  0.00    +0.000 A 
ENDROOT
BRANCH   1  12
ATOM      7  C   UNL     1       1.807  11.740  18.640  0.00  0.00    +0.000 C 
ATOM      8  N   UNL     1       1.388  10.343  18.721  0.00  0.00    +0.000 NA
ATOM      9  C   UNL     1       1.348   9.883  20.128  0.00  0.00    +0.000 C 
ATOM     10  C   UNL     1       0.980   8.388  20.266  0.00  0.00    +0.000 C 
ATOM     11  N   UNL     1       1.808   7.544  19.400  0.00  0.00    +0.000 N 
ATOM     12  C   UNL     1       2.180   6.282  19.858  0.00  0.00    +0.000 C 
ATOM     13  O   UNL     1       1.765   5.822  20.924  0.00  0.00    +0.000 OA
ATOM     14  C   UNL     1       1.818   8.007  18.003  0.00  0.00    +0.000 C 
ATOM     15  C   UNL     1       2.287   9.474  17.933  0.00  0.00    +0.000 C 
ENDBRANCH   1  12
BRANCH   3  16
ATOM     16  S   UNL     1       7.174   5.312  18.753  0.00  0.00    +0.000 S 
ATOM     17  O   UNL     1       7.492   5.501  20.151  0.00  0.00    +0.000 OA
ATOM     18  O   UNL     1       7.923   4.376  17.942  0.00  0.00    +0.000 OA
BRANCH  16  19
ATOM     19  N   UNL     1       7.233   6.842  17.995  0.00  0.00    +0.000 NA
ATOM     20  C   UNL     1       8.327   7.723  18.461  0.00  0.00    +0.000 C 
ATOM     21  C   UNL     1       7.229   6.739  16.515  0.00  0.00    +0.000 C 
ENDBRANCH  16  19
ENDBRANCH   3  16
BRANCH   6  22
ATOM     22  N   UNL     1       1.380   4.471  17.685  0.00  0.00    +0.000 N 
ATOM     23  H   UNL     1       0.901   3.604  17.901  0.00  0.00    +0.000 HD
ATOM     24  H   UNL     1       0.853   5.289  18.012  0.00  0.00    +0.000 HD
ENDBRANCH   6  22
TORSDOF 4
ENDMDL
MODEL 4
REMARK VINA RESULT:      -6.2      1.303      1.623
REMARK  Name = 
REMARK  7 active torsions:
REMARK  status: ('A' for Active; 'I' for Inactive)
REMARK    1  A    between atoms: C_1  and  N_2
REMARK    2  A    between atoms: C_6  and  C_8
REMARK    3  A    between atoms: C_10  and  S_11
REMARK    4  A    between atoms: S_11  and  N_14
REMARK    5  A    between atoms: N_14  and  C_15
REMARK    6  A    between atoms: N_14  and  C_16
REMARK    7  A    between atoms: C_19  and  N_20
REMARK                            x       y       z     vdW  Elec       q    Type
REMARK                         _______ _______ _______ _____ _____    ______ ____
ROOT
ATOM      1  C   UNL     1       3.348   5.060  18.960  0.00  0.00    +0.000 A 
ATOM      2  C   UNL     1       4.689   5.407  18.762  0.00  0.00    +0.000 A 
ATOM      3  C   UNL     1       5.471   4.699  17.848  0.00  0.00    +0.000 A 
ATOM      4  C   UNL     1       4.967   3.563  17.216  0.00  0.00    +0.000 A 
ATOM      5  C   UNL     1       3.659   3.156  17.487  0.00  0.00    +0.000 A 
ATOM      6  C   UNL     1       2.835   3.884  18.366  0.00  0.00    +0.000 A 
ENDROOT
BRANCH   1  12
ATOM      7  C   UNL     1       1.736  11.293  18.612  0.00  0.00    +0.000 C 
ATOM      8  N   UNL     1       1.382   9.889  18.802  0.00  0.00    +0.000 NA
ATOM      9  C   UNL     1       1.612   9.468  20.203  0.00  0.00    +0.000 C 
ATOM     10  C   UNL     1       1.321   7.970  20.441  0.00  0.00    +0.000 C 
ATOM     11  N   UNL     1       2.004   7.123  19.460  0.00  0.00    +0.000 N 
ATOM     12  C   UNL     1       2.491   5.885  19.873  0.00  0.00    +0.000 C 
ATOM     13  O   UNL     1       2.291   5.445  21.007  0.00  0.00    +0.000 OA
ATOM     14  C   UNL     1       1.747   7.545  18.073  0.00  0.00    +0.000 C 
ATOM     15  C   UNL     1       2.151   9.021  17.884  0.00  0.00    +0.000 C 
ENDBRANCH   1  12
BRANCH   3  16
ATOM     16  S   UNL     1       6.999   5.432  17.307  0.00  0.00    +0.000 S 
ATOM     17  O   UNL     1       7.237   6.621  18.096  0.00  0.00    +0.000 OA
ATOM     18  O   UNL     1       7.976   4.365  17.260  0.00  0.00    +0.000 OA
BRANCH  16  19
ATOM     19  N   UNL     1       6.672   5.928  15.706  0.00  0.00    +0.000 NA
ATOM     20  C   UNL     1       6.951   4.909  14.670  0.00  0.00    +0.000 C 
ATOM     21  C   UNL     1       5.301   6.476  15.554  0.00  0.00    +0.000 C 
ENDBRANCH  16  19
ENDBRANCH   3  16
BRANCH   6  22
ATOM     22  N   UNL     1       1.467   3.543  18.421  0.00  0.00    +0.000 N 
ATOM     23  H   UNL     1       0.844   4.330  18.560  0.00  0.00    +0.000 HD
ATOM     24  H   UNL     1       1.194   2.983  17.604  0.00  0.00    +0.000 HD
ENDBRANCH   6  22
TORSDOF 4
ENDMDL
MODEL 5
REMARK VINA RESULT:      -6.0      1.006      1.205
REMARK  Name = 
REMARK  7 active torsions:
REMARK  status: ('A' for Active; 'I' for Inactive)
REMARK    1  A    between atoms: C_1  and  N_2
REMARK    2  A    between atoms: C_6  and  C_8
REMARK    3  A    between atoms: C_10  and  S_11
REMARK    4  A    between atoms: S_11  and  N_14
REMARK    5  A    between atoms: N_14  and  C_15
REMARK    6  A    between atoms: N_14  and  C_16
REMARK    7  A    between atoms: C_19  and  N_20
REMARK                            x       y       z     vdW  Elec       q    Type
REMARK                         _______ _______ _______ _____ _____    ______ ____
ROOT
ATOM      1  C   UNL     1       3.011   5.190  18.676  0.00  0.00    +0.000 A 
ATOM      2  C   UNL     1       4.146   5.653  18.002  0.00  0.00    +0.000 A 
ATOM      3  C   UNL     1       4.721   4.888  16.985  0.00  0.00    +0.000 A 
ATOM      4  C   UNL     1       4.252   3.603  16.715  0.00  0.00    +0.000 A 
ATOM      5  C   UNL     1       3.180   3.099  17.455  0.00  0.00    +0.000 A 
ATOM      6  C   UNL     1       2.553   3.872  18.450  0.00  0.00    +0.000 A 
ENDROOT
BRANCH   1  12
ATOM      7  C   UNL     1       1.834  11.528  18.586  0.00  0.00    +0.000 C 
ATOM      8  N   UNL     1       1.405  10.151  18.812  0.00  0.00    +0.000 NA
ATOM      9  C   UNL     1       1.786   9.692  20.167  0.00  0.00    +0.000 C 
ATOM     10  C   UNL     1       1.419   8.215  20.433  0.00  0.00    +0.000 C 
ATOM     11  N   UNL     1       1.902   7.336  19.364  0.00  0.00    +0.000 N 
ATOM     12  C   UNL     1       2.347   6.060  19.700  0.00  0.00    +0.000 C 
ATOM     13  O   UNL     1       2.265   5.617  20.848  0.00  0.00    +0.000 OA
ATOM     14  C   UNL     1       1.496   7.799  18.026  0.00  0.00    +0.000 C 
ATOM     15  C   UNL     1       1.979   9.244  17.795  0.00  0.00    +0.000 C 
ENDBRANCH   1  12
BRANCH   3  16
ATOM     16  S   UNL     1       5.859   5.687  15.876  0.00  0.00    +0.000 S 
ATOM     17  O   UNL     1       6.152   4.776  14.790  0.00  0.00    +0.000 OA
ATOM     18  O   UNL     1       5.326   7.006  15.613  0.00  0.00    +0.000 OA
BRANCH  16  19
ATOM     19  N   UNL     1       7.283   5.860  16.804  0.00  0.00    +0.000 NA
ATOM     20  C   UNL     1       7.438   7.177  17.463  0.00  0.00    +0.000 C 
ATOM     21  C   UNL     1       7.458   4.756  17.780  0.00  0.00    +0.000 C 
ENDBRANCH  16  19
ENDBRANCH   3  16
BRANCH   6  22
ATOM     22  N   UNL     1       1.347   3.385  18.999  0.00  0.00    +0.000 N 
ATOM     23  H   UNL     1       0.510   3.720  18.535  0.00  0.00    +0.000 HD
ATOM     24  H   UNL     1       1.360   2.361  19.066  0.00  0.00    +0.000 HD
ENDBRANCH   6  22
TORSDOF 4
ENDMDL
MODEL 6
REMARK VINA RESULT:      -6.0      1.560      1.746
REMARK  Name = 
REMARK  7 active torsions:
REMARK  status: ('A' for Active; 'I' for Inactive)
REMARK    1  A    between atoms: C_1  and  N_2
REMARK    2  A    between atoms: C_6  and  C_8
REMARK    3  A    between atoms: C_10  and  S_11
REMARK    4  A    between atoms: S_11  and  N_14
REMARK    5  A    between atoms: N_14  and  C_15
REMARK    6  A    between atoms: N_14  and  C_16
REMARK    7  A    between atoms: C_19  and  N_20
REMARK                            x       y       z     vdW  Elec       q    Type
REMARK                         _______ _______ _______ _____ _____    ______ ____
ROOT
ATOM      1  C   UNL     1       2.866   5.883  18.789  0.00  0.00    +0.000 A 
ATOM      2  C   UNL     1       4.037   6.407  18.232  0.00  0.00    +0.000 A 
ATOM      3  C   UNL     1       4.742   5.685  17.267  0.00  0.00    +0.000 A 
ATOM      4  C   UNL     1       4.363   4.384  16.940  0.00  0.00    +0.000 A 
ATOM      5  C   UNL     1       3.250   3.820  17.569  0.00  0.00    +0.000 A 
ATOM      6  C   UNL     1       2.495   4.548  18.506  0.00  0.00    +0.000 A 
ENDROOT
BRANCH   1  12
ATOM      7  C   UNL     1       1.706  12.224  18.849  0.00  0.00    +0.000 C 
ATOM      8  N   UNL     1       1.252  10.840  18.946  0.00  0.00    +0.000 NA
ATOM      9  C   UNL     1       1.443  10.314  20.317  0.00  0.00    +0.000 C 
ATOM     10  C   UNL     1       1.044   8.827  20.456  0.00  0.00    +0.000 C 
ATOM     11  N   UNL     1       1.670   7.999  19.422  0.00  0.00    +0.000 N 
ATOM     12  C   UNL     1       2.066   6.705  19.754  0.00  0.00    +0.000 C 
ATOM     13  O   UNL     1       1.828   6.208  20.856  0.00  0.00    +0.000 OA
ATOM     14  C   UNL     1       1.452   8.529  18.066  0.00  0.00    +0.000 C 
ATOM     15  C   UNL     1       1.961   9.981  17.974  0.00  0.00    +0.000 C 
ENDBRANCH   1  12
BRANCH   3  16
ATOM     16  S   UNL     1       5.942   6.552  16.281  0.00  0.00    +0.000 S 
ATOM     17  O   UNL     1       5.357   6.823  14.986  0.00  0.00    +0.000 OA
ATOM     18  O   UNL     1       6.454   7.628  17.103  0.00  0.00    +0.000 OA
BRANCH  16  19
ATOM     19  N   UNL     1       7.192   5.409  16.057  0.00  0.00    +0.000 NA
ATOM     20  C   UNL     1       7.507   4.591  17.250  0.00  0.00    +0.000 C 
ATOM     21  C   UNL     1       6.963   4.548  14.870  0.00  0.00    +0.000 C 
ENDBRANCH  16  19
ENDBRANCH   3  16
BRANCH   6  22
ATOM     22  N   UNL     1       1.266   3.998  18.932  0.00  0.00    +0.000 N 
ATOM     23  H   UNL     1       0.495   4.655  18.942  0.00  0.00    +0.000 HD
ATOM     24  H   UNL     1       1.038   3.151  18.398  0.00  0.00    +0.000 HD
ENDBRANCH   6  22
TORSDOF 4
ENDMDL
MODEL 7
REMARK VINA RESULT:      -5.8      1.685      2.093
REMARK  Name = 
REMARK  7 active torsions:
REMARK  status: ('A' for Active; 'I' for Inactive)
REMARK    1  A    between atoms: C_1  and  N_2
REMARK    2  A    between atoms: C_6  and  C_8
REMARK    3  A    between atoms: C_10  and  S_11
REMARK    4  A    between atoms: S_11  and  N_14
REMARK    5  A    between atoms: N_14  and  C_15
REMARK    6  A    between atoms: N_14  and  C_16
REMARK    7  A    between atoms: C_19  and  N_20
REMARK                            x       y       z     vdW  Elec       q    Type
REMARK                         _______ _______ _______ _____ _____    ______ ____
ROOT
ATOM      1  C   UNL     1       2.572   6.194  19.287  0.00  0.00    +0.000 A 
ATOM      2  C   UNL     1       3.749   6.580  18.636  0.00  0.00    +0.000 A 
ATOM      3  C   UNL     1       4.455   5.662  17.857  0.00  0.00    +0.000 A 
ATOM      4  C   UNL     1       4.071   4.323  17.820  0.00  0.00    +0.000 A 
ATOM      5  C   UNL     1       2.952   3.913  18.549  0.00  0.00    +0.000 A 
ATOM      6  C   UNL     1       2.195   4.832  19.300  0.00  0.00    +0.000 A 
ENDROOT
BRANCH   1  12
ATOM      7  C   UNL     1       2.046  12.556  18.382  0.00  0.00    +0.000 C 
ATOM      8  N   UNL     1       1.450  11.243  18.612  0.00  0.00    +0.000 NA
ATOM      9  C   UNL     1       1.458  10.902  20.053  0.00  0.00    +0.000 C 
ATOM     10  C   UNL     1       0.903   9.490  20.345  0.00  0.00    +0.000 C 
ATOM     11  N   UNL     1       1.538   8.474  19.502  0.00  0.00    +0.000 N 
ATOM     12  C   UNL     1       1.771   7.211  20.043  0.00  0.00    +0.000 C 
ATOM     13  O   UNL     1       1.382   6.897  21.170  0.00  0.00    +0.000 OA
ATOM     14  C   UNL     1       1.501   8.822  18.073  0.00  0.00    +0.000 C 
ATOM     15  C   UNL     1       2.158  10.197  17.844  0.00  0.00    +0.000 C 
ENDBRANCH   1  12
BRANCH   3  16
ATOM     16  S   UNL     1       5.666   6.288  16.713  0.00  0.00    +0.000 S 
ATOM     17  O   UNL     1       4.972   6.788  15.546  0.00  0.00    +0.000 OA
ATOM     18  O   UNL     1       6.550   7.145  17.474  0.00  0.00    +0.000 OA
BRANCH  16  19
ATOM     19  N   UNL     1       6.541   4.899  16.242  0.00  0.00    +0.000 NA
ATOM     20  C   UNL     1       7.044   4.925  14.849  0.00  0.00    +0.000 C 
ATOM     21  C   UNL     1       7.632   4.570  17.192  0.00  0.00    +0.000 C 
ENDBRANCH  16  19
ENDBRANCH   3  16
BRANCH   6  22
ATOM     22  N   UNL     1       0.962   4.392  19.827  0.00  0.00    +0.000 N 
ATOM     23  H   UNL     1       0.424   3.805  19.200  0.00  0.00    +0.000 HD
ATOM     24  H   UNL     1       1.090   3.951  20.745  0.00  0.00    +0.000 HD
ENDBRANCH   6  22
TORSDOF 4
ENDMDL
MODEL 8
REMARK VINA RESULT:      -5.7      2.799      4.507
REMARK  Name = 
REMARK  7 active torsions:
REMARK  status: ('A' for Active; 'I' for Inactive)
REMARK    1  A    between atoms: C_1  and  N_2
REMARK    2  A    between atoms: C_6  and  C_8
REMARK    3  A    between atoms: C_10  and  S_11
REMARK    4  A    between atoms: S_11  and  N_14
REMARK    5  A    between atoms: N_14  and  C_15
REMARK    6  A    between atoms: N_14  and  C_16
REMARK    7  A    between atoms: C_19  and  N_20
REMARK                            x       y       z     vdW  Elec       q    Type
REMARK                         _______ _______ _______ _____ _____    ______ ____
ROOT
ATOM      1  C   UNL     1       3.335   6.305  17.536  0.00  0.00    +0.000 A 
ATOM      2  C   UNL     1       2.541   5.216  17.911  0.00  0.00    +0.000 A 
ATOM      3  C   UNL     1       3.029   3.914  17.784  0.00  0.00    +0.000 A 
ATOM      4  C   UNL     1       4.256   3.675  17.167  0.00  0.00    +0.000 A 
ATOM      5  C   UNL     1       5.008   4.757  16.701  0.00  0.00    +0.000 A 
ATOM      6  C   UNL     1       4.559   6.081  16.865  0.00  0.00    +0.000 A 
ENDROOT
BRANCH   1  12
ATOM      7  C   UNL     1      -0.663   8.593  22.047  0.00  0.00    +0.000 C 
ATOM      8  N   UNL     1       0.576   8.670  21.278  0.00  0.00    +0.000 NA
ATOM      9  C   UNL     1       0.350   9.330  19.972  0.00  0.00    +0.000 C 
ATOM     10  C   UNL     1       1.616   9.372  19.087  0.00  0.00    +0.000 C 
ATOM     11  N   UNL     1       2.241   8.052  18.972  0.00  0.00    +0.000 N 
ATOM     12  C   UNL     1       2.839   7.702  17.764  0.00  0.00    +0.000 C 
ATOM     13  O   UNL     1       2.936   8.494  16.824  0.00  0.00    +0.000 OA
ATOM     14  C   UNL     1       2.475   7.422  20.282  0.00  0.00    +0.000 C 
ATOM     15  C   UNL     1       1.153   7.325  21.068  0.00  0.00    +0.000 C 
ENDBRANCH   1  12
BRANCH   3  16
ATOM     16  S   UNL     1       2.192   2.615  18.665  0.00  0.00    +0.000 S 
ATOM     17  O   UNL     1       0.781   2.692  18.355  0.00  0.00    +0.000 OA
ATOM     18  O   UNL     1       2.940   1.400  18.421  0.00  0.00    +0.000 OA
BRANCH  16  19
ATOM     19  N   UNL     1       2.386   3.042  20.308  0.00  0.00    +0.000 NA
ATOM     20  C   UNL     1       1.192   2.817  21.153  0.00  0.00    +0.000 C 
ATOM     21  C   UNL     1       3.589   2.419  20.914  0.00  0.00    +0.000 C 
ENDBRANCH  16  19
ENDBRANCH   3  16
BRANCH   6  22
ATOM     22  N   UNL     1       5.464   7.123  16.572  0.00  0.00    +0.000 N 
ATOM     23  H   UNL     1       5.866   7.571  17.387  0.00  0.00    +0.000 HD
ATOM     24  H   UNL     1       6.188   6.809  15.915  0.00  0.00    +0.000 HD
ENDBRANCH   6  22
TORSDOF 4
ENDMDL
MODEL 9
REMARK VINA RESULT:      -5.6      2.984      5.424
REMARK  Name = 
REMARK  7 active torsions:
REMARK  status: ('A' for Active; 'I' for Inactive)
REMARK    1  A    between atoms: C_1  and  N_2
REMARK    2  A    between atoms: C_6  and  C_8
REMARK    3  A    between atoms: C_10  and  S_11
REMARK    4  A    between atoms: S_11  and  N_14
REMARK    5  A    between atoms: N_14  and  C_15
REMARK    6  A    between atoms: N_14  and  C_16
REMARK    7  A    between atoms: C_19  and  N_20
REMARK                            x       y       z     vdW  Elec       q    Type
REMARK                         _______ _______ _______ _____ _____    ______ ____
ROOT
ATOM      1  C   UNL     1       0.671   9.643  19.426  0.00  0.00    +0.000 A 
ATOM      2  C   UNL     1       1.582   8.829  18.744  0.00  0.00    +0.000 A 
ATOM      3  C   UNL     1       2.151   7.724  19.380  0.00  0.00    +0.000 A 
ATOM      4  C   UNL     1       1.921   7.492  20.735  0.00  0.00    +0.000 A 
ATOM      5  C   UNL     1       1.090   8.361  21.445  0.00  0.00    +0.000 A 
ATOM      6  C   UNL     1       0.464   9.452  20.811  0.00  0.00    +0.000 A 
ENDROOT
BRANCH   1  12
ATOM      7  C   UNL     1       1.513  16.011  19.983  0.00  0.00    +0.000 C 
ATOM      8  N   UNL     1       1.377  14.805  19.171  0.00  0.00    +0.000 NA
ATOM      9  C   UNL     1      -0.048  14.466  18.960  0.00  0.00    +0.000 C 
ATOM     10  C   UNL     1      -0.248  13.155  18.166  0.00  0.00    +0.000 C 
ATOM     11  N   UNL     1       0.534  12.054  18.733  0.00  0.00    +0.000 N 
ATOM     12  C   UNL     1      -0.006  10.770  18.706  0.00  0.00    +0.000 C 
ATOM     13  O   UNL     1      -1.075  10.519  18.145  0.00  0.00    +0.000 OA
ATOM     14  C   UNL     1       1.952  12.404  18.917  0.00  0.00    +0.000 C 
ATOM     15  C   UNL     1       2.078  13.663  19.797  0.00  0.00    +0.000 C 
ENDBRANCH   1  12
BRANCH   3  16
ATOM     16  S   UNL     1       2.936   6.487  18.370  0.00  0.00    +0.000 S 
ATOM     17  O   UNL     1       1.907   5.633  17.817  0.00  0.00    +0.000 OA
ATOM     18  O   UNL     1       3.864   7.185  17.507  0.00  0.00    +0.000 OA
BRANCH  16  19
ATOM     19  N   UNL     1       3.837   5.559  19.485  0.00  0.00    +0.000 NA
ATOM     20  C   UNL     1       3.262   4.230  19.794  0.00  0.00    +0.000 C 
ATOM     21  C   UNL     1       5.265   5.442  19.099  0.00  0.00    +0.000 C 
ENDBRANCH  16  19
ENDBRANCH   3  16
BRANCH   6  22
ATOM     22  N   UNL     1      -0.528  10.151  21.532  0.00  0.00    +0.000 N 
ATOM     23  H   UNL     1      -0.454  10.062  22.539  0.00  0.00    +0.000 HD
ATOM     24  H   UNL     1      -0.571  11.134  21.240  0.00  0.00    +0.000 HD
ENDBRANCH   6  22
TORSDOF 4
ENDMDL
