MODEL 1
REMARK VINA RESULT:      -6.3      0.000      0.000
REMARK  Name = 
REMARK  7 active torsions:
REMARK  status: ('A' for Active; 'I' for Inactive)
REMARK    1  A    between atoms: C_1  and  C_2
REMARK    2  A    between atoms: C_4  and  O_5
REMARK    3  A    between atoms: O_5  and  C_6
REMARK    4  A    between atoms: C_6  and  C_7
REMARK    5  A    between atoms: C_7  and  C_8
REMARK    6  A    between atoms: C_8  and  O_10
REMARK    7  A    between atoms: C_12  and  C_13
REMARK                            x       y       z     vdW  Elec       q    Type
REMARK                         _______ _______ _______ _____ _____    ______ ____
ROOT
ATOM      1  C   UNL     1       5.621   3.946  16.133  0.00  0.00    +0.000 C 
ATOM      2  C   UNL     1       4.384   4.474  16.811  0.00  0.00    +0.000 A 
ATOM      3  C   UNL     1       3.318   3.591  17.054  0.00  0.00    +0.000 A 
ATOM      4  C   UNL     1       2.145   4.027  17.672  0.00  0.00    +0.000 A 
ATOM      5  C   UNL     1       2.038   5.365  18.055  0.00  0.00    +0.000 A 
ATOM      6  C   UNL     1       3.087   6.275  17.830  0.00  0.00    +0.000 A 
ATOM      7  C   UNL     1       2.929   7.707  18.262  0.00  0.00    +0.000 C 
ATOM      8  C   UNL     1       4.262   5.818  17.203  0.00  0.00    +0.000 A 
ATOM      9 CL   UNL     1       5.569   6.920  16.906  0.00  0.00    +0.000 Cl
ENDROOT
BRANCH   4  10
ATOM     10  O   UNL     1       1.052   3.242  17.946  0.00  0.00    +0.000 OA
BRANCH  10  11
ATOM     11  C   UNL     1       1.243   2.250  18.960  0.00  0.00    +0.000 C 
BRANCH  11  12
ATOM     12  C   UNL     1       1.104   2.885  20.336  0.00  0.00    +0.000 C 
BRANCH  12  13
ATOM     13  C   UNL     1       2.424   2.821  21.058  0.00  0.00    +0.000 C 
ATOM     14  O   UNL     1       3.497   2.559  20.538  0.00  0.00    +0.000 OA
BRANCH  13  15
ATOM     15  O   UNL     1       2.310   3.086  22.379  0.00  0.00    +0.000 OA
ATOM     16  H   UNL     1       1.955   3.971  22.579  0.00  0.00    +0.000 HD
ENDBRANCH  13  15
ENDBRANCH  12  13
ENDBRANCH  11  12
ENDBRANCH  10  11
ENDBRANCH   4  10
TORSDOF 5
ENDMDL
MODEL 2
REMARK VINA RESULT:      -6.3      0.177      2.389
REMARK  Name = 
REMARK  7 active torsions:
REMARK  status: ('A' for Active; 'I' for Inactive)
REMARK    1  A    between atoms: C_1  and  C_2
REMARK    2  A    between atoms: C_4  and  O_5
REMARK    3  A    between atoms: O_5  and  C_6
REMARK    4  A    between atoms: C_6  and  C_7
REMARK    5  A    between atoms: C_7  and  C_8
REMARK    6  A    between atoms: C_8  and  O_10
REMARK    7  A    between atoms: C_12  and  C_13
REMARK                            x       y       z     vdW  Elec       q    Type
REMARK                         _______ _______ _______ _____ _____    ______ ____
ROOT
ATOM      1  C   UNL     1       3.055   7.887  18.016  0.00  0.00    +0.000 C 
ATOM      2  C   UNL     1       3.191   6.419  17.708  0.00  0.00    +0.000 A 
ATOM      3  C   UNL     1       2.103   5.570  17.969  0.00  0.00    +0.000 A 
ATOM      4  C   UNL     1       2.175   4.200  17.710  0.00  0.00    +0.000 A 
ATOM      5  C   UNL     1       3.354   3.672  17.180  0.00  0.00    +0.000 A 
ATOM      6  C   UNL     1       4.462   4.494  16.904  0.00  0.00    +0.000 A 
ATOM      7  C   UNL     1       5.711   3.883  16.330  0.00  0.00    +0.000 C 
ATOM      8  C   UNL     1       4.372   5.873  17.175  0.00  0.00    +0.000 A 
ATOM      9 CL   UNL     1       5.726   6.909  16.851  0.00  0.00    +0.000 Cl
ENDROOT
BRANCH   4  10
ATOM     10  O   UNL     1       1.168   3.294  17.935  0.00  0.00    +0.000 OA
BRANCH  10  11
ATOM     11  C   UNL     1       1.438   2.306  18.934  0.00  0.00    +0.000 C 
BRANCH  11  12
ATOM     12  C   UNL     1       1.097   2.858  20.310  0.00  0.00    +0.000 C 
BRANCH  12  13
ATOM     13  C   UNL     1       2.323   2.831  21.184  0.00  0.00    +0.000 C 
ATOM     14  O   UNL     1       2.340   3.086  22.378  0.00  0.00    +0.000 OA
BRANCH  13  15
ATOM     15  O   UNL     1       3.441   2.488  20.505  0.00  0.00    +0.000 OA
ATOM     16  H   UNL     1       3.658   3.086  19.768  0.00  0.00    +0.000 HD
ENDBRANCH  13  15
ENDBRANCH  12  13
ENDBRANCH  11  12
ENDBRANCH  10  11
ENDBRANCH   4  10
TORSDOF 5
ENDMDL
MODEL 3
REMARK VINA RESULT:      -6.2      3.495      5.443
REMARK  Name = 
REMARK  7 active torsions:
REMARK  status: ('A' for Active; 'I' for Inactive)
REMARK    1  A    between atoms: C_1  and  C_2
REMARK    2  A    between atoms: C_4  and  O_5
REMARK    3  A    between atoms: O_5  and  C_6
REMARK    4  A    between atoms: C_6  and  C_7
REMARK    5  A    between atoms: C_7  and  C_8
REMARK    6  A    between atoms: C_8  and  O_10
REMARK    7  A    between atoms: C_12  and  C_13
REMARK                            x       y       z     vdW  Elec       q    Type
REMARK                         _______ _______ _______ _____ _____    ______ ____
ROOT
ATOM      1  C   UNL     1       1.729   6.512  20.493  0.00  0.00    +0.000 C 
ATOM      2  C   UNL     1       2.353   5.718  19.375  0.00  0.00    +0.000 A 
ATOM      3  C   UNL     1       3.253   6.362  18.510  0.00  0.00    +0.000 A 
ATOM      4  C   UNL     1       3.856   5.678  17.452  0.00  0.00    +0.000 A 
ATOM      5  C   UNL     1       3.555   4.328  17.260  0.00  0.00    +0.000 A 
ATOM      6  C   UNL     1       2.660   3.652  18.109  0.00  0.00    +0.000 A 
ATOM      7  C   UNL     1       2.368   2.196  17.866  0.00  0.00    +0.000 C 
ATOM      8  C   UNL     1       2.060   4.359  19.169  0.00  0.00    +0.000 A 
ATOM      9 CL   UNL     1       0.948   3.551  20.227  0.00  0.00    +0.000 Cl
ENDROOT
BRANCH   4  10
ATOM     10  O   UNL     1       4.742   6.222  16.555  0.00  0.00    +0.000 OA
BRANCH  10  11
ATOM     11  C   UNL     1       5.806   6.990  17.127  0.00  0.00    +0.000 C 
BRANCH  11  12
ATOM     12  C   UNL     1       6.748   6.073  17.894  0.00  0.00    +0.000 C 
BRANCH  12  13
ATOM     13  C   UNL     1       7.478   5.177  16.929  0.00  0.00    +0.000 C 
ATOM     14  O   UNL     1       8.094   4.168  17.237  0.00  0.00    +0.000 OA
BRANCH  13  15
ATOM     15  O   UNL     1       7.390   5.605  15.649  0.00  0.00    +0.000 OA
ATOM     16  H   UNL     1       6.837   5.042  15.078  0.00  0.00    +0.000 HD
ENDBRANCH  13  15
ENDBRANCH  12  13
ENDBRANCH  11  12
ENDBRANCH  10  11
ENDBRANCH   4  10
TORSDOF 5
ENDMDL
MODEL 4
REMARK VINA RESULT:      -6.1      3.228      5.196
REMARK  Name = 
REMARK  7 active torsions:
REMARK  status: ('A' for Active; 'I' for Inactive)
REMARK    1  A    between atoms: C_1  and  C_2
REMARK    2  A    between atoms: C_4  and  O_5
REMARK    3  A    between atoms: O_5  and  C_6
REMARK    4  A    between atoms: C_6  and  C_7
REMARK    5  A    between atoms: C_7  and  C_8
REMARK    6  A    between atoms: C_8  and  O_10
REMARK    7  A    between atoms: C_12  and  C_13
REMARK                            x       y       z     vdW  Elec       q    Type
REMARK                         _______ _______ _______ _____ _____    ______ ____
ROOT
ATOM      1  C   UNL     1       2.176   7.057  20.002  0.00  0.00    +0.000 C 
ATOM      2  C   UNL     1       2.597   5.924  19.104  0.00  0.00    +0.000 A 
ATOM      3  C   UNL     1       3.539   6.178  18.093  0.00  0.00    +0.000 A 
ATOM      4  C   UNL     1       3.961   5.168  17.226  0.00  0.00    +0.000 A 
ATOM      5  C   UNL     1       3.434   3.884  17.375  0.00  0.00    +0.000 A 
ATOM      6  C   UNL     1       2.491   3.594  18.379  0.00  0.00    +0.000 A 
ATOM      7  C   UNL     1       1.952   2.195  18.505  0.00  0.00    +0.000 C 
ATOM      8  C   UNL     1       2.076   4.626  19.241  0.00  0.00    +0.000 A 
ATOM      9 CL   UNL     1       0.909   4.298  20.483  0.00  0.00    +0.000 Cl
ENDROOT
BRANCH   4  10
ATOM     10  O   UNL     1       4.871   5.321  16.209  0.00  0.00    +0.000 OA
BRANCH  10  11
ATOM     11  C   UNL     1       5.525   4.123  15.780  0.00  0.00    +0.000 C 
BRANCH  11  12
ATOM     12  C   UNL     1       7.034   4.321  15.810  0.00  0.00    +0.000 C 
BRANCH  12  13
ATOM     13  C   UNL     1       7.434   4.968  17.110  0.00  0.00    +0.000 C 
ATOM     14  O   UNL     1       7.628   4.375  18.158  0.00  0.00    +0.000 OA
BRANCH  13  15
ATOM     15  O   UNL     1       7.560   6.311  17.007  0.00  0.00    +0.000 OA
ATOM     16  H   UNL     1       6.732   6.773  16.786  0.00  0.00    +0.000 HD
ENDBRANCH  13  15
ENDBRANCH  12  13
ENDBRANCH  11  12
ENDBRANCH  10  11
ENDBRANCH   4  10
TORSDOF 5
ENDMDL
MODEL 5
REMARK VINA RESULT:      -6.1      3.430      5.162
REMARK  Name = 
REMARK  7 active torsions:
REMARK  status: ('A' for Active; 'I' for Inactive)
REMARK    1  A    between atoms: C_1  and  C_2
REMARK    2  A    between atoms: C_4  and  O_5
REMARK    3  A    between atoms: O_5  and  C_6
REMARK    4  A    between atoms: C_6  and  C_7
REMARK    5  A    between atoms: C_7  and  C_8
REMARK    6  A    between atoms: C_8  and  O_10
REMARK    7  A    between atoms: C_12  and  C_13
REMARK                            x       y       z     vdW  Elec       q    Type
REMARK                         _______ _______ _______ _____ _____    ______ ____
ROOT
ATOM      1  C   UNL     1       2.470   4.788  20.838  0.00  0.00    +0.000 C 
ATOM      2  C   UNL     1       2.845   5.651  19.663  0.00  0.00    +0.000 A 
ATOM      3  C   UNL     1       3.768   5.155  18.728  0.00  0.00    +0.000 A 
ATOM      4  C   UNL     1       4.159   5.914  17.623  0.00  0.00    +0.000 A 
ATOM      5  C   UNL     1       3.614   7.188  17.450  0.00  0.00    +0.000 A 
ATOM      6  C   UNL     1       2.685   7.715  18.365  0.00  0.00    +0.000 A 
ATOM      7  C   UNL     1       2.121   9.091  18.138  0.00  0.00    +0.000 C 
ATOM      8  C   UNL     1       2.305   6.936  19.475  0.00  0.00    +0.000 A 
ATOM      9 CL   UNL     1       1.166   7.563  20.624  0.00  0.00    +0.000 Cl
ENDROOT
BRANCH   4  10
ATOM     10  O   UNL     1       5.055   5.516  16.661  0.00  0.00    +0.000 OA
BRANCH  10  11
ATOM     11  C   UNL     1       4.931   4.159  16.226  0.00  0.00    +0.000 C 
BRANCH  11  12
ATOM     12  C   UNL     1       5.901   3.893  15.084  0.00  0.00    +0.000 C 
BRANCH  12  13
ATOM     13  C   UNL     1       7.153   4.706  15.285  0.00  0.00    +0.000 C 
ATOM     14  O   UNL     1       7.623   5.483  14.470  0.00  0.00    +0.000 OA
BRANCH  13  15
ATOM     15  O   UNL     1       7.730   4.487  16.488  0.00  0.00    +0.000 OA
ATOM     16  H   UNL     1       7.096   4.364  17.217  0.00  0.00    +0.000 HD
ENDBRANCH  13  15
ENDBRANCH  12  13
ENDBRANCH  11  12
ENDBRANCH  10  11
ENDBRANCH   4  10
TORSDOF 5
ENDMDL
MODEL 6
REMARK VINA RESULT:      -6.0      3.429      4.770
REMARK  Name = 
REMARK  7 active torsions:
REMARK  status: ('A' for Active; 'I' for Inactive)
REMARK    1  A    between atoms: C_1  and  C_2
REMARK    2  A    between atoms: C_4  and  O_5
REMARK    3  A    between atoms: O_5  and  C_6
REMARK    4  A    between atoms: C_6  and  C_7
REMARK    5  A    between atoms: C_7  and  C_8
REMARK    6  A    between atoms: C_8  and  O_10
REMARK    7  A    between atoms: C_12  and  C_13
REMARK                            x       y       z     vdW  Elec       q    Type
REMARK                         _______ _______ _______ _____ _____    ______ ____
ROOT
ATOM      1  C   UNL     1       2.602   2.016  18.359  0.00  0.00    +0.000 C 
ATOM      2  C   UNL     1       3.099   3.418  18.126  0.00  0.00    +0.000 A 
ATOM      3  C   UNL     1       4.169   3.616  17.237  0.00  0.00    +0.000 A 
ATOM      4  C   UNL     1       4.677   4.893  16.988  0.00  0.00    +0.000 A 
ATOM      5  C   UNL     1       4.102   5.988  17.636  0.00  0.00    +0.000 A 
ATOM      6  C   UNL     1       3.028   5.826  18.530  0.00  0.00    +0.000 A 
ATOM      7  C   UNL     1       2.438   7.035  19.204  0.00  0.00    +0.000 C 
ATOM      8  C   UNL     1       2.532   4.531  18.771  0.00  0.00    +0.000 A 
ATOM      9 CL   UNL     1       1.212   4.301  19.874  0.00  0.00    +0.000 Cl
ENDROOT
BRANCH   4  10
ATOM     10  O   UNL     1       5.718   5.184  16.142  0.00  0.00    +0.000 OA
BRANCH  10  11
ATOM     11  C   UNL     1       6.809   5.900  16.729  0.00  0.00    +0.000 C 
BRANCH  11  12
ATOM     12  C   UNL     1       7.390   5.099  17.885  0.00  0.00    +0.000 C 
BRANCH  12  13
ATOM     13  C   UNL     1       7.887   6.038  18.952  0.00  0.00    +0.000 C 
ATOM     14  O   UNL     1       8.298   7.170  18.753  0.00  0.00    +0.000 OA
BRANCH  13  15
ATOM     15  O   UNL     1       7.837   5.496  20.189  0.00  0.00    +0.000 OA
ATOM     16  H   UNL     1       6.969   5.124  20.427  0.00  0.00    +0.000 HD
ENDBRANCH  13  15
ENDBRANCH  12  13
ENDBRANCH  11  12
ENDBRANCH  10  11
ENDBRANCH   4  10
TORSDOF 5
ENDMDL
MODEL 7
REMARK VINA RESULT:      -6.0      3.537      5.173
REMARK  Name = 
REMARK  7 active torsions:
REMARK  status: ('A' for Active; 'I' for Inactive)
REMARK    1  A    between atoms: C_1  and  C_2
REMARK    2  A    between atoms: C_4  and  O_5
REMARK    3  A    between atoms: O_5  and  C_6
REMARK    4  A    between atoms: C_6  and  C_7
REMARK    5  A    between atoms: C_7  and  C_8
REMARK    6  A    between atoms: C_8  and  O_10
REMARK    7  A    between atoms: C_12  and  C_13
REMARK                            x       y       z     vdW  Elec       q    Type
REMARK                         _______ _______ _______ _____ _____    ______ ____
ROOT
ATOM      1  C   UNL     1       3.112   1.919  18.329  0.00  0.00    +0.000 C 
ATOM      2  C   UNL     1       3.580   3.333  18.548  0.00  0.00    +0.000 A 
ATOM      3  C   UNL     1       4.872   3.546  19.058  0.00  0.00    +0.000 A 
ATOM      4  C   UNL     1       5.356   4.835  19.288  0.00  0.00    +0.000 A 
ATOM      5  C   UNL     1       4.536   5.928  19.000  0.00  0.00    +0.000 A 
ATOM      6  C   UNL     1       3.239   5.751  18.485  0.00  0.00    +0.000 A 
ATOM      7  C   UNL     1       2.391   6.957  18.186  0.00  0.00    +0.000 C 
ATOM      8  C   UNL     1       2.767   4.443  18.263  0.00  0.00    +0.000 A 
ATOM      9 CL   UNL     1       1.168   4.195  17.635  0.00  0.00    +0.000 Cl
ENDROOT
BRANCH   4  10
ATOM     10  O   UNL     1       6.598   5.141  19.786  0.00  0.00    +0.000 OA
BRANCH  10  11
ATOM     11  C   UNL     1       7.530   5.673  18.839  0.00  0.00    +0.000 C 
BRANCH  11  12
ATOM     12  C   UNL     1       7.634   4.743  17.639  0.00  0.00    +0.000 C 
BRANCH  12  13
ATOM     13  C   UNL     1       7.239   5.484  16.389  0.00  0.00    +0.000 C 
ATOM     14  O   UNL     1       6.661   6.558  16.363  0.00  0.00    +0.000 OA
BRANCH  13  15
ATOM     15  O   UNL     1       7.593   4.828  15.260  0.00  0.00    +0.000 OA
ATOM     16  H   UNL     1       7.698   3.867  15.374  0.00  0.00    +0.000 HD
ENDBRANCH  13  15
ENDBRANCH  12  13
ENDBRANCH  11  12
ENDBRANCH  10  11
ENDBRANCH   4  10
TORSDOF 5
ENDMDL
MODEL 8
REMARK VINA RESULT:      -6.0      3.472      5.237
REMARK  Name = 
REMARK  7 active torsions:
REMARK  status: ('A' for Active; 'I' for Inactive)
REMARK    1  A    between atoms: C_1  and  C_2
REMARK    2  A    between atoms: C_4  and  O_5
REMARK    3  A    between atoms: O_5  and  C_6
REMARK    4  A    between atoms: C_6  and  C_7
REMARK    5  A    between atoms: C_7  and  C_8
REMARK    6  A    between atoms: C_8  and  O_10
REMARK    7  A    between atoms: C_12  and  C_13
REMARK                            x       y       z     vdW  Elec       q    Type
REMARK                         _______ _______ _______ _____ _____    ______ ____
ROOT
ATOM      1  C   UNL     1       1.716   6.122  20.675  0.00  0.00    +0.000 C 
ATOM      2  C   UNL     1       2.495   5.413  19.599  0.00  0.00    +0.000 A 
ATOM      3  C   UNL     1       3.616   6.053  19.044  0.00  0.00    +0.000 A 
ATOM      4  C   UNL     1       4.371   5.447  18.038  0.00  0.00    +0.000 A 
ATOM      5  C   UNL     1       4.000   4.180  17.583  0.00  0.00    +0.000 A 
ATOM      6  C   UNL     1       2.885   3.510  18.118  0.00  0.00    +0.000 A 
ATOM      7  C   UNL     1       2.524   2.145  17.600  0.00  0.00    +0.000 C 
ATOM      8  C   UNL     1       2.134   4.138  19.130  0.00  0.00    +0.000 A 
ATOM      9 CL   UNL     1       0.750   3.338  19.803  0.00  0.00    +0.000 Cl
ENDROOT
BRANCH   4  10
ATOM     10  O   UNL     1       5.476   5.994  17.434  0.00  0.00    +0.000 OA
BRANCH  10  11
ATOM     11  C   UNL     1       6.369   5.061  16.818  0.00  0.00    +0.000 C 
BRANCH  11  12
ATOM     12  C   UNL     1       7.551   4.792  17.738  0.00  0.00    +0.000 C 
BRANCH  12  13
ATOM     13  C   UNL     1       7.659   5.896  18.757  0.00  0.00    +0.000 C 
ATOM     14  O   UNL     1       8.089   7.016  18.534  0.00  0.00    +0.000 OA
BRANCH  13  15
ATOM     15  O   UNL     1       7.225   5.520  19.981  0.00  0.00    +0.000 OA
ATOM     16  H   UNL     1       7.842   4.940  20.462  0.00  0.00    +0.000 HD
ENDBRANCH  13  15
ENDBRANCH  12  13
ENDBRANCH  11  12
ENDBRANCH  10  11
ENDBRANCH   4  10
TORSDOF 5
ENDMDL
MODEL 9
REMARK VINA RESULT:      -5.9      3.376      4.769
REMARK  Name = 
REMARK  7 active torsions:
REMARK  status: ('A' for Active; 'I' for Inactive)
REMARK    1  A    between atoms: C_1  and  C_2
REMARK    2  A    between atoms: C_4  and  O_5
REMARK    3  A    between atoms: O_5  and  C_6
REMARK    4  A    between atoms: C_6  and  C_7
REMARK    5  A    between atoms: C_7  and  C_8
REMARK    6  A    between atoms: C_8  and  O_10
REMARK    7  A    between atoms: C_12  and  C_13
REMARK                            x       y       z     vdW  Elec       q    Type
REMARK                         _______ _______ _______ _____ _____    ______ ____
ROOT
ATOM      1  C   UNL     1       3.574   1.678  18.266  0.00  0.00    +0.000 C 
ATOM      2  C   UNL     1       3.396   3.158  18.479  0.00  0.00    +0.000 A 
ATOM      3  C   UNL     1       4.176   4.048  17.722  0.00  0.00    +0.000 A 
ATOM      4  C   UNL     1       4.058   5.430  17.882  0.00  0.00    +0.000 A 
ATOM      5  C   UNL     1       3.143   5.929  18.812  0.00  0.00    +0.000 A 
ATOM      6  C   UNL     1       2.344   5.066  19.584  0.00  0.00    +0.000 A 
ATOM      7  C   UNL     1       1.370   5.647  20.572  0.00  0.00    +0.000 C 
ATOM      8  C   UNL     1       2.479   3.675  19.411  0.00  0.00    +0.000 A 
ATOM      9 CL   UNL     1       1.512   2.587  20.355  0.00  0.00    +0.000 Cl
ENDROOT
BRANCH   4  10
ATOM     10  O   UNL     1       4.778   6.375  17.193  0.00  0.00    +0.000 OA
BRANCH  10  11
ATOM     11  C   UNL     1       5.923   5.885  16.488  0.00  0.00    +0.000 C 
BRANCH  11  12
ATOM     12  C   UNL     1       7.190   6.237  17.255  0.00  0.00    +0.000 C 
BRANCH  12  13
ATOM     13  C   UNL     1       7.640   5.048  18.062  0.00  0.00    +0.000 C 
ATOM     14  O   UNL     1       8.326   4.132  17.638  0.00  0.00    +0.000 OA
BRANCH  13  15
ATOM     15  O   UNL     1       7.198   5.086  19.339  0.00  0.00    +0.000 OA
ATOM     16  H   UNL     1       6.840   5.950  19.611  0.00  0.00    +0.000 HD
ENDBRANCH  13  15
ENDBRANCH  12  13
ENDBRANCH  11  12
ENDBRANCH  10  11
ENDBRANCH   4  10
TORSDOF 5
ENDMDL
