MODEL 1
REMARK VINA RESULT:      -8.1      0.000      0.000
REMARK  Name = 
REMARK  6 active torsions:
REMARK  status: ('A' for Active; 'I' for Inactive)
REMARK    1  A    between atoms: C_2  and  C_12
REMARK    2  A    between atoms: N_3  and  C_4
REMARK    3  A    between atoms: C_4  and  C_5
REMARK    4  A    between atoms: C_5  and  C_6
REMARK    5  A    between atoms: N_16  and  S_17
REMARK    6  A    between atoms: S_17  and  C_20
REMARK                            x       y       z     vdW  Elec       q    Type
REMARK                         _______ _______ _______ _____ _____    ______ ____
ROOT
ATOM      1  C   UNL     1       4.710   4.371  19.772  0.00  0.00    +0.000 C 
ATOM      2  C   UNL     1       4.364   2.889  19.582  0.00  0.00    +0.000 C 
ATOM      3  C   UNL     1       3.165   2.708  20.489  0.00  0.00    +0.000 C 
ATOM      4  C   UNL     1       2.437   4.046  20.458  0.00  0.00    +0.000 C 
ATOM      5  N   UNL     1       3.343   5.050  19.812  0.00  0.00    +0.000 NA
ENDROOT
BRANCH   1   7
ATOM      6  O   UNL     1       6.748   5.580  19.402  0.00  0.00    +0.000 OA
ATOM      7  C   UNL     1       5.969   4.729  18.991  0.00  0.00    +0.000 C 
ATOM      8  N   UNL     1       6.162   4.102  17.778  0.00  0.00    +0.000 N 
ATOM      9  H   UNL     1       5.338   3.684  17.353  0.00  0.00    +0.000 HD
BRANCH   8  10
ATOM     10  C   UNL     1       7.260   4.467  16.899  0.00  0.00    +0.000 C 
BRANCH  10  11
ATOM     11  C   UNL     1       6.843   5.484  15.831  0.00  0.00    +0.000 C 
BRANCH  11  12
ATOM     12  C   UNL     1       6.865   4.889  14.442  0.00  0.00    +0.000 A 
ATOM     13  C   UNL     1       7.724   5.380  13.450  0.00  0.00    +0.000 A 
ATOM     14  C   UNL     1       7.673   4.868  12.150  0.00  0.00    +0.000 A 
ATOM     15  C   UNL     1       6.769   3.857  11.829  0.00  0.00    +0.000 A 
ATOM     16  C   UNL     1       5.934   3.338  12.816  0.00  0.00    +0.000 A 
ATOM     17  C   UNL     1       5.982   3.849  14.113  0.00  0.00    +0.000 A 
ENDBRANCH  11  12
ENDBRANCH  10  11
ENDBRANCH   8  10
ENDBRANCH   1   7
BRANCH   5  18
ATOM     18  S   UNL     1       2.687   5.744  18.382  0.00  0.00    +0.000 S 
ATOM     19  O   UNL     1       3.775   5.840  17.418  0.00  0.00    +0.000 OA
ATOM     20  O   UNL     1       1.484   5.020  18.078  0.00  0.00    +0.000 OA
BRANCH  18  21
ATOM     21  C   UNL     1       2.215   7.441  18.795  0.00  0.00    +0.000 A 
ATOM     22  C   UNL     1       1.556   7.793  19.978  0.00  0.00    +0.000 A 
ATOM     23  C   UNL     1       0.991   9.084  20.091  0.00  0.00    +0.000 A 
ATOM     24  C   UNL     1       1.098  10.002  19.037  0.00  0.00    +0.000 A 
ATOM     25 CL   UNL     1       0.253  11.501  19.075  0.00  0.00    +0.000 Cl
ATOM     26  C   UNL     1       1.855   9.682  17.918  0.00  0.00    +0.000 A 
ATOM     27  C   UNL     1       2.447   8.421  17.825  0.00  0.00    +0.000 A 
ENDBRANCH  18  21
ENDBRANCH   5  18
TORSDOF 6
ENDMDL
MODEL 2
REMARK VINA RESULT:      -8.0      0.557      1.432
REMARK  Name = 
REMARK  6 active torsions:
REMARK  status: ('A' for Active; 'I' for Inactive)
REMARK    1  A    between atoms: C_2  and  C_12
REMARK    2  A    between atoms: N_3  and  C_4
REMARK    3  A    between atoms: C_4  and  C_5
REMARK    4  A    between atoms: C_5  and  C_6
REMARK    5  A    between atoms: N_16  and  S_17
REMARK    6  A    between atoms: S_17  and  C_20
REMARK                            x       y       z     vdW  Elec       q    Type
REMARK                         _______ _______ _______ _____ _____    ______ ____
ROOT
ATOM      1  C   UNL     1       4.744   4.437  19.771  0.00  0.00    +0.000 C 
ATOM      2  C   UNL     1       4.240   3.006  19.541  0.00  0.00    +0.000 C 
ATOM      3  C   UNL     1       3.011   2.940  20.422  0.00  0.00    +0.000 C 
ATOM      4  C   UNL     1       2.436   4.352  20.409  0.00  0.00    +0.000 C 
ATOM      5  N   UNL     1       3.460   5.262  19.801  0.00  0.00    +0.000 NA
ENDROOT
BRANCH   1   7
ATOM      6  O   UNL     1       6.957   5.325  19.516  0.00  0.00    +0.000 OA
ATOM      7  C   UNL     1       6.051   4.668  19.020  0.00  0.00    +0.000 C 
ATOM      8  N   UNL     1       6.144   4.162  17.741  0.00  0.00    +0.000 N 
ATOM      9  H   UNL     1       5.266   3.939  17.281  0.00  0.00    +0.000 HD
BRANCH   8  10
ATOM     10  C   UNL     1       7.294   4.439  16.896  0.00  0.00    +0.000 C 
BRANCH  10  11
ATOM     11  C   UNL     1       6.996   5.498  15.830  0.00  0.00    +0.000 C 
BRANCH  11  12
ATOM     12  C   UNL     1       6.750   4.884  14.471  0.00  0.00    +0.000 A 
ATOM     13  C   UNL     1       5.656   4.041  14.237  0.00  0.00    +0.000 A 
ATOM     14  C   UNL     1       5.491   3.421  12.994  0.00  0.00    +0.000 A 
ATOM     15  C   UNL     1       6.412   3.642  11.972  0.00  0.00    +0.000 A 
ATOM     16  C   UNL     1       7.485   4.505  12.183  0.00  0.00    +0.000 A 
ATOM     17  C   UNL     1       7.652   5.123  13.423  0.00  0.00    +0.000 A 
ENDBRANCH  11  12
ENDBRANCH  10  11
ENDBRANCH   8  10
ENDBRANCH   1   7
BRANCH   5  18
ATOM     18  S   UNL     1       2.914   6.053  18.376  0.00  0.00    +0.000 S 
ATOM     19  O   UNL     1       4.098   6.523  17.670  0.00  0.00    +0.000 OA
ATOM     20  O   UNL     1       1.969   5.174  17.744  0.00  0.00    +0.000 OA
BRANCH  18  21
ATOM     21  C   UNL     1       2.015   7.529  18.911  0.00  0.00    +0.000 A 
ATOM     22  C   UNL     1       1.777   8.632  18.082  0.00  0.00    +0.000 A 
ATOM     23  C   UNL     1       1.312   9.836  18.658  0.00  0.00    +0.000 A 
ATOM     24  C   UNL     1       1.082   9.923  20.038  0.00  0.00    +0.000 A 
ATOM     25 CL   UNL     1       0.706  11.427  20.785  0.00  0.00    +0.000 Cl
ATOM     26  C   UNL     1       1.208   8.789  20.830  0.00  0.00    +0.000 A 
ATOM     27  C   UNL     1       1.629   7.589  20.254  0.00  0.00    +0.000 A 
ENDBRANCH  18  21
ENDBRANCH   5  18
TORSDOF 6
ENDMDL
MODEL 3
REMARK VINA RESULT:      -7.9      4.567      6.560
REMARK  Name = 
REMARK  6 active torsions:
REMARK  status: ('A' for Active; 'I' for Inactive)
REMARK    1  A    between atoms: C_2  and  C_12
REMARK    2  A    between atoms: N_3  and  C_4
REMARK    3  A    between atoms: C_4  and  C_5
REMARK    4  A    between atoms: C_5  and  C_6
REMARK    5  A    between atoms: N_16  and  S_17
REMARK    6  A    between atoms: S_17  and  C_20
REMARK                            x       y       z     vdW  Elec       q    Type
REMARK                         _______ _______ _______ _____ _____    ______ ____
ROOT
ATOM      1  C   UNL     1       7.104   5.015  17.291  0.00  0.00    +0.000 C 
ATOM      2  C   UNL     1       7.249   5.454  15.828  0.00  0.00    +0.000 C 
ATOM      3  C   UNL     1       6.657   4.285  15.069  0.00  0.00    +0.000 C 
ATOM      4  C   UNL     1       5.563   3.736  15.975  0.00  0.00    +0.000 C 
ATOM      5  N   UNL     1       5.724   4.363  17.327  0.00  0.00    +0.000 NA
ENDROOT
BRANCH   1   7
ATOM      6  O   UNL     1       8.087   5.741  19.354  0.00  0.00    +0.000 OA
ATOM      7  C   UNL     1       7.736   6.044  18.221  0.00  0.00    +0.000 C 
ATOM      8  N   UNL     1       7.839   7.339  17.757  0.00  0.00    +0.000 N 
ATOM      9  H   UNL     1       7.237   7.585  16.975  0.00  0.00    +0.000 HD
BRANCH   8  10
ATOM     10  C   UNL     1       8.306   8.418  18.611  0.00  0.00    +0.000 C 
BRANCH  10  11
ATOM     11  C   UNL     1       8.490   9.732  17.847  0.00  0.00    +0.000 C 
BRANCH  11  12
ATOM     12  C   UNL     1       9.437  10.674  18.555  0.00  0.00    +0.000 A 
ATOM     13  C   UNL     1      10.397  11.413  17.851  0.00  0.00    +0.000 A 
ATOM     14  C   UNL     1      11.313  12.219  18.534  0.00  0.00    +0.000 A 
ATOM     15  C   UNL     1      11.276  12.300  19.925  0.00  0.00    +0.000 A 
ATOM     16  C   UNL     1      10.303  11.597  20.632  0.00  0.00    +0.000 A 
ATOM     17  C   UNL     1       9.389  10.790  19.953  0.00  0.00    +0.000 A 
ENDBRANCH  11  12
ENDBRANCH  10  11
ENDBRANCH   8  10
ENDBRANCH   1   7
BRANCH   5  18
ATOM     18  S   UNL     1       4.356   5.276  17.828  0.00  0.00    +0.000 S 
ATOM     19  O   UNL     1       4.847   6.576  18.263  0.00  0.00    +0.000 OA
ATOM     20  O   UNL     1       3.372   5.161  16.787  0.00  0.00    +0.000 OA
BRANCH  18  21
ATOM     21  C   UNL     1       3.694   4.458  19.299  0.00  0.00    +0.000 A 
ATOM     22  C   UNL     1       4.018   3.147  19.667  0.00  0.00    +0.000 A 
ATOM     23  C   UNL     1       3.253   2.505  20.667  0.00  0.00    +0.000 A 
ATOM     24  C   UNL     1       2.191   3.175  21.290  0.00  0.00    +0.000 A 
ATOM     25 CL   UNL     1       1.128   2.351  22.364  0.00  0.00    +0.000 Cl
ATOM     26  C   UNL     1       1.955   4.513  21.001  0.00  0.00    +0.000 A 
ATOM     27  C   UNL     1       2.738   5.159  20.042  0.00  0.00    +0.000 A 
ENDBRANCH  18  21
ENDBRANCH   5  18
TORSDOF 6
ENDMDL
MODEL 4
REMARK VINA RESULT:      -7.9      2.901      7.543
REMARK  Name = 
REMARK  6 active torsions:
REMARK  status: ('A' for Active; 'I' for Inactive)
REMARK    1  A    between atoms: C_2  and  C_12
REMARK    2  A    between atoms: N_3  and  C_4
REMARK    3  A    between atoms: C_4  and  C_5
REMARK    4  A    between atoms: C_5  and  C_6
REMARK    5  A    between atoms: N_16  and  S_17
REMARK    6  A    between atoms: S_17  and  C_20
REMARK                            x       y       z     vdW  Elec       q    Type
REMARK                         _______ _______ _______ _____ _____    ______ ____
ROOT
ATOM      1  C   UNL     1       2.038   5.045  19.207  0.00  0.00    +0.000 C 
ATOM      2  C   UNL     1       1.453   4.512  20.521  0.00  0.00    +0.000 C 
ATOM      3  C   UNL     1       1.262   3.039  20.228  0.00  0.00    +0.000 C 
ATOM      4  C   UNL     1       2.390   2.675  19.270  0.00  0.00    +0.000 C 
ATOM      5  N   UNL     1       3.015   3.949  18.787  0.00  0.00    +0.000 NA
ENDROOT
BRANCH   1   7
ATOM      6  O   UNL     1       2.017   7.170  20.318  0.00  0.00    +0.000 OA
ATOM      7  C   UNL     1       2.220   6.557  19.278  0.00  0.00    +0.000 C 
ATOM      8  N   UNL     1       2.559   7.210  18.112  0.00  0.00    +0.000 N 
ATOM      9  H   UNL     1       2.379   6.707  17.246  0.00  0.00    +0.000 HD
BRANCH   8  10
ATOM     10  C   UNL     1       2.629   8.659  18.044  0.00  0.00    +0.000 C 
BRANCH  10  11
ATOM     11  C   UNL     1       1.265   9.299  17.765  0.00  0.00    +0.000 C 
BRANCH  11  12
ATOM     12  C   UNL     1       0.866  10.281  18.843  0.00  0.00    +0.000 A 
ATOM     13  C   UNL     1      -0.041   9.930  19.852  0.00  0.00    +0.000 A 
ATOM     14  C   UNL     1      -0.456  10.877  20.794  0.00  0.00    +0.000 A 
ATOM     15  C   UNL     1       0.036  12.180  20.742  0.00  0.00    +0.000 A 
ATOM     16  C   UNL     1       0.964  12.530  19.764  0.00  0.00    +0.000 A 
ATOM     17  C   UNL     1       1.377  11.587  18.822  0.00  0.00    +0.000 A 
ENDBRANCH  11  12
ENDBRANCH  10  11
ENDBRANCH   8  10
ENDBRANCH   1   7
BRANCH   5  18
ATOM     18  S   UNL     1       4.682   4.088  19.183  0.00  0.00    +0.000 S 
ATOM     19  O   UNL     1       4.867   5.396  19.795  0.00  0.00    +0.000 OA
ATOM     20  O   UNL     1       5.050   2.883  19.875  0.00  0.00    +0.000 OA
BRANCH  18  21
ATOM     21  C   UNL     1       5.589   4.119  17.618  0.00  0.00    +0.000 A 
ATOM     22  C   UNL     1       6.937   4.484  17.513  0.00  0.00    +0.000 A 
ATOM     23  C   UNL     1       7.481   4.740  16.234  0.00  0.00    +0.000 A 
ATOM     24  C   UNL     1       6.686   4.620  15.086  0.00  0.00    +0.000 A 
ATOM     25 CL   UNL     1       7.271   5.115  13.544  0.00  0.00    +0.000 Cl
ATOM     26  C   UNL     1       5.386   4.144  15.194  0.00  0.00    +0.000 A 
ATOM     27  C   UNL     1       4.861   3.852  16.454  0.00  0.00    +0.000 A 
ENDBRANCH  18  21
ENDBRANCH   5  18
TORSDOF 6
ENDMDL
MODEL 5
REMARK VINA RESULT:      -7.7      4.535      6.398
REMARK  Name = 
REMARK  6 active torsions:
REMARK  status: ('A' for Active; 'I' for Inactive)
REMARK    1  A    between atoms: C_2  and  C_12
REMARK    2  A    between atoms: N_3  and  C_4
REMARK    3  A    between atoms: C_4  and  C_5
REMARK    4  A    between atoms: C_5  and  C_6
REMARK    5  A    between atoms: N_16  and  S_17
REMARK    6  A    between atoms: S_17  and  C_20
REMARK                            x       y       z     vdW  Elec       q    Type
REMARK                         _______ _______ _______ _____ _____    ______ ____
ROOT
ATOM      1  C   UNL     1       6.958   4.796  17.460  0.00  0.00    +0.000 C 
ATOM      2  C   UNL     1       7.195   5.105  15.976  0.00  0.00    +0.000 C 
ATOM      3  C   UNL     1       6.429   4.001  15.279  0.00  0.00    +0.000 C 
ATOM      4  C   UNL     1       5.245   3.701  16.190  0.00  0.00    +0.000 C 
ATOM      5  N   UNL     1       5.489   4.383  17.503  0.00  0.00    +0.000 NA
ENDROOT
BRANCH   1   7
ATOM      6  O   UNL     1       8.174   5.423  19.429  0.00  0.00    +0.000 OA
ATOM      7  C   UNL     1       7.737   5.767  18.339  0.00  0.00    +0.000 C 
ATOM      8  N   UNL     1       7.875   7.062  17.884  0.00  0.00    +0.000 N 
ATOM      9  H   UNL     1       7.218   7.358  17.167  0.00  0.00    +0.000 HD
BRANCH   8  10
ATOM     10  C   UNL     1       8.486   8.095  18.703  0.00  0.00    +0.000 C 
BRANCH  10  11
ATOM     11  C   UNL     1       8.343   9.491  18.090  0.00  0.00    +0.000 C 
BRANCH  11  12
ATOM     12  C   UNL     1       9.334  10.473  18.672  0.00  0.00    +0.000 A 
ATOM     13  C   UNL     1      10.286  11.114  17.869  0.00  0.00    +0.000 A 
ATOM     14  C   UNL     1      11.243  11.959  18.441  0.00  0.00    +0.000 A 
ATOM     15  C   UNL     1      11.254  12.176  19.817  0.00  0.00    +0.000 A 
ATOM     16  C   UNL     1      10.291  11.570  20.620  0.00  0.00    +0.000 A 
ATOM     17  C   UNL     1       9.336  10.725  20.052  0.00  0.00    +0.000 A 
ENDBRANCH  11  12
ENDBRANCH  10  11
ENDBRANCH   8  10
ENDBRANCH   1   7
BRANCH   5  18
ATOM     18  S   UNL     1       4.283   5.539  17.908  0.00  0.00    +0.000 S 
ATOM     19  O   UNL     1       4.940   6.589  18.673  0.00  0.00    +0.000 OA
ATOM     20  O   UNL     1       3.563   5.835  16.700  0.00  0.00    +0.000 OA
BRANCH  18  21
ATOM     21  C   UNL     1       3.135   4.720  19.042  0.00  0.00    +0.000 A 
ATOM     22  C   UNL     1       2.585   5.343  20.168  0.00  0.00    +0.000 A 
ATOM     23  C   UNL     1       1.921   4.553  21.134  0.00  0.00    +0.000 A 
ATOM     24  C   UNL     1       1.807   3.166  20.963  0.00  0.00    +0.000 A 
ATOM     25 CL   UNL     1       1.180   2.164  22.214  0.00  0.00    +0.000 Cl
ATOM     26  C   UNL     1       2.252   2.578  19.786  0.00  0.00    +0.000 A 
ATOM     27  C   UNL     1       2.871   3.366  18.813  0.00  0.00    +0.000 A 
ENDBRANCH  18  21
ENDBRANCH   5  18
TORSDOF 6
ENDMDL
MODEL 6
REMARK VINA RESULT:      -7.6      2.921      7.449
REMARK  Name = 
REMARK  6 active torsions:
REMARK  status: ('A' for Active; 'I' for Inactive)
REMARK    1  A    between atoms: C_2  and  C_12
REMARK    2  A    between atoms: N_3  and  C_4
REMARK    3  A    between atoms: C_4  and  C_5
REMARK    4  A    between atoms: C_5  and  C_6
REMARK    5  A    between atoms: N_16  and  S_17
REMARK    6  A    between atoms: S_17  and  C_20
REMARK                            x       y       z     vdW  Elec       q    Type
REMARK                         _______ _______ _______ _____ _____    ______ ____
ROOT
ATOM      1  C   UNL     1       2.052   4.520  19.118  0.00  0.00    +0.000 C 
ATOM      2  C   UNL     1       1.681   3.494  20.197  0.00  0.00    +0.000 C 
ATOM      3  C   UNL     1       1.737   2.183  19.443  0.00  0.00    +0.000 C 
ATOM      4  C   UNL     1       2.829   2.370  18.398  0.00  0.00    +0.000 C 
ATOM      5  N   UNL     1       3.173   3.829  18.346  0.00  0.00    +0.000 NA
ENDROOT
BRANCH   1   7
ATOM      6  O   UNL     1       1.618   6.140  20.831  0.00  0.00    +0.000 OA
ATOM      7  C   UNL     1       1.962   5.936  19.675  0.00  0.00    +0.000 C 
ATOM      8  N   UNL     1       2.223   6.976  18.807  0.00  0.00    +0.000 N 
ATOM      9  H   UNL     1       2.165   6.758  17.815  0.00  0.00    +0.000 HD
BRANCH   8  10
ATOM     10  C   UNL     1       2.040   8.362  19.203  0.00  0.00    +0.000 C 
BRANCH  10  11
ATOM     11  C   UNL     1       1.840   9.293  18.003  0.00  0.00    +0.000 C 
BRANCH  11  12
ATOM     12  C   UNL     1       0.692  10.254  18.214  0.00  0.00    +0.000 A 
ATOM     13  C   UNL     1       0.886  11.503  18.817  0.00  0.00    +0.000 A 
ATOM     14  C   UNL     1      -0.201  12.344  19.073  0.00  0.00    +0.000 A 
ATOM     15  C   UNL     1      -1.491  11.949  18.725  0.00  0.00    +0.000 A 
ATOM     16  C   UNL     1      -1.691  10.723  18.094  0.00  0.00    +0.000 A 
ATOM     17  C   UNL     1      -0.608   9.881  17.840  0.00  0.00    +0.000 A 
ENDBRANCH  11  12
ENDBRANCH  10  11
ENDBRANCH   8  10
ENDBRANCH   1   7
BRANCH   5  18
ATOM     18  S   UNL     1       4.814   4.160  18.735  0.00  0.00    +0.000 S 
ATOM     19  O   UNL     1       4.858   5.508  19.284  0.00  0.00    +0.000 OA
ATOM     20  O   UNL     1       5.304   3.034  19.481  0.00  0.00    +0.000 OA
BRANCH  18  21
ATOM     21  C   UNL     1       5.720   4.215  17.169  0.00  0.00    +0.000 A 
ATOM     22  C   UNL     1       7.088   4.498  17.078  0.00  0.00    +0.000 A 
ATOM     23  C   UNL     1       7.647   4.785  15.811  0.00  0.00    +0.000 A 
ATOM     24  C   UNL     1       6.845   4.776  14.662  0.00  0.00    +0.000 A 
ATOM     25 CL   UNL     1       7.458   5.311  13.145  0.00  0.00    +0.000 Cl
ATOM     26  C   UNL     1       5.517   4.378  14.750  0.00  0.00    +0.000 A 
ATOM     27  C   UNL     1       4.976   4.056  15.996  0.00  0.00    +0.000 A 
ENDBRANCH  18  21
ENDBRANCH   5  18
TORSDOF 6
ENDMDL
MODEL 7
REMARK VINA RESULT:      -7.6      2.998      8.079
REMARK  Name = 
REMARK  6 active torsions:
REMARK  status: ('A' for Active; 'I' for Inactive)
REMARK    1  A    between atoms: C_2  and  C_12
REMARK    2  A    between atoms: N_3  and  C_4
REMARK    3  A    between atoms: C_4  and  C_5
REMARK    4  A    between atoms: C_5  and  C_6
REMARK    5  A    between atoms: N_16  and  S_17
REMARK    6  A    between atoms: S_17  and  C_20
REMARK                            x       y       z     vdW  Elec       q    Type
REMARK                         _______ _______ _______ _____ _____    ______ ____
ROOT
ATOM      1  C   UNL     1       1.910   4.777  19.108  0.00  0.00    +0.000 C 
ATOM      2  C   UNL     1       1.370   4.102  20.376  0.00  0.00    +0.000 C 
ATOM      3  C   UNL     1       1.356   2.638  19.994  0.00  0.00    +0.000 C 
ATOM      4  C   UNL     1       2.532   2.463  19.042  0.00  0.00    +0.000 C 
ATOM      5  N   UNL     1       3.013   3.827  18.648  0.00  0.00    +0.000 NA
ENDROOT
BRANCH   1   7
ATOM      6  O   UNL     1       2.133   7.030  18.319  0.00  0.00    +0.000 OA
ATOM      7  C   UNL     1       1.914   6.292  19.271  0.00  0.00    +0.000 C 
ATOM      8  N   UNL     1       1.723   6.794  20.541  0.00  0.00    +0.000 N 
ATOM      9  H   UNL     1       1.888   6.147  21.309  0.00  0.00    +0.000 HD
BRANCH   8  10
ATOM     10  C   UNL     1       1.839   8.214  20.823  0.00  0.00    +0.000 C 
BRANCH  10  11
ATOM     11  C   UNL     1       0.811   8.692  21.854  0.00  0.00    +0.000 C 
BRANCH  11  12
ATOM     12  C   UNL     1       0.022   9.884  21.360  0.00  0.00    +0.000 A 
ATOM     13  C   UNL     1      -0.440  10.871  22.240  0.00  0.00    +0.000 A 
ATOM     14  C   UNL     1      -1.233  11.923  21.773  0.00  0.00    +0.000 A 
ATOM     15  C   UNL     1      -1.568  12.004  20.422  0.00  0.00    +0.000 A 
ATOM     16  C   UNL     1      -1.086  11.046  19.533  0.00  0.00    +0.000 A 
ATOM     17  C   UNL     1      -0.295   9.994  19.998  0.00  0.00    +0.000 A 
ENDBRANCH  11  12
ENDBRANCH  10  11
ENDBRANCH   8  10
ENDBRANCH   1   7
BRANCH   5  18
ATOM     18  S   UNL     1       4.647   4.131  19.088  0.00  0.00    +0.000 S 
ATOM     19  O   UNL     1       4.695   5.477  19.642  0.00  0.00    +0.000 OA
ATOM     20  O   UNL     1       5.095   2.996  19.847  0.00  0.00    +0.000 OA
BRANCH  18  21
ATOM     21  C   UNL     1       5.602   4.174  17.552  0.00  0.00    +0.000 A 
ATOM     22  C   UNL     1       6.955   4.528  17.493  0.00  0.00    +0.000 A 
ATOM     23  C   UNL     1       7.541   4.794  16.234  0.00  0.00    +0.000 A 
ATOM     24  C   UNL     1       6.780   4.696  15.060  0.00  0.00    +0.000 A 
ATOM     25 CL   UNL     1       7.416   5.204  13.544  0.00  0.00    +0.000 Cl
ATOM     26  C   UNL     1       5.473   4.230  15.122  0.00  0.00    +0.000 A 
ATOM     27  C   UNL     1       4.908   3.928  16.363  0.00  0.00    +0.000 A 
ENDBRANCH  18  21
ENDBRANCH   5  18
TORSDOF 6
ENDMDL
MODEL 8
REMARK VINA RESULT:      -7.5      1.986      3.118
REMARK  Name = 
REMARK  6 active torsions:
REMARK  status: ('A' for Active; 'I' for Inactive)
REMARK    1  A    between atoms: C_2  and  C_12
REMARK    2  A    between atoms: N_3  and  C_4
REMARK    3  A    between atoms: C_4  and  C_5
REMARK    4  A    between atoms: C_5  and  C_6
REMARK    5  A    between atoms: N_16  and  S_17
REMARK    6  A    between atoms: S_17  and  C_20
REMARK                            x       y       z     vdW  Elec       q    Type
REMARK                         _______ _______ _______ _____ _____    ______ ____
ROOT
ATOM      1  C   UNL     1       3.110   3.633  19.723  0.00  0.00    +0.000 C 
ATOM      2  C   UNL     1       1.912   2.791  19.266  0.00  0.00    +0.000 C 
ATOM      3  C   UNL     1       0.806   3.258  20.189  0.00  0.00    +0.000 C 
ATOM      4  C   UNL     1       1.110   4.725  20.465  0.00  0.00    +0.000 C 
ATOM      5  N   UNL     1       2.498   5.009  19.975  0.00  0.00    +0.000 NA
ENDROOT
BRANCH   1   7
ATOM      6  O   UNL     1       5.348   2.793  19.534  0.00  0.00    +0.000 OA
ATOM      7  C   UNL     1       4.365   3.235  18.954  0.00  0.00    +0.000 C 
ATOM      8  N   UNL     1       4.369   3.452  17.593  0.00  0.00    +0.000 N 
ATOM      9  H   UNL     1       3.683   4.116  17.241  0.00  0.00    +0.000 HD
BRANCH   8  10
ATOM     10  C   UNL     1       5.560   3.229  16.790  0.00  0.00    +0.000 C 
BRANCH  10  11
ATOM     11  C   UNL     1       6.020   4.494  16.060  0.00  0.00    +0.000 C 
BRANCH  11  12
ATOM     12  C   UNL     1       6.820   5.410  16.958  0.00  0.00    +0.000 A 
ATOM     13  C   UNL     1       7.440   4.935  18.121  0.00  0.00    +0.000 A 
ATOM     14  C   UNL     1       8.109   5.814  18.979  0.00  0.00    +0.000 A 
ATOM     15  C   UNL     1       8.171   7.174  18.680  0.00  0.00    +0.000 A 
ATOM     16  C   UNL     1       7.588   7.651  17.509  0.00  0.00    +0.000 A 
ATOM     17  C   UNL     1       6.918   6.776  16.653  0.00  0.00    +0.000 A 
ENDBRANCH  11  12
ENDBRANCH  10  11
ENDBRANCH   8  10
ENDBRANCH   1   7
BRANCH   5  18
ATOM     18  S   UNL     1       2.560   6.214  18.751  0.00  0.00    +0.000 S 
ATOM     19  O   UNL     1       3.966   6.443  18.450  0.00  0.00    +0.000 OA
ATOM     20  O   UNL     1       1.633   5.819  17.726  0.00  0.00    +0.000 OA
BRANCH  18  21
ATOM     21  C   UNL     1       1.938   7.743  19.492  0.00  0.00    +0.000 A 
ATOM     22  C   UNL     1       1.587   7.860  20.842  0.00  0.00    +0.000 A 
ATOM     23  C   UNL     1       0.863   8.997  21.267  0.00  0.00    +0.000 A 
ATOM     24  C   UNL     1       0.510   9.999  20.352  0.00  0.00    +0.000 A 
ATOM     25 CL   UNL     1      -0.535  11.289  20.805  0.00  0.00    +0.000 Cl
ATOM     26  C   UNL     1       0.966   9.928  19.042  0.00  0.00    +0.000 A 
ATOM     27  C   UNL     1       1.716   8.823  18.632  0.00  0.00    +0.000 A 
ENDBRANCH  18  21
ENDBRANCH   5  18
TORSDOF 6
ENDMDL
MODEL 9
REMARK VINA RESULT:      -7.5      3.086      8.112
REMARK  Name = 
REMARK  6 active torsions:
REMARK  status: ('A' for Active; 'I' for Inactive)
REMARK    1  A    between atoms: C_2  and  C_12
REMARK    2  A    between atoms: N_3  and  C_4
REMARK    3  A    between atoms: C_4  and  C_5
REMARK    4  A    between atoms: C_5  and  C_6
REMARK    5  A    between atoms: N_16  and  S_17
REMARK    6  A    between atoms: S_17  and  C_20
REMARK                            x       y       z     vdW  Elec       q    Type
REMARK                         _______ _______ _______ _____ _____    ______ ____
ROOT
ATOM      1  C   UNL     1       1.932   4.783  19.461  0.00  0.00    +0.000 C 
ATOM      2  C   UNL     1       1.520   4.171  20.806  0.00  0.00    +0.000 C 
ATOM      3  C   UNL     1       1.412   2.696  20.481  0.00  0.00    +0.000 C 
ATOM      4  C   UNL     1       2.464   2.447  19.407  0.00  0.00    +0.000 C 
ATOM      5  N   UNL     1       2.941   3.779  18.911  0.00  0.00    +0.000 NA
ENDROOT
BRANCH   1   7
ATOM      6  O   UNL     1       2.481   6.977  18.663  0.00  0.00    +0.000 OA
ATOM      7  C   UNL     1       2.006   6.302  19.567  0.00  0.00    +0.000 C 
ATOM      8  N   UNL     1       1.574   6.877  20.744  0.00  0.00    +0.000 N 
ATOM      9  H   UNL     1       1.519   6.260  21.551  0.00  0.00    +0.000 HD
BRANCH   8  10
ATOM     10  C   UNL     1       1.723   8.300  20.995  0.00  0.00    +0.000 C 
BRANCH  10  11
ATOM     11  C   UNL     1       0.725   8.819  22.036  0.00  0.00    +0.000 C 
BRANCH  11  12
ATOM     12  C   UNL     1      -0.082   9.986  21.516  0.00  0.00    +0.000 A 
ATOM     13  C   UNL     1      -0.650  10.928  22.385  0.00  0.00    +0.000 A 
ATOM     14  C   UNL     1      -1.458  11.955  21.888  0.00  0.00    +0.000 A 
ATOM     15  C   UNL     1      -1.702  12.057  20.520  0.00  0.00    +0.000 A 
ATOM     16  C   UNL     1      -1.115  11.147  19.644  0.00  0.00    +0.000 A 
ATOM     17  C   UNL     1      -0.310  10.119  20.138  0.00  0.00    +0.000 A 
ENDBRANCH  11  12
ENDBRANCH  10  11
ENDBRANCH   8  10
ENDBRANCH   1   7
BRANCH   5  18
ATOM     18  S   UNL     1       4.625   4.036  19.149  0.00  0.00    +0.000 S 
ATOM     19  O   UNL     1       4.759   5.182  20.037  0.00  0.00    +0.000 OA
ATOM     20  O   UNL     1       5.200   2.762  19.484  0.00  0.00    +0.000 OA
BRANCH  18  21
ATOM     21  C   UNL     1       5.306   4.541  17.552  0.00  0.00    +0.000 A 
ATOM     22  C   UNL     1       4.541   4.649  16.384  0.00  0.00    +0.000 A 
ATOM     23  C   UNL     1       5.200   4.785  15.141  0.00  0.00    +0.000 A 
ATOM     24  C   UNL     1       6.600   4.820  15.078  0.00  0.00    +0.000 A 
ATOM     25 CL   UNL     1       7.424   4.786  13.567  0.00  0.00    +0.000 Cl
ATOM     26  C   UNL     1       7.343   4.831  16.252  0.00  0.00    +0.000 A 
ATOM     27  C   UNL     1       6.689   4.738  17.482  0.00  0.00    +0.000 A 
ENDBRANCH  18  21
ENDBRANCH   5  18
TORSDOF 6
ENDMDL
