MODEL 1
REMARK VINA RESULT:      -7.2      0.000      0.000
REMARK  Name = 
REMARK  6 active torsions:
REMARK  status: ('A' for Active; 'I' for Inactive)
REMARK    1  A    between atoms: C_1  and  C_2
REMARK    2  A    between atoms: C_3  and  C_4
REMARK    3  A    between atoms: C_4  and  C_5
REMARK    4  A    between atoms: C_9  and  O_10
REMARK    5  A    between atoms: N_15  and  C_16
REMARK    6  A    between atoms: C_16  and  C_17
REMARK                            x       y       z     vdW  Elec       q    Type
REMARK                         _______ _______ _______ _____ _____    ______ ____
ROOT
ATOM      1  C   UNL     1       4.815   7.137  16.734  0.00  0.00    +0.000 C 
ATOM      2  C   UNL     1       4.310   6.011  17.578  0.00  0.00    +0.000 A 
ATOM      3  C   UNL     1       4.985   4.945  18.170  0.00  0.00    +0.000 A 
ATOM      4  C   UNL     1       4.019   4.194  18.939  0.00  0.00    +0.000 A 
ATOM      5  C   UNL     1       4.046   3.079  19.821  0.00  0.00    +0.000 A 
ATOM      6  C   UNL     1       2.871   2.600  20.408  0.00  0.00    +0.000 A 
ATOM      7  C   UNL     1       1.651   3.192  20.130  0.00  0.00    +0.000 A 
ATOM      8  C   UNL     1       1.582   4.295  19.282  0.00  0.00    +0.000 A 
ATOM      9  C   UNL     1       2.772   4.797  18.716  0.00  0.00    +0.000 A 
ATOM     10  N   UNL     1       2.981   5.925  17.940  0.00  0.00    +0.000 N 
ENDROOT
BRANCH   5  11
ATOM     11  O   UNL     1       5.179   2.399  20.227  0.00  0.00    +0.000 OA
ATOM     12  H   UNL     1       5.039   1.954  21.083  0.00  0.00    +0.000 HD
ENDBRANCH   5  11
BRANCH   3  13
ATOM     13  C   UNL     1       6.463   4.689  18.082  0.00  0.00    +0.000 C 
BRANCH  13  14
ATOM     14  C   UNL     1       7.282   5.568  19.000  0.00  0.00    +0.000 C 
ATOM     15  N   UNL     1       7.865   6.671  18.457  0.00  0.00    +0.000 N 
ATOM     16  O   UNL     1       7.437   5.301  20.191  0.00  0.00    +0.000 OA
ATOM     17  H   UNL     1       8.105   6.672  17.473  0.00  0.00    +0.000 HD
ATOM     18  H   UNL     1       8.490   7.178  19.074  0.00  0.00    +0.000 HD
ENDBRANCH  13  14
ENDBRANCH   3  13
BRANCH  10  19
ATOM     19  C   UNL     1       1.927   6.866  17.545  0.00  0.00    +0.000 C 
BRANCH  19  20
ATOM     20  C   UNL     1       1.780   8.076  18.449  0.00  0.00    +0.000 A 
ATOM     21  C   UNL     1       1.674   9.354  17.868  0.00  0.00    +0.000 A 
ATOM     22  C   UNL     1       1.395  10.481  18.649  0.00  0.00    +0.000 A 
ATOM     23  C   UNL     1       1.210  10.350  20.023  0.00  0.00    +0.000 A 
ATOM     24  C   UNL     1       1.326   9.095  20.613  0.00  0.00    +0.000 A 
ATOM     25 CL   UNL     1       1.080   8.926  22.309  0.00  0.00    +0.000 Cl
ATOM     26  C   UNL     1       1.612   7.968  19.839  0.00  0.00    +0.000 A 
ENDBRANCH  19  20
ENDBRANCH  10  19
TORSDOF 5
ENDMDL
MODEL 2
REMARK VINA RESULT:      -7.1      1.251      1.318
REMARK  Name = 
REMARK  6 active torsions:
REMARK  status: ('A' for Active; 'I' for Inactive)
REMARK    1  A    between atoms: C_1  and  C_2
REMARK    2  A    between atoms: C_3  and  C_4
REMARK    3  A    between atoms: C_4  and  C_5
REMARK    4  A    between atoms: C_9  and  O_10
REMARK    5  A    between atoms: N_15  and  C_16
REMARK    6  A    between atoms: C_16  and  C_17
REMARK                            x       y       z     vdW  Elec       q    Type
REMARK                         _______ _______ _______ _____ _____    ______ ____
ROOT
ATOM      1  C   UNL     1       4.762   7.188  16.923  0.00  0.00    +0.000 C 
ATOM      2  C   UNL     1       4.205   6.053  17.722  0.00  0.00    +0.000 A 
ATOM      3  C   UNL     1       4.840   4.963  18.315  0.00  0.00    +0.000 A 
ATOM      4  C   UNL     1       3.832   4.213  19.030  0.00  0.00    +0.000 A 
ATOM      5  C   UNL     1       3.806   3.079  19.888  0.00  0.00    +0.000 A 
ATOM      6  C   UNL     1       2.602   2.608  20.419  0.00  0.00    +0.000 A 
ATOM      7  C   UNL     1       1.403   3.227  20.106  0.00  0.00    +0.000 A 
ATOM      8  C   UNL     1       1.385   4.349  19.280  0.00  0.00    +0.000 A 
ATOM      9  C   UNL     1       2.604   4.842  18.772  0.00  0.00    +0.000 A 
ATOM     10  N   UNL     1       2.862   5.982  18.030  0.00  0.00    +0.000 N 
ENDROOT
BRANCH   5  11
ATOM     11  O   UNL     1       4.911   2.372  20.323  0.00  0.00    +0.000 OA
ATOM     12  H   UNL     1       5.687   2.954  20.430  0.00  0.00    +0.000 HD
ENDBRANCH   5  11
BRANCH   3  13
ATOM     13  C   UNL     1       6.315   4.684  18.280  0.00  0.00    +0.000 C 
BRANCH  13  14
ATOM     14  C   UNL     1       6.819   4.278  16.913  0.00  0.00    +0.000 C 
ATOM     15  N   UNL     1       5.982   3.547  16.128  0.00  0.00    +0.000 N 
ATOM     16  O   UNL     1       7.945   4.576  16.519  0.00  0.00    +0.000 OA
ATOM     17  H   UNL     1       5.283   2.957  16.562  0.00  0.00    +0.000 HD
ATOM     18  H   UNL     1       6.389   3.204  15.265  0.00  0.00    +0.000 HD
ENDBRANCH  13  14
ENDBRANCH   3  13
BRANCH  10  19
ATOM     19  C   UNL     1       1.840   6.950  17.614  0.00  0.00    +0.000 C 
BRANCH  19  20
ATOM     20  C   UNL     1       1.699   8.158  18.520  0.00  0.00    +0.000 A 
ATOM     21  C   UNL     1       1.559   9.434  17.941  0.00  0.00    +0.000 A 
ATOM     22  C   UNL     1       1.284  10.558  18.729  0.00  0.00    +0.000 A 
ATOM     23  C   UNL     1       1.138  10.425  20.107  0.00  0.00    +0.000 A 
ATOM     24  C   UNL     1       1.289   9.173  20.695  0.00  0.00    +0.000 A 
ATOM     25 CL   UNL     1       1.091   9.004  22.397  0.00  0.00    +0.000 Cl
ATOM     26  C   UNL     1       1.570   8.050  19.915  0.00  0.00    +0.000 A 
ENDBRANCH  19  20
ENDBRANCH  10  19
TORSDOF 5
ENDMDL
MODEL 3
REMARK VINA RESULT:      -7.1      7.423     10.490
REMARK  Name = 
REMARK  6 active torsions:
REMARK  status: ('A' for Active; 'I' for Inactive)
REMARK    1  A    between atoms: C_1  and  C_2
REMARK    2  A    between atoms: C_3  and  C_4
REMARK    3  A    between atoms: C_4  and  C_5
REMARK    4  A    between atoms: C_9  and  O_10
REMARK    5  A    between atoms: N_15  and  C_16
REMARK    6  A    between atoms: C_16  and  C_17
REMARK                            x       y       z     vdW  Elec       q    Type
REMARK                         _______ _______ _______ _____ _____    ______ ____
ROOT
ATOM      1  C   UNL     1      -3.911  13.410  22.072  0.00  0.00    +0.000 C 
ATOM      2  C   UNL     1      -3.890  12.777  20.718  0.00  0.00    +0.000 A 
ATOM      3  C   UNL     1      -4.935  12.429  19.862  0.00  0.00    +0.000 A 
ATOM      4  C   UNL     1      -4.345  11.917  18.646  0.00  0.00    +0.000 A 
ATOM      5  C   UNL     1      -4.815  11.477  17.379  0.00  0.00    +0.000 A 
ATOM      6  C   UNL     1      -3.925  11.026  16.399  0.00  0.00    +0.000 A 
ATOM      7  C   UNL     1      -2.563  10.984  16.650  0.00  0.00    +0.000 A 
ATOM      8  C   UNL     1      -2.059  11.419  17.873  0.00  0.00    +0.000 A 
ATOM      9  C   UNL     1      -2.956  11.903  18.848  0.00  0.00    +0.000 A 
ATOM     10  N   UNL     1      -2.703  12.481  20.081  0.00  0.00    +0.000 N 
ENDROOT
BRANCH   5  11
ATOM     11  O   UNL     1      -6.133  11.487  16.959  0.00  0.00    +0.000 OA
ATOM     12  H   UNL     1      -6.314  10.756  16.341  0.00  0.00    +0.000 HD
ENDBRANCH   5  11
BRANCH   3  13
ATOM     13  C   UNL     1      -6.397  12.636  20.137  0.00  0.00    +0.000 C 
BRANCH  13  14
ATOM     14  C   UNL     1      -7.107  11.383  20.598  0.00  0.00    +0.000 C 
ATOM     15  N   UNL     1      -7.575  10.538  19.638  0.00  0.00    +0.000 N 
ATOM     16  O   UNL     1      -7.276  11.130  21.790  0.00  0.00    +0.000 OA
ATOM     17  H   UNL     1      -7.825  10.909  18.730  0.00  0.00    +0.000 HD
ATOM     18  H   UNL     1      -8.135   9.765  19.980  0.00  0.00    +0.000 HD
ENDBRANCH  13  14
ENDBRANCH   3  13
BRANCH  10  19
ATOM     19  C   UNL     1      -1.361  12.711  20.628  0.00  0.00    +0.000 C 
BRANCH  19  20
ATOM     20  C   UNL     1      -0.731  11.506  21.301  0.00  0.00    +0.000 A 
ATOM     21  C   UNL     1      -1.095  11.194  22.625  0.00  0.00    +0.000 A 
ATOM     22  C   UNL     1      -0.652  10.017  23.237  0.00  0.00    +0.000 A 
ATOM     23  C   UNL     1       0.157   9.127  22.535  0.00  0.00    +0.000 A 
ATOM     24  C   UNL     1       0.537   9.429  21.231  0.00  0.00    +0.000 A 
ATOM     25 CL   UNL     1       1.523   8.323  20.355  0.00  0.00    +0.000 Cl
ATOM     26  C   UNL     1       0.103  10.607  20.618  0.00  0.00    +0.000 A 
ENDBRANCH  19  20
ENDBRANCH  10  19
TORSDOF 5
ENDMDL
MODEL 4
REMARK VINA RESULT:      -7.0      4.211      6.353
REMARK  Name = 
REMARK  6 active torsions:
REMARK  status: ('A' for Active; 'I' for Inactive)
REMARK    1  A    between atoms: C_1  and  C_2
REMARK    2  A    between atoms: C_3  and  C_4
REMARK    3  A    between atoms: C_4  and  C_5
REMARK    4  A    between atoms: C_9  and  O_10
REMARK    5  A    between atoms: N_15  and  C_16
REMARK    6  A    between atoms: C_16  and  C_17
REMARK                            x       y       z     vdW  Elec       q    Type
REMARK                         _______ _______ _______ _____ _____    ______ ____
ROOT
ATOM      1  C   UNL     1       5.439   7.104  16.689  0.00  0.00    +0.000 C 
ATOM      2  C   UNL     1       4.710   5.883  17.148  0.00  0.00    +0.000 A 
ATOM      3  C   UNL     1       3.445   5.740  17.715  0.00  0.00    +0.000 A 
ATOM      4  C   UNL     1       3.210   4.326  17.899  0.00  0.00    +0.000 A 
ATOM      5  C   UNL     1       2.131   3.508  18.335  0.00  0.00    +0.000 A 
ATOM      6  C   UNL     1       2.261   2.117  18.390  0.00  0.00    +0.000 A 
ATOM      7  C   UNL     1       3.452   1.506  18.035  0.00  0.00    +0.000 A 
ATOM      8  C   UNL     1       4.529   2.268  17.589  0.00  0.00    +0.000 A 
ATOM      9  C   UNL     1       4.385   3.668  17.503  0.00  0.00    +0.000 A 
ATOM     10  N   UNL     1       5.253   4.623  17.000  0.00  0.00    +0.000 N 
ENDROOT
BRANCH   5  11
ATOM     11  O   UNL     1       0.872   3.956  18.690  0.00  0.00    +0.000 OA
ATOM     12  H   UNL     1       0.233   3.831  17.964  0.00  0.00    +0.000 HD
ENDBRANCH   5  11
BRANCH   3  13
ATOM     13  C   UNL     1       2.481   6.857  17.997  0.00  0.00    +0.000 C 
BRANCH  13  14
ATOM     14  C   UNL     1       2.341   7.175  19.469  0.00  0.00    +0.000 C 
ATOM     15  N   UNL     1       2.699   6.207  20.357  0.00  0.00    +0.000 N 
ATOM     16  O   UNL     1       1.907   8.256  19.864  0.00  0.00    +0.000 OA
ATOM     17  H   UNL     1       2.640   5.235  20.081  0.00  0.00    +0.000 HD
ATOM     18  H   UNL     1       2.494   6.415  21.328  0.00  0.00    +0.000 HD
ENDBRANCH  13  14
ENDBRANCH   3  13
BRANCH  10  19
ATOM     19  C   UNL     1       6.568   4.325  16.423  0.00  0.00    +0.000 C 
BRANCH  19  20
ATOM     20  C   UNL     1       6.634   4.404  14.909  0.00  0.00    +0.000 A 
ATOM     21  C   UNL     1       7.637   5.190  14.308  0.00  0.00    +0.000 A 
ATOM     22  C   UNL     1       7.826   5.183  12.922  0.00  0.00    +0.000 A 
ATOM     23  C   UNL     1       7.023   4.385  12.112  0.00  0.00    +0.000 A 
ATOM     24  C   UNL     1       6.018   3.614  12.690  0.00  0.00    +0.000 A 
ATOM     25 CL   UNL     1       5.035   2.612  11.693  0.00  0.00    +0.000 Cl
ATOM     26  C   UNL     1       5.820   3.623  14.072  0.00  0.00    +0.000 A 
ENDBRANCH  19  20
ENDBRANCH  10  19
TORSDOF 5
ENDMDL
MODEL 5
REMARK VINA RESULT:      -7.0      3.259      5.127
REMARK  Name = 
REMARK  6 active torsions:
REMARK  status: ('A' for Active; 'I' for Inactive)
REMARK    1  A    between atoms: C_1  and  C_2
REMARK    2  A    between atoms: C_3  and  C_4
REMARK    3  A    between atoms: C_4  and  C_5
REMARK    4  A    between atoms: C_9  and  O_10
REMARK    5  A    between atoms: N_15  and  C_16
REMARK    6  A    between atoms: C_16  and  C_17
REMARK                            x       y       z     vdW  Elec       q    Type
REMARK                         _______ _______ _______ _____ _____    ______ ____
ROOT
ATOM      1  C   UNL     1       3.768   3.132  16.406  0.00  0.00    +0.000 C 
ATOM      2  C   UNL     1       4.877   3.978  16.944  0.00  0.00    +0.000 A 
ATOM      3  C   UNL     1       5.690   4.919  16.314  0.00  0.00    +0.000 A 
ATOM      4  C   UNL     1       6.548   5.495  17.324  0.00  0.00    +0.000 A 
ATOM      5  C   UNL     1       7.522   6.530  17.381  0.00  0.00    +0.000 A 
ATOM      6  C   UNL     1       8.185   6.826  18.575  0.00  0.00    +0.000 A 
ATOM      7  C   UNL     1       7.919   6.105  19.728  0.00  0.00    +0.000 A 
ATOM      8  C   UNL     1       6.963   5.092  19.719  0.00  0.00    +0.000 A 
ATOM      9  C   UNL     1       6.272   4.816  18.521  0.00  0.00    +0.000 A 
ATOM     10  N   UNL     1       5.220   3.948  18.280  0.00  0.00    +0.000 N 
ENDROOT
BRANCH   5  11
ATOM     11  O   UNL     1       7.877   7.361  16.335  0.00  0.00    +0.000 OA
ATOM     12  H   UNL     1       7.528   8.263  16.463  0.00  0.00    +0.000 HD
ENDBRANCH   5  11
BRANCH   3  13
ATOM     13  C   UNL     1       5.613   5.311  14.866  0.00  0.00    +0.000 C 
BRANCH  13  14
ATOM     14  C   UNL     1       6.764   4.787  14.037  0.00  0.00    +0.000 C 
ATOM     15  N   UNL     1       6.574   3.616  13.370  0.00  0.00    +0.000 N 
ATOM     16  O   UNL     1       7.841   5.377  13.971  0.00  0.00    +0.000 OA
ATOM     17  H   UNL     1       5.913   2.940  13.733  0.00  0.00    +0.000 HD
ATOM     18  H   UNL     1       7.397   3.242  12.911  0.00  0.00    +0.000 HD
ENDBRANCH  13  14
ENDBRANCH   3  13
BRANCH  10  19
ATOM     19  C   UNL     1       4.593   3.103  19.302  0.00  0.00    +0.000 C 
BRANCH  19  20
ATOM     20  C   UNL     1       3.215   3.558  19.748  0.00  0.00    +0.000 A 
ATOM     21  C   UNL     1       2.240   2.588  20.049  0.00  0.00    +0.000 A 
ATOM     22  C   UNL     1       1.005   2.952  20.598  0.00  0.00    +0.000 A 
ATOM     23  C   UNL     1       0.727   4.291  20.863  0.00  0.00    +0.000 A 
ATOM     24  C   UNL     1       1.676   5.262  20.558  0.00  0.00    +0.000 A 
ATOM     25 CL   UNL     1       1.342   6.915  20.901  0.00  0.00    +0.000 Cl
ATOM     26  C   UNL     1       2.907   4.904  20.002  0.00  0.00    +0.000 A 
ENDBRANCH  19  20
ENDBRANCH  10  19
TORSDOF 5
ENDMDL
MODEL 6
REMARK VINA RESULT:      -6.9      2.942      5.110
REMARK  Name = 
REMARK  6 active torsions:
REMARK  status: ('A' for Active; 'I' for Inactive)
REMARK    1  A    between atoms: C_1  and  C_2
REMARK    2  A    between atoms: C_3  and  C_4
REMARK    3  A    between atoms: C_4  and  C_5
REMARK    4  A    between atoms: C_9  and  O_10
REMARK    5  A    between atoms: N_15  and  C_16
REMARK    6  A    between atoms: C_16  and  C_17
REMARK                            x       y       z     vdW  Elec       q    Type
REMARK                         _______ _______ _______ _____ _____    ______ ____
ROOT
ATOM      1  C   UNL     1       5.283   3.665  15.775  0.00  0.00    +0.000 C 
ATOM      2  C   UNL     1       4.344   4.338  16.724  0.00  0.00    +0.000 A 
ATOM      3  C   UNL     1       3.322   3.815  17.514  0.00  0.00    +0.000 A 
ATOM      4  C   UNL     1       2.782   4.902  18.298  0.00  0.00    +0.000 A 
ATOM      5  C   UNL     1       1.812   5.048  19.328  0.00  0.00    +0.000 A 
ATOM      6  C   UNL     1       1.531   6.303  19.877  0.00  0.00    +0.000 A 
ATOM      7  C   UNL     1       2.182   7.436  19.417  0.00  0.00    +0.000 A 
ATOM      8  C   UNL     1       3.148   7.336  18.419  0.00  0.00    +0.000 A 
ATOM      9  C   UNL     1       3.453   6.065  17.890  0.00  0.00    +0.000 A 
ATOM     10  N   UNL     1       4.431   5.690  16.982  0.00  0.00    +0.000 N 
ENDROOT
BRANCH   5  11
ATOM     11  O   UNL     1       1.103   4.019  19.920  0.00  0.00    +0.000 OA
ATOM     12  H   UNL     1       0.148   4.216  19.948  0.00  0.00    +0.000 HD
ENDBRANCH   5  11
BRANCH   3  13
ATOM     13  C   UNL     1       2.926   2.368  17.588  0.00  0.00    +0.000 C 
BRANCH  13  14
ATOM     14  C   UNL     1       3.489   1.649  18.793  0.00  0.00    +0.000 C 
ATOM     15  N   UNL     1       4.316   0.593  18.564  0.00  0.00    +0.000 N 
ATOM     16  O   UNL     1       3.207   1.985  19.943  0.00  0.00    +0.000 OA
ATOM     17  H   UNL     1       4.217   0.062  17.708  0.00  0.00    +0.000 HD
ATOM     18  H   UNL     1       4.590   0.072  19.389  0.00  0.00    +0.000 HD
ENDBRANCH  13  14
ENDBRANCH   3  13
BRANCH  10  19
ATOM     19  C   UNL     1       5.392   6.615  16.371  0.00  0.00    +0.000 C 
BRANCH  19  20
ATOM     20  C   UNL     1       6.479   7.114  17.305  0.00  0.00    +0.000 A 
ATOM     21  C   UNL     1       7.133   6.195  18.147  0.00  0.00    +0.000 A 
ATOM     22  C   UNL     1       8.234   6.580  18.920  0.00  0.00    +0.000 A 
ATOM     23  C   UNL     1       8.705   7.888  18.859  0.00  0.00    +0.000 A 
ATOM     24  C   UNL     1       8.061   8.812  18.042  0.00  0.00    +0.000 A 
ATOM     25 CL   UNL     1       8.653  10.426  17.952  0.00  0.00    +0.000 Cl
ATOM     26  C   UNL     1       6.956   8.435  17.275  0.00  0.00    +0.000 A 
ENDBRANCH  19  20
ENDBRANCH  10  19
TORSDOF 5
ENDMDL
MODEL 7
REMARK VINA RESULT:      -6.9      1.802      3.704
REMARK  Name = 
REMARK  6 active torsions:
REMARK  status: ('A' for Active; 'I' for Inactive)
REMARK    1  A    between atoms: C_1  and  C_2
REMARK    2  A    between atoms: C_3  and  C_4
REMARK    3  A    between atoms: C_4  and  C_5
REMARK    4  A    between atoms: C_9  and  O_10
REMARK    5  A    between atoms: N_15  and  C_16
REMARK    6  A    between atoms: C_16  and  C_17
REMARK                            x       y       z     vdW  Elec       q    Type
REMARK                         _______ _______ _______ _____ _____    ______ ____
ROOT
ATOM      1  C   UNL     1       1.520   4.778  17.840  0.00  0.00    +0.000 C 
ATOM      2  C   UNL     1       2.970   5.141  17.855  0.00  0.00    +0.000 A 
ATOM      3  C   UNL     1       4.103   4.349  18.039  0.00  0.00    +0.000 A 
ATOM      4  C   UNL     1       5.258   5.203  17.884  0.00  0.00    +0.000 A 
ATOM      5  C   UNL     1       6.670   5.034  17.864  0.00  0.00    +0.000 A 
ATOM      6  C   UNL     1       7.521   6.129  17.687  0.00  0.00    +0.000 A 
ATOM      7  C   UNL     1       7.007   7.406  17.542  0.00  0.00    +0.000 A 
ATOM      8  C   UNL     1       5.630   7.614  17.541  0.00  0.00    +0.000 A 
ATOM      9  C   UNL     1       4.772   6.505  17.688  0.00  0.00    +0.000 A 
ATOM     10  N   UNL     1       3.391   6.433  17.616  0.00  0.00    +0.000 N 
ENDROOT
BRANCH   5  11
ATOM     11  O   UNL     1       7.339   3.828  17.961  0.00  0.00    +0.000 OA
ATOM     12  H   UNL     1       7.858   3.774  18.785  0.00  0.00    +0.000 HD
ENDBRANCH   5  11
BRANCH   3  13
ATOM     13  C   UNL     1       4.104   2.864  18.270  0.00  0.00    +0.000 C 
BRANCH  13  14
ATOM     14  C   UNL     1       4.081   2.482  19.732  0.00  0.00    +0.000 C 
ATOM     15  N   UNL     1       5.159   1.809  20.222  0.00  0.00    +0.000 N 
ATOM     16  O   UNL     1       3.126   2.747  20.461  0.00  0.00    +0.000 OA
ATOM     17  H   UNL     1       5.710   1.234  19.597  0.00  0.00    +0.000 HD
ATOM     18  H   UNL     1       5.064   1.477  21.175  0.00  0.00    +0.000 HD
ENDBRANCH  13  14
ENDBRANCH   3  13
BRANCH  10  19
ATOM     19  C   UNL     1       2.514   7.579  17.352  0.00  0.00    +0.000 C 
BRANCH  19  20
ATOM     20  C   UNL     1       1.858   8.178  18.582  0.00  0.00    +0.000 A 
ATOM     21  C   UNL     1       2.066   7.567  19.834  0.00  0.00    +0.000 A 
ATOM     22  C   UNL     1       1.602   8.160  21.013  0.00  0.00    +0.000 A 
ATOM     23  C   UNL     1       0.928   9.378  20.963  0.00  0.00    +0.000 A 
ATOM     24  C   UNL     1       0.702   9.986  19.732  0.00  0.00    +0.000 A 
ATOM     25 CL   UNL     1      -0.114  11.501  19.670  0.00  0.00    +0.000 Cl
ATOM     26  C   UNL     1       1.157   9.395  18.552  0.00  0.00    +0.000 A 
ENDBRANCH  19  20
ENDBRANCH  10  19
TORSDOF 5
ENDMDL
MODEL 8
REMARK VINA RESULT:      -6.9      3.476      6.304
REMARK  Name = 
REMARK  6 active torsions:
REMARK  status: ('A' for Active; 'I' for Inactive)
REMARK    1  A    between atoms: C_1  and  C_2
REMARK    2  A    between atoms: C_3  and  C_4
REMARK    3  A    between atoms: C_4  and  C_5
REMARK    4  A    between atoms: C_9  and  O_10
REMARK    5  A    between atoms: N_15  and  C_16
REMARK    6  A    between atoms: C_16  and  C_17
REMARK                            x       y       z     vdW  Elec       q    Type
REMARK                         _______ _______ _______ _____ _____    ______ ____
ROOT
ATOM      1  C   UNL     1       3.418   2.421  18.945  0.00  0.00    +0.000 C 
ATOM      2  C   UNL     1       3.022   3.863  18.979  0.00  0.00    +0.000 A 
ATOM      3  C   UNL     1       2.562   4.654  20.031  0.00  0.00    +0.000 A 
ATOM      4  C   UNL     1       2.400   5.997  19.523  0.00  0.00    +0.000 A 
ATOM      5  C   UNL     1       2.056   7.268  20.061  0.00  0.00    +0.000 A 
ATOM      6  C   UNL     1       1.991   8.400  19.242  0.00  0.00    +0.000 A 
ATOM      7  C   UNL     1       2.246   8.304  17.885  0.00  0.00    +0.000 A 
ATOM      8  C   UNL     1       2.601   7.081  17.320  0.00  0.00    +0.000 A 
ATOM      9  C   UNL     1       2.697   5.947  18.152  0.00  0.00    +0.000 A 
ATOM     10  N   UNL     1       3.125   4.663  17.860  0.00  0.00    +0.000 N 
ENDROOT
BRANCH   5  11
ATOM     11  O   UNL     1       1.806   7.539  21.393  0.00  0.00    +0.000 OA
ATOM     12  H   UNL     1       0.864   7.416  21.611  0.00  0.00    +0.000 HD
ENDBRANCH   5  11
BRANCH   3  13
ATOM     13  C   UNL     1       2.360   4.195  21.447  0.00  0.00    +0.000 C 
BRANCH  13  14
ATOM     14  C   UNL     1       1.465   2.982  21.566  0.00  0.00    +0.000 C 
ATOM     15  N   UNL     1       0.426   2.881  20.693  0.00  0.00    +0.000 N 
ATOM     16  O   UNL     1       1.648   2.119  22.423  0.00  0.00    +0.000 OA
ATOM     17  H   UNL     1       0.021   3.724  20.304  0.00  0.00    +0.000 HD
ATOM     18  H   UNL     1      -0.212   2.113  20.868  0.00  0.00    +0.000 HD
ENDBRANCH  13  14
ENDBRANCH   3  13
BRANCH  10  19
ATOM     19  C   UNL     1       3.592   4.225  16.539  0.00  0.00    +0.000 C 
BRANCH  19  20
ATOM     20  C   UNL     1       5.039   4.558  16.231  0.00  0.00    +0.000 A 
ATOM     21  C   UNL     1       5.979   4.557  17.280  0.00  0.00    +0.000 A 
ATOM     22  C   UNL     1       7.346   4.717  17.024  0.00  0.00    +0.000 A 
ATOM     23  C   UNL     1       7.798   4.873  15.717  0.00  0.00    +0.000 A 
ATOM     24  C   UNL     1       6.879   4.890  14.672  0.00  0.00    +0.000 A 
ATOM     25 CL   UNL     1       7.437   5.065  13.052  0.00  0.00    +0.000 Cl
ATOM     26  C   UNL     1       5.514   4.739  14.922  0.00  0.00    +0.000 A 
ENDBRANCH  19  20
ENDBRANCH  10  19
TORSDOF 5
ENDMDL
MODEL 9
REMARK VINA RESULT:      -6.7      4.330      7.173
REMARK  Name = 
REMARK  6 active torsions:
REMARK  status: ('A' for Active; 'I' for Inactive)
REMARK    1  A    between atoms: C_1  and  C_2
REMARK    2  A    between atoms: C_3  and  C_4
REMARK    3  A    between atoms: C_4  and  C_5
REMARK    4  A    between atoms: C_9  and  O_10
REMARK    5  A    between atoms: N_15  and  C_16
REMARK    6  A    between atoms: C_16  and  C_17
REMARK                            x       y       z     vdW  Elec       q    Type
REMARK                         _______ _______ _______ _____ _____    ______ ____
ROOT
ATOM      1  C   UNL     1       1.885   8.874  17.405  0.00  0.00    +0.000 C 
ATOM      2  C   UNL     1       1.315   9.246  18.735  0.00  0.00    +0.000 A 
ATOM      3  C   UNL     1       0.361  10.204  19.079  0.00  0.00    +0.000 A 
ATOM      4  C   UNL     1       0.126  10.089  20.500  0.00  0.00    +0.000 A 
ATOM      5  C   UNL     1      -0.749  10.682  21.451  0.00  0.00    +0.000 A 
ATOM      6  C   UNL     1      -0.696  10.318  22.801  0.00  0.00    +0.000 A 
ATOM      7  C   UNL     1       0.224   9.382  23.243  0.00  0.00    +0.000 A 
ATOM      8  C   UNL     1       1.090   8.766  22.342  0.00  0.00    +0.000 A 
ATOM      9  C   UNL     1       1.013   9.111  20.977  0.00  0.00    +0.000 A 
ATOM     10  N   UNL     1       1.677   8.576  19.886  0.00  0.00    +0.000 N 
ENDROOT
BRANCH   5  11
ATOM     11  O   UNL     1      -1.741  11.603  21.170  0.00  0.00    +0.000 OA
ATOM     12  H   UNL     1      -1.387  12.511  21.144  0.00  0.00    +0.000 HD
ENDBRANCH   5  11
BRANCH   3  13
ATOM     13  C   UNL     1      -0.345  11.119  18.120  0.00  0.00    +0.000 C 
BRANCH  13  14
ATOM     14  C   UNL     1      -1.723  10.635  17.729  0.00  0.00    +0.000 C 
ATOM     15  N   UNL     1      -2.792  11.271  18.282  0.00  0.00    +0.000 N 
ATOM     16  O   UNL     1      -1.888   9.694  16.954  0.00  0.00    +0.000 OA
ATOM     17  H   UNL     1      -2.691  11.713  19.188  0.00  0.00    +0.000 HD
ATOM     18  H   UNL     1      -3.694  10.854  18.081  0.00  0.00    +0.000 HD
ENDBRANCH  13  14
ENDBRANCH   3  13
BRANCH  10  19
ATOM     19  C   UNL     1       2.645   7.476  19.962  0.00  0.00    +0.000 C 
BRANCH  19  20
ATOM     20  C   UNL     1       2.078   6.105  19.644  0.00  0.00    +0.000 A 
ATOM     21  C   UNL     1       1.975   5.702  18.299  0.00  0.00    +0.000 A 
ATOM     22  C   UNL     1       1.594   4.398  17.963  0.00  0.00    +0.000 A 
ATOM     23  C   UNL     1       1.316   3.472  18.964  0.00  0.00    +0.000 A 
ATOM     24  C   UNL     1       1.399   3.860  20.298  0.00  0.00    +0.000 A 
ATOM     25 CL   UNL     1       1.074   2.712  21.539  0.00  0.00    +0.000 Cl
ATOM     26  C   UNL     1       1.772   5.162  20.639  0.00  0.00    +0.000 A 
ENDBRANCH  19  20
ENDBRANCH  10  19
TORSDOF 5
ENDMDL
