MODEL 1
REMARK VINA RESULT:      -8.4      0.000      0.000
REMARK  Name = 
REMARK  6 active torsions:
REMARK  status: ('A' for Active; 'I' for Inactive)
REMARK    1  A    between atoms: C_2  and  C_13
REMARK    2  A    between atoms: N_3  and  C_4
REMARK    3  A    between atoms: C_4  and  C_5
REMARK    4  A    between atoms: C_5  and  C_6
REMARK    5  A    between atoms: C_9  and  O_10
REMARK    6  A    between atoms: C_13  and  C_15
REMARK                            x       y       z     vdW  Elec       q    Type
REMARK                         _______ _______ _______ _____ _____    ______ ____
ROOT
ATOM      1  O   UNL     1       6.900   7.563  16.661  0.00  0.00    +0.000 OA
ATOM      2  C   UNL     1       7.438   7.263  17.716  0.00  0.00    +0.000 C 
ATOM      3  N   UNL     1       8.201   8.114  18.497  0.00  0.00    +0.000 N 
ATOM      4  H   UNL     1       8.768   7.683  19.220  0.00  0.00    +0.000 HD
ENDROOT
BRANCH   2   5
ATOM      5  C   UNL     1       7.318   5.846  18.281  0.00  0.00    +0.000 C 
ATOM      6  O   UNL     1       8.047   5.584  19.239  0.00  0.00    +0.000 OA
BRANCH   5   7
ATOM      7  C   UNL     1       6.318   4.904  17.776  0.00  0.00    +0.000 A 
ATOM      8  C   UNL     1       6.495   4.168  16.614  0.00  0.00    +0.000 A 
ATOM      9  N   UNL     1       5.418   3.347  16.443  0.00  0.00    +0.000 N 
ATOM     10  C   UNL     1       4.528   3.513  17.477  0.00  0.00    +0.000 A 
ATOM     11  C   UNL     1       3.314   2.859  17.720  0.00  0.00    +0.000 A 
ATOM     12  C   UNL     1       2.591   3.227  18.857  0.00  0.00    +0.000 A 
ATOM     13  C   UNL     1       3.069   4.217  19.706  0.00  0.00    +0.000 A 
ATOM     14 CL   UNL     1       2.154   4.654  21.099  0.00  0.00    +0.000 Cl
ATOM     15  C   UNL     1       4.286   4.861  19.455  0.00  0.00    +0.000 A 
ATOM     16  C   UNL     1       5.048   4.503  18.320  0.00  0.00    +0.000 A 
ATOM     17  H   UNL     1       5.294   2.699  15.675  0.00  0.00    +0.000 HD
ENDBRANCH   5   7
ENDBRANCH   2   5
BRANCH   3  18
ATOM     18  C   UNL     1       8.483   9.468  18.059  0.00  0.00    +0.000 C 
BRANCH  18  19
ATOM     19  C   UNL     1       9.398  10.212  19.032  0.00  0.00    +0.000 C 
BRANCH  19  20
ATOM     20  C   UNL     1      10.006  11.449  18.419  0.00  0.00    +0.000 A 
ATOM     21  C   UNL     1      11.379  11.502  18.136  0.00  0.00    +0.000 A 
ATOM     22  C   UNL     1      11.946  12.650  17.576  0.00  0.00    +0.000 A 
ATOM     23  C   UNL     1      11.139  13.750  17.304  0.00  0.00    +0.000 A 
ATOM     24  C   UNL     1       9.777  13.717  17.581  0.00  0.00    +0.000 A 
ATOM     25  C   UNL     1       9.212  12.570  18.141  0.00  0.00    +0.000 A 
BRANCH  23  26
ATOM     26  O   UNL     1      11.650  14.891  16.762  0.00  0.00    +0.000 OA
ATOM     27  H   UNL     1      12.481  15.105  17.217  0.00  0.00    +0.000 HD
ENDBRANCH  23  26
ENDBRANCH  19  20
ENDBRANCH  18  19
ENDBRANCH   3  18
TORSDOF 6
ENDMDL
MODEL 2
REMARK VINA RESULT:      -8.0      6.497      8.973
REMARK  Name = 
REMARK  6 active torsions:
REMARK  status: ('A' for Active; 'I' for Inactive)
REMARK    1  A    between atoms: C_2  and  C_13
REMARK    2  A    between atoms: N_3  and  C_4
REMARK    3  A    between atoms: C_4  and  C_5
REMARK    4  A    between atoms: C_5  and  C_6
REMARK    5  A    between atoms: C_9  and  O_10
REMARK    6  A    between atoms: C_13  and  C_15
REMARK                            x       y       z     vdW  Elec       q    Type
REMARK                         _______ _______ _______ _____ _____    ______ ____
ROOT
ATOM      1  O   UNL     1       1.736   9.398  17.354  0.00  0.00    +0.000 OA
ATOM      2  C   UNL     1       1.519   9.115  18.522  0.00  0.00    +0.000 C 
ATOM      3  N   UNL     1       0.697   9.827  19.379  0.00  0.00    +0.000 N 
ATOM      4  H   UNL     1       0.780   9.618  20.368  0.00  0.00    +0.000 HD
ENDROOT
BRANCH   2   5
ATOM      5  C   UNL     1       2.182   7.898  19.169  0.00  0.00    +0.000 C 
ATOM      6  O   UNL     1       1.988   7.757  20.378  0.00  0.00    +0.000 OA
BRANCH   5   7
ATOM      7  C   UNL     1       2.908   6.908  18.373  0.00  0.00    +0.000 A 
ATOM      8  C   UNL     1       4.065   7.209  17.669  0.00  0.00    +0.000 A 
ATOM      9  N   UNL     1       4.529   6.071  17.076  0.00  0.00    +0.000 N 
ATOM     10  C   UNL     1       3.709   5.011  17.380  0.00  0.00    +0.000 A 
ATOM     11  C   UNL     1       3.823   3.664  17.013  0.00  0.00    +0.000 A 
ATOM     12  C   UNL     1       2.835   2.782  17.457  0.00  0.00    +0.000 A 
ATOM     13  C   UNL     1       1.776   3.241  18.228  0.00  0.00    +0.000 A 
ATOM     14 CL   UNL     1       0.569   2.131  18.758  0.00  0.00    +0.000 Cl
ATOM     15  C   UNL     1       1.675   4.588  18.593  0.00  0.00    +0.000 A 
ATOM     16  C   UNL     1       2.665   5.505  18.171  0.00  0.00    +0.000 A 
ATOM     17  H   UNL     1       5.363   6.009  16.505  0.00  0.00    +0.000 HD
ENDBRANCH   5   7
ENDBRANCH   2   5
BRANCH   3  18
ATOM     18  C   UNL     1       0.061  11.056  18.944  0.00  0.00    +0.000 C 
BRANCH  18  19
ATOM     19  C   UNL     1      -1.446  11.049  19.198  0.00  0.00    +0.000 C 
BRANCH  19  20
ATOM     20  C   UNL     1      -2.242  10.830  17.935  0.00  0.00    +0.000 A 
ATOM     21  C   UNL     1      -3.450  11.511  17.728  0.00  0.00    +0.000 A 
ATOM     22  C   UNL     1      -4.193  11.304  16.563  0.00  0.00    +0.000 A 
ATOM     23  C   UNL     1      -3.729  10.408  15.605  0.00  0.00    +0.000 A 
ATOM     24  C   UNL     1      -2.536   9.722  15.793  0.00  0.00    +0.000 A 
ATOM     25  C   UNL     1      -1.794   9.929  16.959  0.00  0.00    +0.000 A 
BRANCH  23  26
ATOM     26  O   UNL     1      -4.423  10.173  14.455  0.00  0.00    +0.000 OA
ATOM     27  H   UNL     1      -4.845  11.000  14.173  0.00  0.00    +0.000 HD
ENDBRANCH  23  26
ENDBRANCH  19  20
ENDBRANCH  18  19
ENDBRANCH   3  18
TORSDOF 6
ENDMDL
MODEL 3
REMARK VINA RESULT:      -7.8      5.881      7.411
REMARK  Name = 
REMARK  6 active torsions:
REMARK  status: ('A' for Active; 'I' for Inactive)
REMARK    1  A    between atoms: C_2  and  C_13
REMARK    2  A    between atoms: N_3  and  C_4
REMARK    3  A    between atoms: C_4  and  C_5
REMARK    4  A    between atoms: C_5  and  C_6
REMARK    5  A    between atoms: C_9  and  O_10
REMARK    6  A    between atoms: C_13  and  C_15
REMARK                            x       y       z     vdW  Elec       q    Type
REMARK                         _______ _______ _______ _____ _____    ______ ____
ROOT
ATOM      1  O   UNL     1       1.500   3.898  17.500  0.00  0.00    +0.000 OA
ATOM      2  C   UNL     1       2.415   3.699  18.285  0.00  0.00    +0.000 C 
ATOM      3  N   UNL     1       2.417   4.064  19.621  0.00  0.00    +0.000 N 
ATOM      4  H   UNL     1       3.313   4.044  20.097  0.00  0.00    +0.000 HD
ENDROOT
BRANCH   2   5
ATOM      5  C   UNL     1       3.701   3.008  17.830  0.00  0.00    +0.000 C 
ATOM      6  O   UNL     1       3.651   1.781  17.740  0.00  0.00    +0.000 OA
BRANCH   5   7
ATOM      7  C   UNL     1       4.879   3.775  17.424  0.00  0.00    +0.000 A 
ATOM      8  C   UNL     1       5.695   4.438  18.329  0.00  0.00    +0.000 A 
ATOM      9  N   UNL     1       6.732   5.011  17.650  0.00  0.00    +0.000 N 
ATOM     10  C   UNL     1       6.629   4.734  16.308  0.00  0.00    +0.000 A 
ATOM     11  C   UNL     1       7.484   5.093  15.258  0.00  0.00    +0.000 A 
ATOM     12  C   UNL     1       7.139   4.682  13.968  0.00  0.00    +0.000 A 
ATOM     13  C   UNL     1       5.979   3.950  13.748  0.00  0.00    +0.000 A 
ATOM     14 CL   UNL     1       5.576   3.461  12.146  0.00  0.00    +0.000 Cl
ATOM     15  C   UNL     1       5.135   3.593  14.806  0.00  0.00    +0.000 A 
ATOM     16  C   UNL     1       5.463   3.982  16.125  0.00  0.00    +0.000 A 
ATOM     17  H   UNL     1       7.478   5.552  18.072  0.00  0.00    +0.000 HD
ENDBRANCH   5   7
ENDBRANCH   2   5
BRANCH   3  18
ATOM     18  C   UNL     1       1.306   4.805  20.189  0.00  0.00    +0.000 C 
BRANCH  18  19
ATOM     19  C   UNL     1       1.764   6.074  20.905  0.00  0.00    +0.000 C 
BRANCH  19  20
ATOM     20  C   UNL     1       1.811   7.270  19.986  0.00  0.00    +0.000 A 
ATOM     21  C   UNL     1       1.158   8.461  20.335  0.00  0.00    +0.000 A 
ATOM     22  C   UNL     1       1.194   9.567  19.480  0.00  0.00    +0.000 A 
ATOM     23  C   UNL     1       1.879   9.479  18.273  0.00  0.00    +0.000 A 
ATOM     24  C   UNL     1       2.529   8.306  17.910  0.00  0.00    +0.000 A 
ATOM     25  C   UNL     1       2.492   7.201  18.763  0.00  0.00    +0.000 A 
BRANCH  23  26
ATOM     26  O   UNL     1       1.937  10.531  17.409  0.00  0.00    +0.000 OA
ATOM     27  H   UNL     1       2.695  10.404  16.816  0.00  0.00    +0.000 HD
ENDBRANCH  23  26
ENDBRANCH  19  20
ENDBRANCH  18  19
ENDBRANCH   3  18
TORSDOF 6
ENDMDL
MODEL 4
REMARK VINA RESULT:      -7.8      1.916      2.306
REMARK  Name = 
REMARK  6 active torsions:
REMARK  status: ('A' for Active; 'I' for Inactive)
REMARK    1  A    between atoms: C_2  and  C_13
REMARK    2  A    between atoms: N_3  and  C_4
REMARK    3  A    between atoms: C_4  and  C_5
REMARK    4  A    between atoms: C_5  and  C_6
REMARK    5  A    between atoms: C_9  and  O_10
REMARK    6  A    between atoms: C_13  and  C_15
REMARK                            x       y       z     vdW  Elec       q    Type
REMARK                         _______ _______ _______ _____ _____    ______ ____
ROOT
ATOM      1  O   UNL     1       7.722   6.298  18.840  0.00  0.00    +0.000 OA
ATOM      2  C   UNL     1       7.565   6.786  17.731  0.00  0.00    +0.000 C 
ATOM      3  N   UNL     1       7.851   8.096  17.385  0.00  0.00    +0.000 N 
ATOM      4  H   UNL     1       7.468   8.429  16.506  0.00  0.00    +0.000 HD
ENDROOT
BRANCH   2   5
ATOM      5  C   UNL     1       6.998   5.952  16.581  0.00  0.00    +0.000 C 
ATOM      6  O   UNL     1       7.644   5.971  15.532  0.00  0.00    +0.000 OA
BRANCH   5   7
ATOM      7  C   UNL     1       5.821   5.101  16.761  0.00  0.00    +0.000 A 
ATOM      8  C   UNL     1       5.760   3.793  16.301  0.00  0.00    +0.000 A 
ATOM      9  N   UNL     1       4.561   3.253  16.668  0.00  0.00    +0.000 N 
ATOM     10  C   UNL     1       3.824   4.173  17.374  0.00  0.00    +0.000 A 
ATOM     11  C   UNL     1       2.560   4.038  17.963  0.00  0.00    +0.000 A 
ATOM     12  C   UNL     1       2.029   5.146  18.627  0.00  0.00    +0.000 A 
ATOM     13  C   UNL     1       2.737   6.339  18.686  0.00  0.00    +0.000 A 
ATOM     14 CL   UNL     1       2.054   7.690  19.507  0.00  0.00    +0.000 Cl
ATOM     15  C   UNL     1       4.001   6.461  18.097  0.00  0.00    +0.000 A 
ATOM     16  C   UNL     1       4.573   5.354  17.429  0.00  0.00    +0.000 A 
ATOM     17  H   UNL     1       4.259   2.308  16.462  0.00  0.00    +0.000 HD
ENDBRANCH   5   7
ENDBRANCH   2   5
BRANCH   3  18
ATOM     18  C   UNL     1       8.315   9.042  18.382  0.00  0.00    +0.000 C 
BRANCH  18  19
ATOM     19  C   UNL     1       8.986  10.262  17.754  0.00  0.00    +0.000 C 
BRANCH  19  20
ATOM     20  C   UNL     1       9.361  11.305  18.778  0.00  0.00    +0.000 A 
ATOM     21  C   UNL     1       9.600  10.938  20.111  0.00  0.00    +0.000 A 
ATOM     22  C   UNL     1       9.939  11.903  21.064  0.00  0.00    +0.000 A 
ATOM     23  C   UNL     1      10.034  13.238  20.683  0.00  0.00    +0.000 A 
ATOM     24  C   UNL     1       9.797  13.620  19.368  0.00  0.00    +0.000 A 
ATOM     25  C   UNL     1       9.457  12.656  18.417  0.00  0.00    +0.000 A 
BRANCH  23  26
ATOM     26  O   UNL     1      10.358  14.212  21.580  0.00  0.00    +0.000 OA
ATOM     27  H   UNL     1       9.672  14.898  21.553  0.00  0.00    +0.000 HD
ENDBRANCH  23  26
ENDBRANCH  19  20
ENDBRANCH  18  19
ENDBRANCH   3  18
TORSDOF 6
ENDMDL
MODEL 5
REMARK VINA RESULT:      -7.8      1.156      1.192
REMARK  Name = 
REMARK  6 active torsions:
REMARK  status: ('A' for Active; 'I' for Inactive)
REMARK    1  A    between atoms: C_2  and  C_13
REMARK    2  A    between atoms: N_3  and  C_4
REMARK    3  A    between atoms: C_4  and  C_5
REMARK    4  A    between atoms: C_5  and  C_6
REMARK    5  A    between atoms: C_9  and  O_10
REMARK    6  A    between atoms: C_13  and  C_15
REMARK                            x       y       z     vdW  Elec       q    Type
REMARK                         _______ _______ _______ _____ _____    ______ ____
ROOT
ATOM      1  O   UNL     1       7.816   7.184  16.654  0.00  0.00    +0.000 OA
ATOM      2  C   UNL     1       7.769   7.068  17.870  0.00  0.00    +0.000 C 
ATOM      3  N   UNL     1       8.134   8.043  18.782  0.00  0.00    +0.000 N 
ATOM      4  H   UNL     1       8.260   7.743  19.743  0.00  0.00    +0.000 HD
ENDROOT
BRANCH   2   5
ATOM      5  C   UNL     1       7.292   5.765  18.514  0.00  0.00    +0.000 C 
ATOM      6  O   UNL     1       7.822   5.468  19.587  0.00  0.00    +0.000 OA
BRANCH   5   7
ATOM      7  C   UNL     1       6.198   4.983  17.939  0.00  0.00    +0.000 A 
ATOM      8  C   UNL     1       6.368   4.130  16.858  0.00  0.00    +0.000 A 
ATOM      9  N   UNL     1       5.181   3.509  16.595  0.00  0.00    +0.000 N 
ATOM     10  C   UNL     1       4.222   3.924  17.488  0.00  0.00    +0.000 A 
ATOM     11  C   UNL     1       2.884   3.527  17.604  0.00  0.00    +0.000 A 
ATOM     12  C   UNL     1       2.115   4.117  18.610  0.00  0.00    +0.000 A 
ATOM     13  C   UNL     1       2.669   5.072  19.452  0.00  0.00    +0.000 A 
ATOM     14 CL   UNL     1       1.695   5.787  20.680  0.00  0.00    +0.000 Cl
ATOM     15  C   UNL     1       4.008   5.458  19.329  0.00  0.00    +0.000 A 
ATOM     16  C   UNL     1       4.818   4.870  18.330  0.00  0.00    +0.000 A 
ATOM     17  H   UNL     1       5.028   2.832  15.858  0.00  0.00    +0.000 HD
ENDBRANCH   5   7
ENDBRANCH   2   5
BRANCH   3  18
ATOM     18  C   UNL     1       8.689   9.306  18.334  0.00  0.00    +0.000 C 
BRANCH  18  19
ATOM     19  C   UNL     1       9.483  10.011  19.433  0.00  0.00    +0.000 C 
BRANCH  19  20
ATOM     20  C   UNL     1       9.611  11.495  19.189  0.00  0.00    +0.000 A 
ATOM     21  C   UNL     1      10.275  12.313  20.116  0.00  0.00    +0.000 A 
ATOM     22  C   UNL     1      10.388  13.689  19.897  0.00  0.00    +0.000 A 
ATOM     23  C   UNL     1       9.830  14.248  18.752  0.00  0.00    +0.000 A 
ATOM     24  C   UNL     1       9.166  13.454  17.825  0.00  0.00    +0.000 A 
ATOM     25  C   UNL     1       9.053  12.080  18.045  0.00  0.00    +0.000 A 
BRANCH  23  26
ATOM     26  O   UNL     1       9.913  15.585  18.500  0.00  0.00    +0.000 OA
ATOM     27  H   UNL     1      10.452  15.998  19.195  0.00  0.00    +0.000 HD
ENDBRANCH  23  26
ENDBRANCH  19  20
ENDBRANCH  18  19
ENDBRANCH   3  18
TORSDOF 6
ENDMDL
MODEL 6
REMARK VINA RESULT:      -7.7      5.817      7.719
REMARK  Name = 
REMARK  6 active torsions:
REMARK  status: ('A' for Active; 'I' for Inactive)
REMARK    1  A    between atoms: C_2  and  C_13
REMARK    2  A    between atoms: N_3  and  C_4
REMARK    3  A    between atoms: C_4  and  C_5
REMARK    4  A    between atoms: C_5  and  C_6
REMARK    5  A    between atoms: C_9  and  O_10
REMARK    6  A    between atoms: C_13  and  C_15
REMARK                            x       y       z     vdW  Elec       q    Type
REMARK                         _______ _______ _______ _____ _____    ______ ____
ROOT
ATOM      1  O   UNL     1       2.109   7.655  19.165  0.00  0.00    +0.000 OA
ATOM      2  C   UNL     1       1.940   6.936  20.139  0.00  0.00    +0.000 C 
ATOM      3  N   UNL     1       1.569   7.370  21.399  0.00  0.00    +0.000 N 
ATOM      4  H   UNL     1       1.682   6.708  22.161  0.00  0.00    +0.000 HD
ENDROOT
BRANCH   2   5
ATOM      5  C   UNL     1       2.150   5.424  20.041  0.00  0.00    +0.000 C 
ATOM      6  O   UNL     1       1.632   4.750  20.932  0.00  0.00    +0.000 OA
BRANCH   5   7
ATOM      7  C   UNL     1       2.831   4.819  18.896  0.00  0.00    +0.000 A 
ATOM      8  C   UNL     1       2.164   4.094  17.919  0.00  0.00    +0.000 A 
ATOM      9  N   UNL     1       3.062   3.709  16.966  0.00  0.00    +0.000 N 
ATOM     10  C   UNL     1       4.316   4.173  17.283  0.00  0.00    +0.000 A 
ATOM     11  C   UNL     1       5.519   4.039  16.576  0.00  0.00    +0.000 A 
ATOM     12  C   UNL     1       6.667   4.608  17.132  0.00  0.00    +0.000 A 
ATOM     13  C   UNL     1       6.605   5.273  18.350  0.00  0.00    +0.000 A 
ATOM     14 CL   UNL     1       8.039   5.961  19.014  0.00  0.00    +0.000 Cl
ATOM     15  C   UNL     1       5.397   5.404  19.044  0.00  0.00    +0.000 A 
ATOM     16  C   UNL     1       4.214   4.851  18.503  0.00  0.00    +0.000 A 
ATOM     17  H   UNL     1       2.839   3.171  16.137  0.00  0.00    +0.000 HD
ENDBRANCH   5   7
ENDBRANCH   2   5
BRANCH   3  18
ATOM     18  C   UNL     1       1.414   8.785  21.681  0.00  0.00    +0.000 C 
BRANCH  18  19
ATOM     19  C   UNL     1      -0.046   9.231  21.617  0.00  0.00    +0.000 C 
BRANCH  19  20
ATOM     20  C   UNL     1      -0.292  10.244  20.526  0.00  0.00    +0.000 A 
ATOM     21  C   UNL     1      -0.050  11.607  20.755  0.00  0.00    +0.000 A 
ATOM     22  C   UNL     1      -0.285  12.548  19.748  0.00  0.00    +0.000 A 
ATOM     23  C   UNL     1      -0.768  12.126  18.514  0.00  0.00    +0.000 A 
ATOM     24  C   UNL     1      -1.016  10.781  18.271  0.00  0.00    +0.000 A 
ATOM     25  C   UNL     1      -0.782   9.841  19.277  0.00  0.00    +0.000 A 
BRANCH  23  26
ATOM     26  O   UNL     1      -1.014  13.010  17.506  0.00  0.00    +0.000 OA
ATOM     27  H   UNL     1      -1.187  12.510  16.692  0.00  0.00    +0.000 HD
ENDBRANCH  23  26
ENDBRANCH  19  20
ENDBRANCH  18  19
ENDBRANCH   3  18
TORSDOF 6
ENDMDL
MODEL 7
REMARK VINA RESULT:      -7.7      2.154      2.865
REMARK  Name = 
REMARK  6 active torsions:
REMARK  status: ('A' for Active; 'I' for Inactive)
REMARK    1  A    between atoms: C_2  and  C_13
REMARK    2  A    between atoms: N_3  and  C_4
REMARK    3  A    between atoms: C_4  and  C_5
REMARK    4  A    between atoms: C_5  and  C_6
REMARK    5  A    between atoms: C_9  and  O_10
REMARK    6  A    between atoms: C_13  and  C_15
REMARK                            x       y       z     vdW  Elec       q    Type
REMARK                         _______ _______ _______ _____ _____    ______ ____
ROOT
ATOM      1  O   UNL     1       7.603   6.281  16.027  0.00  0.00    +0.000 OA
ATOM      2  C   UNL     1       6.786   6.486  16.913  0.00  0.00    +0.000 C 
ATOM      3  N   UNL     1       6.958   7.359  17.973  0.00  0.00    +0.000 N 
ATOM      4  H   UNL     1       6.308   7.268  18.747  0.00  0.00    +0.000 HD
ENDROOT
BRANCH   2   5
ATOM      5  C   UNL     1       5.447   5.749  16.928  0.00  0.00    +0.000 C 
ATOM      6  O   UNL     1       5.402   4.699  16.284  0.00  0.00    +0.000 OA
BRANCH   5   7
ATOM      7  C   UNL     1       4.327   6.212  17.748  0.00  0.00    +0.000 A 
ATOM      8  C   UNL     1       3.702   7.434  17.548  0.00  0.00    +0.000 A 
ATOM      9  N   UNL     1       2.668   7.551  18.433  0.00  0.00    +0.000 N 
ATOM     10  C   UNL     1       2.585   6.423  19.213  0.00  0.00    +0.000 A 
ATOM     11  C   UNL     1       1.664   6.104  20.220  0.00  0.00    +0.000 A 
ATOM     12  C   UNL     1       1.810   4.877  20.871  0.00  0.00    +0.000 A 
ATOM     13  C   UNL     1       2.844   4.016  20.528  0.00  0.00    +0.000 A 
ATOM     14 CL   UNL     1       3.002   2.511  21.351  0.00  0.00    +0.000 Cl
ATOM     15  C   UNL     1       3.755   4.343  19.518  0.00  0.00    +0.000 A 
ATOM     16  C   UNL     1       3.628   5.572  18.830  0.00  0.00    +0.000 A 
ATOM     17  H   UNL     1       2.044   8.345  18.498  0.00  0.00    +0.000 HD
ENDBRANCH   5   7
ENDBRANCH   2   5
BRANCH   3  18
ATOM     18  C   UNL     1       8.209   8.073  18.151  0.00  0.00    +0.000 C 
BRANCH  18  19
ATOM     19  C   UNL     1       8.073   9.564  17.845  0.00  0.00    +0.000 C 
BRANCH  19  20
ATOM     20  C   UNL     1       9.196  10.378  18.439  0.00  0.00    +0.000 A 
ATOM     21  C   UNL     1       9.299  10.540  19.828  0.00  0.00    +0.000 A 
ATOM     22  C   UNL     1      10.334  11.301  20.380  0.00  0.00    +0.000 A 
ATOM     23  C   UNL     1      11.262  11.906  19.540  0.00  0.00    +0.000 A 
ATOM     24  C   UNL     1      11.173  11.761  18.161  0.00  0.00    +0.000 A 
ATOM     25  C   UNL     1      10.139  11.001  17.610  0.00  0.00    +0.000 A 
BRANCH  23  26
ATOM     26  O   UNL     1      12.284  12.660  20.035  0.00  0.00    +0.000 OA
ATOM     27  H   UNL     1      12.930  12.810  19.325  0.00  0.00    +0.000 HD
ENDBRANCH  23  26
ENDBRANCH  19  20
ENDBRANCH  18  19
ENDBRANCH   3  18
TORSDOF 6
ENDMDL
MODEL 8
REMARK VINA RESULT:      -7.7      7.533     10.927
REMARK  Name = 
REMARK  6 active torsions:
REMARK  status: ('A' for Active; 'I' for Inactive)
REMARK    1  A    between atoms: C_2  and  C_13
REMARK    2  A    between atoms: N_3  and  C_4
REMARK    3  A    between atoms: C_4  and  C_5
REMARK    4  A    between atoms: C_5  and  C_6
REMARK    5  A    between atoms: C_9  and  O_10
REMARK    6  A    between atoms: C_13  and  C_15
REMARK                            x       y       z     vdW  Elec       q    Type
REMARK                         _______ _______ _______ _____ _____    ______ ____
ROOT
ATOM      1  O   UNL     1       0.809  10.167  22.072  0.00  0.00    +0.000 OA
ATOM      2  C   UNL     1       0.743  10.160  20.852  0.00  0.00    +0.000 C 
ATOM      3  N   UNL     1       1.075   9.091  20.038  0.00  0.00    +0.000 N 
ATOM      4  H   UNL     1       1.188   9.289  19.049  0.00  0.00    +0.000 HD
ENDROOT
BRANCH   2   5
ATOM      5  C   UNL     1       0.276  11.400  20.086  0.00  0.00    +0.000 C 
ATOM      6  O   UNL     1       1.164  12.081  19.571  0.00  0.00    +0.000 OA
BRANCH   5   7
ATOM      7  C   UNL     1      -1.145  11.689  19.892  0.00  0.00    +0.000 A 
ATOM      8  C   UNL     1      -1.892  12.433  20.794  0.00  0.00    +0.000 A 
ATOM      9  N   UNL     1      -3.160  12.572  20.306  0.00  0.00    +0.000 N 
ATOM     10  C   UNL     1      -3.270  11.943  19.089  0.00  0.00    +0.000 A 
ATOM     11  C   UNL     1      -4.372  11.860  18.228  0.00  0.00    +0.000 A 
ATOM     12  C   UNL     1      -4.216  11.145  17.038  0.00  0.00    +0.000 A 
ATOM     13  C   UNL     1      -3.006  10.534  16.737  0.00  0.00    +0.000 A 
ATOM     14 CL   UNL     1      -2.843   9.654  15.265  0.00  0.00    +0.000 Cl
ATOM     15  C   UNL     1      -1.911  10.627  17.604  0.00  0.00    +0.000 A 
ATOM     16  C   UNL     1      -2.031  11.355  18.809  0.00  0.00    +0.000 A 
ATOM     17  H   UNL     1      -3.910  13.075  20.766  0.00  0.00    +0.000 HD
ENDBRANCH   5   7
ENDBRANCH   2   5
BRANCH   3  18
ATOM     18  C   UNL     1       1.616   7.869  20.603  0.00  0.00    +0.000 C 
BRANCH  18  19
ATOM     19  C   UNL     1       2.515   7.124  19.617  0.00  0.00    +0.000 C 
BRANCH  19  20
ATOM     20  C   UNL     1       2.055   5.708  19.375  0.00  0.00    +0.000 A 
ATOM     21  C   UNL     1       1.516   4.946  20.423  0.00  0.00    +0.000 A 
ATOM     22  C   UNL     1       1.097   3.631  20.203  0.00  0.00    +0.000 A 
ATOM     23  C   UNL     1       1.222   3.075  18.934  0.00  0.00    +0.000 A 
ATOM     24  C   UNL     1       1.757   3.813  17.885  0.00  0.00    +0.000 A 
ATOM     25  C   UNL     1       2.176   5.127  18.105  0.00  0.00    +0.000 A 
BRANCH  23  26
ATOM     26  O   UNL     1       0.830   1.796  18.676  0.00  0.00    +0.000 OA
ATOM     27  H   UNL     1       1.475   1.188  19.073  0.00  0.00    +0.000 HD
ENDBRANCH  23  26
ENDBRANCH  19  20
ENDBRANCH  18  19
ENDBRANCH   3  18
TORSDOF 6
ENDMDL
MODEL 9
REMARK VINA RESULT:      -7.7      5.740      7.822
REMARK  Name = 
REMARK  6 active torsions:
REMARK  status: ('A' for Active; 'I' for Inactive)
REMARK    1  A    between atoms: C_2  and  C_13
REMARK    2  A    between atoms: N_3  and  C_4
REMARK    3  A    between atoms: C_4  and  C_5
REMARK    4  A    between atoms: C_5  and  C_6
REMARK    5  A    between atoms: C_9  and  O_10
REMARK    6  A    between atoms: C_13  and  C_15
REMARK                            x       y       z     vdW  Elec       q    Type
REMARK                         _______ _______ _______ _____ _____    ______ ____
ROOT
ATOM      1  O   UNL     1       4.522   5.350  19.388  0.00  0.00    +0.000 OA
ATOM      2  C   UNL     1       4.147   5.420  18.228  0.00  0.00    +0.000 C 
ATOM      3  N   UNL     1       3.221   6.325  17.738  0.00  0.00    +0.000 N 
ATOM      4  H   UNL     1       2.836   6.132  16.819  0.00  0.00    +0.000 HD
ENDROOT
BRANCH   2   5
ATOM      5  C   UNL     1       4.687   4.455  17.171  0.00  0.00    +0.000 C 
ATOM      6  O   UNL     1       4.133   3.355  17.112  0.00  0.00    +0.000 OA
BRANCH   5   7
ATOM      7  C   UNL     1       5.724   4.861  16.223  0.00  0.00    +0.000 A 
ATOM      8  C   UNL     1       6.784   5.685  16.572  0.00  0.00    +0.000 A 
ATOM      9  N   UNL     1       7.603   5.834  15.490  0.00  0.00    +0.000 N 
ATOM     10  C   UNL     1       7.114   5.114  14.425  0.00  0.00    +0.000 A 
ATOM     11  C   UNL     1       7.646   4.958  13.138  0.00  0.00    +0.000 A 
ATOM     12  C   UNL     1       6.936   4.167  12.232  0.00  0.00    +0.000 A 
ATOM     13  C   UNL     1       5.740   3.568  12.606  0.00  0.00    +0.000 A 
ATOM     14 CL   UNL     1       4.883   2.602  11.465  0.00  0.00    +0.000 Cl
ATOM     15  C   UNL     1       5.221   3.728  13.896  0.00  0.00    +0.000 A 
ATOM     16  C   UNL     1       5.921   4.512  14.841  0.00  0.00    +0.000 A 
ATOM     17  H   UNL     1       8.453   6.383  15.473  0.00  0.00    +0.000 HD
ENDBRANCH   5   7
ENDBRANCH   2   5
BRANCH   3  18
ATOM     18  C   UNL     1       2.550   7.253  18.629  0.00  0.00    +0.000 C 
BRANCH  18  19
ATOM     19  C   UNL     1       2.001   8.472  17.888  0.00  0.00    +0.000 C 
BRANCH  19  20
ATOM     20  C   UNL     1       1.076   9.300  18.746  0.00  0.00    +0.000 A 
ATOM     21  C   UNL     1       1.168   9.247  20.145  0.00  0.00    +0.000 A 
ATOM     22  C   UNL     1       0.307  10.007  20.942  0.00  0.00    +0.000 A 
ATOM     23  C   UNL     1      -0.651  10.816  20.338  0.00  0.00    +0.000 A 
ATOM     24  C   UNL     1      -0.759  10.877  18.954  0.00  0.00    +0.000 A 
ATOM     25  C   UNL     1       0.102  10.117  18.158  0.00  0.00    +0.000 A 
BRANCH  23  26
ATOM     26  O   UNL     1      -1.513  11.570  21.077  0.00  0.00    +0.000 OA
ATOM     27  H   UNL     1      -1.091  11.781  21.925  0.00  0.00    +0.000 HD
ENDBRANCH  23  26
ENDBRANCH  19  20
ENDBRANCH  18  19
ENDBRANCH   3  18
TORSDOF 6
ENDMDL
