MODEL 1
REMARK VINA RESULT:      -6.6      0.000      0.000
REMARK  Name = 
REMARK  7 active torsions:
REMARK  status: ('A' for Active; 'I' for Inactive)
REMARK    1  A    between atoms: C_1  and  O_2
REMARK    2  A    between atoms: O_2  and  C_3
REMARK    3  A    between atoms: C_3  and  C_5
REMARK    4  A    between atoms: C_5  and  C_6
REMARK    5  A    between atoms: C_5  and  N_7
REMARK    6  A    between atoms: N_10  and  C_11
REMARK    7  A    between atoms: C_15  and  C_16
REMARK                            x       y       z     vdW  Elec       q    Type
REMARK                         _______ _______ _______ _____ _____    ______ ____
ROOT
ATOM      1  N   UNL     1       6.014   4.190  16.778  0.00  0.00    +0.000 N 
ATOM      2  C   UNL     1       4.755   4.203  17.333  0.00  0.00    +0.000 C 
ATOM      3  O   UNL     1       4.019   5.173  17.202  0.00  0.00    +0.000 OA
ATOM      4  N   UNL     1       4.468   3.055  18.039  0.00  0.00    +0.000 N 
ATOM      5  H   UNL     1       6.503   3.313  16.659  0.00  0.00    +0.000 HD
ATOM      6  H   UNL     1       5.258   2.511  18.344  0.00  0.00    +0.000 HD
ENDROOT
BRANCH   4   7
ATOM      7  C   UNL     1       3.224   2.786  18.651  0.00  0.00    +0.000 A 
ATOM      8  C   UNL     1       2.081   2.436  17.921  0.00  0.00    +0.000 A 
ATOM      9  C   UNL     1       0.851   2.252  18.551  0.00  0.00    +0.000 A 
ATOM     10  C   UNL     1       0.746   2.405  19.928  0.00  0.00    +0.000 A 
ATOM     11  C   UNL     1       1.878   2.716  20.690  0.00  0.00    +0.000 A 
ATOM     12  C   UNL     1       1.759   2.899  22.175  0.00  0.00    +0.000 C 
ATOM     13  C   UNL     1       3.118   2.888  20.047  0.00  0.00    +0.000 A 
ENDBRANCH   4   7
BRANCH   1  14
ATOM     14  C   UNL     1       6.431   5.324  15.945  0.00  0.00    +0.000 C 
ATOM     15  C   UNL     1       7.432   6.187  16.706  0.00  0.00    +0.000 C 
BRANCH  14  16
ATOM     16  C   UNL     1       7.009   4.931  14.582  0.00  0.00    +0.000 C 
ATOM     17  O   UNL     1       7.969   5.488  14.060  0.00  0.00    +0.000 OA
BRANCH  16  19
ATOM     18  C   UNL     1       6.567   3.744  12.620  0.00  0.00    +0.000 C 
ATOM     19  O   UNL     1       6.318   3.896  14.019  0.00  0.00    +0.000 OA
ENDBRANCH  16  19
ENDBRANCH  14  16
ENDBRANCH   1  14
TORSDOF 4
ENDMDL
MODEL 2
REMARK VINA RESULT:      -6.4      2.212      7.050
REMARK  Name = 
REMARK  7 active torsions:
REMARK  status: ('A' for Active; 'I' for Inactive)
REMARK    1  A    between atoms: C_1  and  O_2
REMARK    2  A    between atoms: O_2  and  C_3
REMARK    3  A    between atoms: C_3  and  C_5
REMARK    4  A    between atoms: C_5  and  C_6
REMARK    5  A    between atoms: C_5  and  N_7
REMARK    6  A    between atoms: N_10  and  C_11
REMARK    7  A    between atoms: C_15  and  C_16
REMARK                            x       y       z     vdW  Elec       q    Type
REMARK                         _______ _______ _______ _____ _____    ______ ____
ROOT
ATOM      1  N   UNL     1       2.983   2.890  18.849  0.00  0.00    +0.000 N 
ATOM      2  C   UNL     1       3.554   3.648  17.853  0.00  0.00    +0.000 C 
ATOM      3  O   UNL     1       2.965   4.611  17.379  0.00  0.00    +0.000 OA
ATOM      4  N   UNL     1       4.790   3.181  17.466  0.00  0.00    +0.000 N 
ATOM      5  H   UNL     1       3.560   2.279  19.411  0.00  0.00    +0.000 HD
ATOM      6  H   UNL     1       4.992   2.219  17.685  0.00  0.00    +0.000 HD
ENDROOT
BRANCH   4   7
ATOM      7  C   UNL     1       5.617   3.811  16.509  0.00  0.00    +0.000 A 
ATOM      8  C   UNL     1       6.483   4.862  16.833  0.00  0.00    +0.000 A 
ATOM      9  C   UNL     1       7.228   5.512  15.850  0.00  0.00    +0.000 A 
ATOM     10  C   UNL     1       7.126   5.112  14.523  0.00  0.00    +0.000 A 
ATOM     11  C   UNL     1       6.297   4.039  14.173  0.00  0.00    +0.000 A 
ATOM     12  C   UNL     1       6.174   3.621  12.737  0.00  0.00    +0.000 C 
ATOM     13  C   UNL     1       5.559   3.381  15.174  0.00  0.00    +0.000 A 
ENDBRANCH   4   7
BRANCH   1  14
ATOM     14  C   UNL     1       1.689   3.309  19.404  0.00  0.00    +0.000 C 
ATOM     15  C   UNL     1       0.601   2.327  18.982  0.00  0.00    +0.000 C 
BRANCH  14  16
ATOM     16  C   UNL     1       1.678   3.481  20.926  0.00  0.00    +0.000 C 
ATOM     17  O   UNL     1       1.159   2.684  21.699  0.00  0.00    +0.000 OA
BRANCH  16  19
ATOM     18  C   UNL     1       1.817   5.793  20.632  0.00  0.00    +0.000 C 
ATOM     19  O   UNL     1       2.305   4.633  21.309  0.00  0.00    +0.000 OA
ENDBRANCH  16  19
ENDBRANCH  14  16
ENDBRANCH   1  14
TORSDOF 4
ENDMDL
MODEL 3
REMARK VINA RESULT:      -6.4      1.429      2.236
REMARK  Name = 
REMARK  7 active torsions:
REMARK  status: ('A' for Active; 'I' for Inactive)
REMARK    1  A    between atoms: C_1  and  O_2
REMARK    2  A    between atoms: O_2  and  C_3
REMARK    3  A    between atoms: C_3  and  C_5
REMARK    4  A    between atoms: C_5  and  C_6
REMARK    5  A    between atoms: C_5  and  N_7
REMARK    6  A    between atoms: N_10  and  C_11
REMARK    7  A    between atoms: C_15  and  C_16
REMARK                            x       y       z     vdW  Elec       q    Type
REMARK                         _______ _______ _______ _____ _____    ______ ____
ROOT
ATOM      1  N   UNL     1       6.040   3.440  16.381  0.00  0.00    +0.000 N 
ATOM      2  C   UNL     1       4.926   3.721  17.137  0.00  0.00    +0.000 C 
ATOM      3  O   UNL     1       4.548   4.875  17.297  0.00  0.00    +0.000 OA
ATOM      4  N   UNL     1       4.349   2.595  17.681  0.00  0.00    +0.000 N 
ATOM      5  H   UNL     1       6.191   2.502  16.036  0.00  0.00    +0.000 HD
ATOM      6  H   UNL     1       4.939   1.782  17.752  0.00  0.00    +0.000 HD
ENDROOT
BRANCH   4   7
ATOM      7  C   UNL     1       3.160   2.598  18.444  0.00  0.00    +0.000 A 
ATOM      8  C   UNL     1       1.894   2.423  17.873  0.00  0.00    +0.000 A 
ATOM      9  C   UNL     1       0.736   2.507  18.644  0.00  0.00    +0.000 A 
ATOM     10  C   UNL     1       0.827   2.758  20.008  0.00  0.00    +0.000 A 
ATOM     11  C   UNL     1       2.080   2.900  20.616  0.00  0.00    +0.000 A 
ATOM     12  C   UNL     1       2.175   3.190  22.085  0.00  0.00    +0.000 C 
ATOM     13  C   UNL     1       3.244   2.801  19.830  0.00  0.00    +0.000 A 
ENDBRANCH   4   7
BRANCH   1  14
ATOM     14  C   UNL     1       6.721   4.541  15.688  0.00  0.00    +0.000 C 
ATOM     15  C   UNL     1       5.740   5.262  14.770  0.00  0.00    +0.000 C 
BRANCH  14  16
ATOM     16  C   UNL     1       7.404   5.549  16.617  0.00  0.00    +0.000 C 
ATOM     17  O   UNL     1       7.507   6.745  16.371  0.00  0.00    +0.000 OA
BRANCH  16  19
ATOM     18  C   UNL     1       7.689   5.721  18.928  0.00  0.00    +0.000 C 
ATOM     19  O   UNL     1       7.891   4.948  17.744  0.00  0.00    +0.000 OA
ENDBRANCH  16  19
ENDBRANCH  14  16
ENDBRANCH   1  14
TORSDOF 4
ENDMDL
MODEL 4
REMARK VINA RESULT:      -6.3      4.856      8.604
REMARK  Name = 
REMARK  7 active torsions:
REMARK  status: ('A' for Active; 'I' for Inactive)
REMARK    1  A    between atoms: C_1  and  O_2
REMARK    2  A    between atoms: O_2  and  C_3
REMARK    3  A    between atoms: C_3  and  C_5
REMARK    4  A    between atoms: C_5  and  C_6
REMARK    5  A    between atoms: C_5  and  N_7
REMARK    6  A    between atoms: N_10  and  C_11
REMARK    7  A    between atoms: C_15  and  C_16
REMARK                            x       y       z     vdW  Elec       q    Type
REMARK                         _______ _______ _______ _____ _____    ______ ____
ROOT
ATOM      1  N   UNL     1       6.984   7.725  17.191  0.00  0.00    +0.000 N 
ATOM      2  C   UNL     1       7.941   8.265  18.019  0.00  0.00    +0.000 C 
ATOM      3  O   UNL     1       8.449   7.600  18.913  0.00  0.00    +0.000 OA
ATOM      4  N   UNL     1       8.209   9.587  17.738  0.00  0.00    +0.000 N 
ATOM      5  H   UNL     1       6.768   8.173  16.312  0.00  0.00    +0.000 HD
ATOM      6  H   UNL     1       7.499  10.086  17.227  0.00  0.00    +0.000 HD
ENDROOT
BRANCH   4   7
ATOM      7  C   UNL     1       9.194  10.357  18.395  0.00  0.00    +0.000 A 
ATOM      8  C   UNL     1       9.290  10.433  19.789  0.00  0.00    +0.000 A 
ATOM      9  C   UNL     1      10.227  11.264  20.405  0.00  0.00    +0.000 A 
ATOM     10  C   UNL     1      11.093  12.027  19.630  0.00  0.00    +0.000 A 
ATOM     11  C   UNL     1      11.047  11.944  18.233  0.00  0.00    +0.000 A 
ATOM     12  C   UNL     1      11.970  12.782  17.400  0.00  0.00    +0.000 C 
ATOM     13  C   UNL     1      10.107  11.093  17.622  0.00  0.00    +0.000 A 
ENDBRANCH   4   7
BRANCH   1  14
ATOM     14  C   UNL     1       6.644   6.304  17.337  0.00  0.00    +0.000 C 
ATOM     15  C   UNL     1       5.133   6.142  17.458  0.00  0.00    +0.000 C 
BRANCH  14  16
ATOM     16  C   UNL     1       7.178   5.406  16.216  0.00  0.00    +0.000 C 
ATOM     17  O   UNL     1       7.957   4.477  16.397  0.00  0.00    +0.000 OA
BRANCH  16  19
ATOM     18  C   UNL     1       6.787   4.744  14.011  0.00  0.00    +0.000 C 
ATOM     19  O   UNL     1       6.687   5.775  14.996  0.00  0.00    +0.000 OA
ENDBRANCH  16  19
ENDBRANCH  14  16
ENDBRANCH   1  14
TORSDOF 4
ENDMDL
MODEL 5
REMARK VINA RESULT:      -6.3      1.543      1.931
REMARK  Name = 
REMARK  7 active torsions:
REMARK  status: ('A' for Active; 'I' for Inactive)
REMARK    1  A    between atoms: C_1  and  O_2
REMARK    2  A    between atoms: O_2  and  C_3
REMARK    3  A    between atoms: C_3  and  C_5
REMARK    4  A    between atoms: C_5  and  C_6
REMARK    5  A    between atoms: C_5  and  N_7
REMARK    6  A    between atoms: N_10  and  C_11
REMARK    7  A    between atoms: C_15  and  C_16
REMARK                            x       y       z     vdW  Elec       q    Type
REMARK                         _______ _______ _______ _____ _____    ______ ____
ROOT
ATOM      1  N   UNL     1       6.465   4.498  18.521  0.00  0.00    +0.000 N 
ATOM      2  C   UNL     1       5.147   4.434  18.911  0.00  0.00    +0.000 C 
ATOM      3  O   UNL     1       4.547   5.439  19.269  0.00  0.00    +0.000 OA
ATOM      4  N   UNL     1       4.638   3.154  18.875  0.00  0.00    +0.000 N 
ATOM      5  H   UNL     1       6.868   3.741  17.986  0.00  0.00    +0.000 HD
ATOM      6  H   UNL     1       5.312   2.406  18.895  0.00  0.00    +0.000 HD
ENDROOT
BRANCH   4   7
ATOM      7  C   UNL     1       3.296   2.822  19.163  0.00  0.00    +0.000 A 
ATOM      8  C   UNL     1       2.344   2.581  18.166  0.00  0.00    +0.000 A 
ATOM      9  C   UNL     1       1.010   2.330  18.485  0.00  0.00    +0.000 A 
ATOM     10  C   UNL     1       0.608   2.306  19.816  0.00  0.00    +0.000 A 
ATOM     11  C   UNL     1       1.543   2.505  20.838  0.00  0.00    +0.000 A 
ATOM     12  C   UNL     1       1.103   2.498  22.272  0.00  0.00    +0.000 C 
ATOM     13  C   UNL     1       2.889   2.745  20.505  0.00  0.00    +0.000 A 
ENDBRANCH   4   7
BRANCH   1  14
ATOM     14  C   UNL     1       7.119   5.810  18.452  0.00  0.00    +0.000 C 
ATOM     15  C   UNL     1       8.358   5.820  19.341  0.00  0.00    +0.000 C 
BRANCH  14  16
ATOM     16  C   UNL     1       7.489   6.260  17.035  0.00  0.00    +0.000 C 
ATOM     17  O   UNL     1       7.627   7.433  16.705  0.00  0.00    +0.000 OA
BRANCH  16  19
ATOM     18  C   UNL     1       6.630   5.144  15.173  0.00  0.00    +0.000 C 
ATOM     19  O   UNL     1       7.634   5.197  16.189  0.00  0.00    +0.000 OA
ENDBRANCH  16  19
ENDBRANCH  14  16
ENDBRANCH   1  14
TORSDOF 4
ENDMDL
MODEL 6
REMARK VINA RESULT:      -6.2      1.743      2.666
REMARK  Name = 
REMARK  7 active torsions:
REMARK  status: ('A' for Active; 'I' for Inactive)
REMARK    1  A    between atoms: C_1  and  O_2
REMARK    2  A    between atoms: O_2  and  C_3
REMARK    3  A    between atoms: C_3  and  C_5
REMARK    4  A    between atoms: C_5  and  C_6
REMARK    5  A    between atoms: C_5  and  N_7
REMARK    6  A    between atoms: N_10  and  C_11
REMARK    7  A    between atoms: C_15  and  C_16
REMARK                            x       y       z     vdW  Elec       q    Type
REMARK                         _______ _______ _______ _____ _____    ______ ____
ROOT
ATOM      1  N   UNL     1       6.599   4.091  17.385  0.00  0.00    +0.000 N 
ATOM      2  C   UNL     1       5.298   4.250  17.802  0.00  0.00    +0.000 C 
ATOM      3  O   UNL     1       4.744   5.340  17.736  0.00  0.00    +0.000 OA
ATOM      4  N   UNL     1       4.749   3.090  18.303  0.00  0.00    +0.000 N 
ATOM      5  H   UNL     1       6.957   3.166  17.193  0.00  0.00    +0.000 HD
ATOM      6  H   UNL     1       5.401   2.385  18.608  0.00  0.00    +0.000 HD
ENDROOT
BRANCH   4   7
ATOM      7  C   UNL     1       3.411   2.964  18.738  0.00  0.00    +0.000 A 
ATOM      8  C   UNL     1       2.323   3.005  17.859  0.00  0.00    +0.000 A 
ATOM      9  C   UNL     1       1.011   2.953  18.331  0.00  0.00    +0.000 A 
ATOM     10  C   UNL     1       0.768   2.849  19.695  0.00  0.00    +0.000 A 
ATOM     11  C   UNL     1       1.836   2.767  20.597  0.00  0.00    +0.000 A 
ATOM     12  C   UNL     1       1.571   2.674  22.070  0.00  0.00    +0.000 C 
ATOM     13  C   UNL     1       3.156   2.807  20.110  0.00  0.00    +0.000 A 
ENDBRANCH   4   7
BRANCH   1  14
ATOM     14  C   UNL     1       7.289   5.232  16.770  0.00  0.00    +0.000 C 
ATOM     15  C   UNL     1       6.519   5.704  15.541  0.00  0.00    +0.000 C 
BRANCH  14  16
ATOM     16  C   UNL     1       7.534   6.411  17.717  0.00  0.00    +0.000 C 
ATOM     17  O   UNL     1       7.899   6.287  18.881  0.00  0.00    +0.000 OA
BRANCH  16  19
ATOM     18  C   UNL     1       7.928   8.712  17.752  0.00  0.00    +0.000 C 
ATOM     19  O   UNL     1       7.287   7.608  17.108  0.00  0.00    +0.000 OA
ENDBRANCH  16  19
ENDBRANCH  14  16
ENDBRANCH   1  14
TORSDOF 4
ENDMDL
MODEL 7
REMARK VINA RESULT:      -6.2      2.110      3.540
REMARK  Name = 
REMARK  7 active torsions:
REMARK  status: ('A' for Active; 'I' for Inactive)
REMARK    1  A    between atoms: C_1  and  O_2
REMARK    2  A    between atoms: O_2  and  C_3
REMARK    3  A    between atoms: C_3  and  C_5
REMARK    4  A    between atoms: C_5  and  C_6
REMARK    5  A    between atoms: C_5  and  N_7
REMARK    6  A    between atoms: N_10  and  C_11
REMARK    7  A    between atoms: C_15  and  C_16
REMARK                            x       y       z     vdW  Elec       q    Type
REMARK                         _______ _______ _______ _____ _____    ______ ____
ROOT
ATOM      1  N   UNL     1       6.430   3.372  14.053  0.00  0.00    +0.000 N 
ATOM      2  C   UNL     1       5.684   4.103  14.949  0.00  0.00    +0.000 C 
ATOM      3  O   UNL     1       5.068   5.099  14.591  0.00  0.00    +0.000 OA
ATOM      4  N   UNL     1       5.749   3.605  16.232  0.00  0.00    +0.000 N 
ATOM      5  H   UNL     1       6.711   2.429  14.283  0.00  0.00    +0.000 HD
ATOM      6  H   UNL     1       6.536   3.013  16.441  0.00  0.00    +0.000 HD
ENDROOT
BRANCH   4   7
ATOM      7  C   UNL     1       5.026   4.128  17.327  0.00  0.00    +0.000 A 
ATOM      8  C   UNL     1       5.626   4.896  18.332  0.00  0.00    +0.000 A 
ATOM      9  C   UNL     1       4.898   5.333  19.438  0.00  0.00    +0.000 A 
ATOM     10  C   UNL     1       3.550   5.016  19.552  0.00  0.00    +0.000 A 
ATOM     11  C   UNL     1       2.912   4.282  18.545  0.00  0.00    +0.000 A 
ATOM     12  C   UNL     1       1.461   3.924  18.679  0.00  0.00    +0.000 C 
ATOM     13  C   UNL     1       3.653   3.856  17.426  0.00  0.00    +0.000 A 
ENDBRANCH   4   7
BRANCH   1  14
ATOM     14  C   UNL     1       6.404   3.752  12.635  0.00  0.00    +0.000 C 
ATOM     15  C   UNL     1       7.566   4.690  12.328  0.00  0.00    +0.000 C 
BRANCH  14  16
ATOM     16  C   UNL     1       6.414   2.570  11.661  0.00  0.00    +0.000 C 
ATOM     17  O   UNL     1       7.436   2.074  11.200  0.00  0.00    +0.000 OA
BRANCH  16  19
ATOM     18  C   UNL     1       4.195   3.211  11.321  0.00  0.00    +0.000 C 
ATOM     19  O   UNL     1       5.149   2.148  11.366  0.00  0.00    +0.000 OA
ENDBRANCH  16  19
ENDBRANCH  14  16
ENDBRANCH   1  14
TORSDOF 4
ENDMDL
MODEL 8
REMARK VINA RESULT:      -6.1      1.521      1.636
REMARK  Name = 
REMARK  7 active torsions:
REMARK  status: ('A' for Active; 'I' for Inactive)
REMARK    1  A    between atoms: C_1  and  O_2
REMARK    2  A    between atoms: O_2  and  C_3
REMARK    3  A    between atoms: C_3  and  C_5
REMARK    4  A    between atoms: C_5  and  C_6
REMARK    5  A    between atoms: C_5  and  N_7
REMARK    6  A    between atoms: N_10  and  C_11
REMARK    7  A    between atoms: C_15  and  C_16
REMARK                            x       y       z     vdW  Elec       q    Type
REMARK                         _______ _______ _______ _____ _____    ______ ____
ROOT
ATOM      1  N   UNL     1       5.369   6.411  17.458  0.00  0.00    +0.000 N 
ATOM      2  C   UNL     1       4.730   5.261  17.861  0.00  0.00    +0.000 C 
ATOM      3  O   UNL     1       5.319   4.188  17.881  0.00  0.00    +0.000 OA
ATOM      4  N   UNL     1       3.408   5.468  18.188  0.00  0.00    +0.000 N 
ATOM      5  H   UNL     1       4.976   7.313  17.691  0.00  0.00    +0.000 HD
ATOM      6  H   UNL     1       2.980   6.296  17.808  0.00  0.00    +0.000 HD
ENDROOT
BRANCH   4   7
ATOM      7  C   UNL     1       2.546   4.469  18.691  0.00  0.00    +0.000 A 
ATOM      8  C   UNL     1       1.602   3.811  17.893  0.00  0.00    +0.000 A 
ATOM      9  C   UNL     1       0.715   2.884  18.440  0.00  0.00    +0.000 A 
ATOM     10  C   UNL     1       0.766   2.591  19.798  0.00  0.00    +0.000 A 
ATOM     11  C   UNL     1       1.723   3.204  20.615  0.00  0.00    +0.000 A 
ATOM     12  C   UNL     1       1.763   2.901  22.083  0.00  0.00    +0.000 C 
ATOM     13  C   UNL     1       2.622   4.129  20.051  0.00  0.00    +0.000 A 
ENDBRANCH   4   7
BRANCH   1  14
ATOM     14  C   UNL     1       6.800   6.351  17.139  0.00  0.00    +0.000 C 
ATOM     15  C   UNL     1       7.606   6.114  18.412  0.00  0.00    +0.000 C 
BRANCH  14  16
ATOM     16  C   UNL     1       7.171   5.304  16.084  0.00  0.00    +0.000 C 
ATOM     17  O   UNL     1       7.960   4.387  16.279  0.00  0.00    +0.000 OA
BRANCH  16  19
ATOM     18  C   UNL     1       6.350   4.343  14.121  0.00  0.00    +0.000 C 
ATOM     19  O   UNL     1       6.523   5.528  14.902  0.00  0.00    +0.000 OA
ENDBRANCH  16  19
ENDBRANCH  14  16
ENDBRANCH   1  14
TORSDOF 4
ENDMDL
MODEL 9
REMARK VINA RESULT:      -6.1      1.477      2.310
REMARK  Name = 
REMARK  7 active torsions:
REMARK  status: ('A' for Active; 'I' for Inactive)
REMARK    1  A    between atoms: C_1  and  O_2
REMARK    2  A    between atoms: O_2  and  C_3
REMARK    3  A    between atoms: C_3  and  C_5
REMARK    4  A    between atoms: C_5  and  C_6
REMARK    5  A    between atoms: C_5  and  N_7
REMARK    6  A    between atoms: N_10  and  C_11
REMARK    7  A    between atoms: C_15  and  C_16
REMARK                            x       y       z     vdW  Elec       q    Type
REMARK                         _______ _______ _______ _____ _____    ______ ____
ROOT
ATOM      1  N   UNL     1       5.977   3.434  16.415  0.00  0.00    +0.000 N 
ATOM      2  C   UNL     1       4.799   3.819  17.013  0.00  0.00    +0.000 C 
ATOM      3  O   UNL     1       4.218   4.838  16.661  0.00  0.00    +0.000 OA
ATOM      4  N   UNL     1       4.406   2.968  18.022  0.00  0.00    +0.000 N 
ATOM      5  H   UNL     1       6.305   2.483  16.516  0.00  0.00    +0.000 HD
ATOM      6  H   UNL     1       5.126   2.388  18.422  0.00  0.00    +0.000 HD
ENDROOT
BRANCH   4   7
ATOM      7  C   UNL     1       3.203   3.098  18.751  0.00  0.00    +0.000 A 
ATOM      8  C   UNL     1       2.200   2.122  18.736  0.00  0.00    +0.000 A 
ATOM      9  C   UNL     1       0.993   2.317  19.407  0.00  0.00    +0.000 A 
ATOM     10  C   UNL     1       0.775   3.493  20.115  0.00  0.00    +0.000 A 
ATOM     11  C   UNL     1       1.773   4.472  20.180  0.00  0.00    +0.000 A 
ATOM     12  C   UNL     1       1.528   5.749  20.929  0.00  0.00    +0.000 C 
ATOM     13  C   UNL     1       2.993   4.260  19.510  0.00  0.00    +0.000 A 
ENDBRANCH   4   7
BRANCH   1  14
ATOM     14  C   UNL     1       6.484   4.216  15.280  0.00  0.00    +0.000 C 
ATOM     15  C   UNL     1       5.683   3.887  14.025  0.00  0.00    +0.000 C 
BRANCH  14  16
ATOM     16  C   UNL     1       6.499   5.730  15.510  0.00  0.00    +0.000 C 
ATOM     17  O   UNL     1       5.665   6.500  15.047  0.00  0.00    +0.000 OA
BRANCH  16  19
ATOM     18  C   UNL     1       7.180   6.926  17.396  0.00  0.00    +0.000 C 
ATOM     19  O   UNL     1       7.558   6.113  16.283  0.00  0.00    +0.000 OA
ENDBRANCH  16  19
ENDBRANCH  14  16
ENDBRANCH   1  14
TORSDOF 4
ENDMDL
