MODEL 1
REMARK VINA RESULT:      -6.9      0.000      0.000
REMARK  Name = 
REMARK  1 active torsions:
REMARK  status: ('A' for Active; 'I' for Inactive)
REMARK    1  A    between atoms: C_8  and  C_9
REMARK                            x       y       z     vdW  Elec       q    Type
REMARK                         _______ _______ _______ _____ _____    ______ ____
ROOT
ATOM      1 CL   UNL     1       2.130   7.465  20.137  0.00  0.00    +0.000 Cl
ATOM      2  C   UNL     1       2.204   5.770  19.812  0.00  0.00    +0.000 A 
ATOM      3  C   UNL     1       1.214   4.874  20.463  0.00  0.00    +0.000 A 
ATOM      4  C   UNL     1       1.301   3.566  20.200  0.00  0.00    +0.000 A 
ATOM      5  C   UNL     1       2.310   3.106  19.327  0.00  0.00    +0.000 A 
ATOM      6  N   UNL     1       2.601   1.889  18.930  0.00  0.00    +0.000 NA
ATOM      7  C   UNL     1       3.663   2.043  18.080  0.00  0.00    +0.000 A 
ATOM      8  C   UNL     1       4.039   3.370  17.942  0.00  0.00    +0.000 A 
ATOM      9  N   UNL     1       3.160   4.052  18.768  0.00  0.00    +0.000 N 
ATOM     10  N   UNL     1       3.140   5.399  18.996  0.00  0.00    +0.000 NA
ENDROOT
BRANCH   8  11
ATOM     11  C   UNL     1       5.095   3.959  17.115  0.00  0.00    +0.000 A 
ATOM     12  C   UNL     1       4.868   4.234  15.761  0.00  0.00    +0.000 A 
ATOM     13  C   UNL     1       5.848   4.865  14.996  0.00  0.00    +0.000 A 
ATOM     14  C   UNL     1       7.042   5.205  15.608  0.00  0.00    +0.000 A 
ATOM     15  N   UNL     1       7.313   4.949  16.904  0.00  0.00    +0.000 NA
ATOM     16  C   UNL     1       6.339   4.333  17.622  0.00  0.00    +0.000 A 
ENDBRANCH   8  11
TORSDOF 1
ENDMDL
MODEL 2
REMARK VINA RESULT:      -6.9      1.581      1.800
REMARK  Name = 
REMARK  1 active torsions:
REMARK  status: ('A' for Active; 'I' for Inactive)
REMARK    1  A    between atoms: C_8  and  C_9
REMARK                            x       y       z     vdW  Elec       q    Type
REMARK                         _______ _______ _______ _____ _____    ______ ____
ROOT
ATOM      1 CL   UNL     1       2.307   8.861  17.816  0.00  0.00    +0.000 Cl
ATOM      2  C   UNL     1       2.708   7.323  18.492  0.00  0.00    +0.000 A 
ATOM      3  C   UNL     1       2.013   6.885  19.730  0.00  0.00    +0.000 A 
ATOM      4  C   UNL     1       2.349   5.693  20.236  0.00  0.00    +0.000 A 
ATOM      5  C   UNL     1       3.330   4.920  19.578  0.00  0.00    +0.000 A 
ATOM      6  N   UNL     1       3.830   3.744  19.883  0.00  0.00    +0.000 NA
ATOM      7  C   UNL     1       4.733   3.480  18.888  0.00  0.00    +0.000 A 
ATOM      8  C   UNL     1       4.797   4.501  17.951  0.00  0.00    +0.000 A 
ATOM      9  N   UNL     1       3.890   5.438  18.418  0.00  0.00    +0.000 N 
ATOM     10  N   UNL     1       3.605   6.646  17.847  0.00  0.00    +0.000 NA
ENDROOT
BRANCH   8  11
ATOM     11  C   UNL     1       5.603   4.597  16.731  0.00  0.00    +0.000 A 
ATOM     12  C   UNL     1       5.151   4.032  15.533  0.00  0.00    +0.000 A 
ATOM     13  C   UNL     1       5.883   4.192  14.358  0.00  0.00    +0.000 A 
ATOM     14  C   UNL     1       7.060   4.917  14.411  0.00  0.00    +0.000 A 
ATOM     15  N   UNL     1       7.544   5.468  15.542  0.00  0.00    +0.000 NA
ATOM     16  C   UNL     1       6.808   5.294  16.671  0.00  0.00    +0.000 A 
ENDBRANCH   8  11
TORSDOF 1
ENDMDL
MODEL 3
REMARK VINA RESULT:      -6.8      2.030      2.911
REMARK  Name = 
REMARK  1 active torsions:
REMARK  status: ('A' for Active; 'I' for Inactive)
REMARK    1  A    between atoms: C_8  and  C_9
REMARK                            x       y       z     vdW  Elec       q    Type
REMARK                         _______ _______ _______ _____ _____    ______ ____
ROOT
ATOM      1 CL   UNL     1       3.413   2.306  20.751  0.00  0.00    +0.000 Cl
ATOM      2  C   UNL     1       3.104   3.905  20.178  0.00  0.00    +0.000 A 
ATOM      3  C   UNL     1       2.106   4.740  20.895  0.00  0.00    +0.000 A 
ATOM      4  C   UNL     1       1.881   5.971  20.423  0.00  0.00    +0.000 A 
ATOM      5  C   UNL     1       2.592   6.413  19.287  0.00  0.00    +0.000 A 
ATOM      6  N   UNL     1       2.537   7.554  18.640  0.00  0.00    +0.000 NA
ATOM      7  C   UNL     1       3.454   7.429  17.631  0.00  0.00    +0.000 A 
ATOM      8  C   UNL     1       4.090   6.197  17.648  0.00  0.00    +0.000 A 
ATOM      9  N   UNL     1       3.512   5.539  18.722  0.00  0.00    +0.000 N 
ATOM     10  N   UNL     1       3.789   4.268  19.140  0.00  0.00    +0.000 NA
ENDROOT
BRANCH   8  11
ATOM     11  C   UNL     1       5.144   5.679  16.771  0.00  0.00    +0.000 A 
ATOM     12  C   UNL     1       4.892   4.599  15.917  0.00  0.00    +0.000 A 
ATOM     13  C   UNL     1       5.872   4.159  15.030  0.00  0.00    +0.000 A 
ATOM     14  C   UNL     1       7.092   4.813  15.021  0.00  0.00    +0.000 A 
ATOM     15  N   UNL     1       7.387   5.847  15.833  0.00  0.00    +0.000 NA
ATOM     16  C   UNL     1       6.411   6.253  16.687  0.00  0.00    +0.000 A 
ENDBRANCH   8  11
TORSDOF 1
ENDMDL
MODEL 4
REMARK VINA RESULT:      -6.7      0.697      1.206
REMARK  Name = 
REMARK  1 active torsions:
REMARK  status: ('A' for Active; 'I' for Inactive)
REMARK    1  A    between atoms: C_8  and  C_9
REMARK                            x       y       z     vdW  Elec       q    Type
REMARK                         _______ _______ _______ _____ _____    ______ ____
ROOT
ATOM      1 CL   UNL     1       1.965   7.313  20.369  0.00  0.00    +0.000 Cl
ATOM      2  C   UNL     1       2.073   5.638  19.962  0.00  0.00    +0.000 A 
ATOM      3  C   UNL     1       1.091   4.694  20.557  0.00  0.00    +0.000 A 
ATOM      4  C   UNL     1       1.204   3.402  20.230  0.00  0.00    +0.000 A 
ATOM      5  C   UNL     1       2.231   3.003  19.348  0.00  0.00    +0.000 A 
ATOM      6  N   UNL     1       2.548   1.812  18.896  0.00  0.00    +0.000 NA
ATOM      7  C   UNL     1       3.617   2.025  18.068  0.00  0.00    +0.000 A 
ATOM      8  C   UNL     1       3.972   3.364  18.001  0.00  0.00    +0.000 A 
ATOM      9  N   UNL     1       3.071   3.989  18.848  0.00  0.00    +0.000 N 
ATOM     10  N   UNL     1       3.024   5.323  19.141  0.00  0.00    +0.000 NA
ENDROOT
BRANCH   8  11
ATOM     11  C   UNL     1       5.027   4.011  17.217  0.00  0.00    +0.000 A 
ATOM     12  C   UNL     1       6.234   4.386  17.820  0.00  0.00    +0.000 A 
ATOM     13  C   UNL     1       7.264   4.931  17.057  0.00  0.00    +0.000 A 
ATOM     14  C   UNL     1       7.060   5.092  15.698  0.00  0.00    +0.000 A 
ATOM     15  N   UNL     1       5.913   4.759  15.073  0.00  0.00    +0.000 NA
ATOM     16  C   UNL     1       4.927   4.232  15.844  0.00  0.00    +0.000 A 
ENDBRANCH   8  11
TORSDOF 1
ENDMDL
MODEL 5
REMARK VINA RESULT:      -6.7      1.266      1.722
REMARK  Name = 
REMARK  1 active torsions:
REMARK  status: ('A' for Active; 'I' for Inactive)
REMARK    1  A    between atoms: C_8  and  C_9
REMARK                            x       y       z     vdW  Elec       q    Type
REMARK                         _______ _______ _______ _____ _____    ______ ____
ROOT
ATOM      1 CL   UNL     1       1.336   6.817  21.200  0.00  0.00    +0.000 Cl
ATOM      2  C   UNL     1       1.753   5.371  20.353  0.00  0.00    +0.000 A 
ATOM      3  C   UNL     1       0.839   4.203  20.443  0.00  0.00    +0.000 A 
ATOM      4  C   UNL     1       1.192   3.093  19.785  0.00  0.00    +0.000 A 
ATOM      5  C   UNL     1       2.394   3.086  19.045  0.00  0.00    +0.000 A 
ATOM      6  N   UNL     1       2.951   2.130  18.338  0.00  0.00    +0.000 NA
ATOM      7  C   UNL     1       4.095   2.689  17.835  0.00  0.00    +0.000 A 
ATOM      8  C   UNL     1       4.255   4.009  18.230  0.00  0.00    +0.000 A 
ATOM      9  N   UNL     1       3.148   4.252  19.028  0.00  0.00    +0.000 N 
ATOM     10  N   UNL     1       2.859   5.417  19.680  0.00  0.00    +0.000 NA
ENDROOT
BRANCH   8  11
ATOM     11  C   UNL     1       5.314   4.962  17.891  0.00  0.00    +0.000 A 
ATOM     12  C   UNL     1       6.416   5.133  18.739  0.00  0.00    +0.000 A 
ATOM     13  C   UNL     1       7.458   5.983  18.376  0.00  0.00    +0.000 A 
ATOM     14  C   UNL     1       7.372   6.650  17.167  0.00  0.00    +0.000 A 
ATOM     15  N   UNL     1       6.327   6.530  16.324  0.00  0.00    +0.000 NA
ATOM     16  C   UNL     1       5.326   5.695  16.706  0.00  0.00    +0.000 A 
ENDBRANCH   8  11
TORSDOF 1
ENDMDL
MODEL 6
REMARK VINA RESULT:      -6.6      2.776      5.591
REMARK  Name = 
REMARK  1 active torsions:
REMARK  status: ('A' for Active; 'I' for Inactive)
REMARK    1  A    between atoms: C_8  and  C_9
REMARK                            x       y       z     vdW  Elec       q    Type
REMARK                         _______ _______ _______ _____ _____    ______ ____
ROOT
ATOM      1 CL   UNL     1       5.608   3.686  13.520  0.00  0.00    +0.000 Cl
ATOM      2  C   UNL     1       5.903   4.313  15.102  0.00  0.00    +0.000 A 
ATOM      3  C   UNL     1       7.121   5.132  15.329  0.00  0.00    +0.000 A 
ATOM      4  C   UNL     1       7.328   5.597  16.566  0.00  0.00    +0.000 A 
ATOM      5  C   UNL     1       6.393   5.294  17.580  0.00  0.00    +0.000 A 
ATOM      6  N   UNL     1       6.384   5.619  18.852  0.00  0.00    +0.000 NA
ATOM      7  C   UNL     1       5.233   5.066  19.345  0.00  0.00    +0.000 A 
ATOM      8  C   UNL     1       4.514   4.389  18.371  0.00  0.00    +0.000 A 
ATOM      9  N   UNL     1       5.286   4.533  17.230  0.00  0.00    +0.000 N 
ATOM     10  N   UNL     1       5.012   4.017  15.995  0.00  0.00    +0.000 NA
ENDROOT
BRANCH   8  11
ATOM     11  C   UNL     1       3.230   3.691  18.476  0.00  0.00    +0.000 A 
ATOM     12  C   UNL     1       3.099   2.562  19.293  0.00  0.00    +0.000 A 
ATOM     13  C   UNL     1       1.858   1.947  19.450  0.00  0.00    +0.000 A 
ATOM     14  C   UNL     1       0.772   2.478  18.778  0.00  0.00    +0.000 A 
ATOM     15  N   UNL     1       0.850   3.554  17.970  0.00  0.00    +0.000 NA
ATOM     16  C   UNL     1       2.073   4.131  17.836  0.00  0.00    +0.000 A 
ENDBRANCH   8  11
TORSDOF 1
ENDMDL
MODEL 7
REMARK VINA RESULT:      -6.5      2.805      5.740
REMARK  Name = 
REMARK  1 active torsions:
REMARK  status: ('A' for Active; 'I' for Inactive)
REMARK    1  A    between atoms: C_8  and  C_9
REMARK                            x       y       z     vdW  Elec       q    Type
REMARK                         _______ _______ _______ _____ _____    ______ ____
ROOT
ATOM      1 CL   UNL     1       5.128   3.568  12.582  0.00  0.00    +0.000 Cl
ATOM      2  C   UNL     1       5.813   4.110  14.072  0.00  0.00    +0.000 A 
ATOM      3  C   UNL     1       7.143   4.773  14.047  0.00  0.00    +0.000 A 
ATOM      4  C   UNL     1       7.652   5.175  15.216  0.00  0.00    +0.000 A 
ATOM      5  C   UNL     1       6.914   4.957  16.399  0.00  0.00    +0.000 A 
ATOM      6  N   UNL     1       7.203   5.246  17.647  0.00  0.00    +0.000 NA
ATOM      7  C   UNL     1       6.118   4.819  18.365  0.00  0.00    +0.000 A 
ATOM      8  C   UNL     1       5.139   4.259  17.557  0.00  0.00    +0.000 A 
ATOM      9  N   UNL     1       5.674   4.343  16.282  0.00  0.00    +0.000 N 
ATOM     10  N   UNL     1       5.093   3.898  15.128  0.00  0.00    +0.000 NA
ENDROOT
BRANCH   8  11
ATOM     11  C   UNL     1       3.828   3.716  17.921  0.00  0.00    +0.000 A 
ATOM     12  C   UNL     1       2.671   4.491  17.777  0.00  0.00    +0.000 A 
ATOM     13  C   UNL     1       1.419   3.946  18.052  0.00  0.00    +0.000 A 
ATOM     14  C   UNL     1       1.353   2.628  18.469  0.00  0.00    +0.000 A 
ATOM     15  N   UNL     1       2.438   1.846  18.636  0.00  0.00    +0.000 NA
ATOM     16  C   UNL     1       3.645   2.406  18.362  0.00  0.00    +0.000 A 
ENDBRANCH   8  11
TORSDOF 1
ENDMDL
MODEL 8
REMARK VINA RESULT:      -6.5      2.848      5.148
REMARK  Name = 
REMARK  1 active torsions:
REMARK  status: ('A' for Active; 'I' for Inactive)
REMARK    1  A    between atoms: C_8  and  C_9
REMARK                            x       y       z     vdW  Elec       q    Type
REMARK                         _______ _______ _______ _____ _____    ______ ____
ROOT
ATOM      1 CL   UNL     1       0.511   2.601  19.288  0.00  0.00    +0.000 Cl
ATOM      2  C   UNL     1       1.838   3.403  18.528  0.00  0.00    +0.000 A 
ATOM      3  C   UNL     1       2.839   2.588  17.793  0.00  0.00    +0.000 A 
ATOM      4  C   UNL     1       3.861   3.235  17.221  0.00  0.00    +0.000 A 
ATOM      5  C   UNL     1       3.937   4.639  17.339  0.00  0.00    +0.000 A 
ATOM      6  N   UNL     1       4.834   5.483  16.884  0.00  0.00    +0.000 NA
ATOM      7  C   UNL     1       4.392   6.714  17.286  0.00  0.00    +0.000 A 
ATOM      8  C   UNL     1       3.204   6.640  17.999  0.00  0.00    +0.000 A 
ATOM      9  N   UNL     1       2.925   5.284  18.038  0.00  0.00    +0.000 N 
ATOM     10  N   UNL     1       1.858   4.693  18.655  0.00  0.00    +0.000 NA
ENDROOT
BRANCH   8  11
ATOM     11  C   UNL     1       2.393   7.717  18.574  0.00  0.00    +0.000 A 
ATOM     12  C   UNL     1       1.885   8.737  17.760  0.00  0.00    +0.000 A 
ATOM     13  C   UNL     1       1.050   9.716  18.296  0.00  0.00    +0.000 A 
ATOM     14  C   UNL     1       0.744   9.652  19.644  0.00  0.00    +0.000 A 
ATOM     15  N   UNL     1       1.219   8.698  20.471  0.00  0.00    +0.000 NA
ATOM     16  C   UNL     1       2.031   7.759  19.919  0.00  0.00    +0.000 A 
ENDBRANCH   8  11
TORSDOF 1
ENDMDL
MODEL 9
REMARK VINA RESULT:      -6.5      1.210      1.556
REMARK  Name = 
REMARK  1 active torsions:
REMARK  status: ('A' for Active; 'I' for Inactive)
REMARK    1  A    between atoms: C_8  and  C_9
REMARK                            x       y       z     vdW  Elec       q    Type
REMARK                         _______ _______ _______ _____ _____    ______ ____
ROOT
ATOM      1 CL   UNL     1       1.992   8.216  19.266  0.00  0.00    +0.000 Cl
ATOM      2  C   UNL     1       2.334   6.566  19.643  0.00  0.00    +0.000 A 
ATOM      3  C   UNL     1       1.567   5.908  20.731  0.00  0.00    +0.000 A 
ATOM      4  C   UNL     1       1.859   4.633  21.007  0.00  0.00    +0.000 A 
ATOM      5  C   UNL     1       2.864   3.981  20.260  0.00  0.00    +0.000 A 
ATOM      6  N   UNL     1       3.331   2.757  20.350  0.00  0.00    +0.000 NA
ATOM      7  C   UNL     1       4.284   2.673  19.370  0.00  0.00    +0.000 A 
ATOM      8  C   UNL     1       4.413   3.857  18.659  0.00  0.00    +0.000 A 
ATOM      9  N   UNL     1       3.493   4.705  19.256  0.00  0.00    +0.000 N 
ATOM     10  N   UNL     1       3.257   6.009  18.923  0.00  0.00    +0.000 NA
ENDROOT
BRANCH   8  11
ATOM     11  C   UNL     1       5.286   4.174  17.526  0.00  0.00    +0.000 A 
ATOM     12  C   UNL     1       6.608   4.583  17.738  0.00  0.00    +0.000 A 
ATOM     13  C   UNL     1       7.458   4.809  16.658  0.00  0.00    +0.000 A 
ATOM     14  C   UNL     1       6.960   4.622  15.380  0.00  0.00    +0.000 A 
ATOM     15  N   UNL     1       5.692   4.242  15.124  0.00  0.00    +0.000 NA
ATOM     16  C   UNL     1       4.888   4.031  16.198  0.00  0.00    +0.000 A 
ENDBRANCH   8  11
TORSDOF 1
ENDMDL
