MODEL 1
REMARK VINA RESULT:      -7.7      0.000      0.000
REMARK  Name = 
REMARK  8 active torsions:
REMARK  status: ('A' for Active; 'I' for Inactive)
REMARK    1  A    between atoms: C_1  and  O_2
REMARK    2  A    between atoms: O_2  and  C_3
REMARK    3  A    between atoms: C_3  and  C_5
REMARK    4  A    between atoms: C_7  and  N_8
REMARK    5  A    between atoms: C_15  and  O_16
REMARK    6  A    between atoms: O_16  and  C_17
REMARK    7  A    between atoms: C_17  and  C_18
REMARK    8  A    between atoms: C_18  and  C_19
REMARK                            x       y       z     vdW  Elec       q    Type
REMARK                         _______ _______ _______ _____ _____    ______ ____
ROOT
ATOM      1  C   UNL     1       6.267   5.290  15.816  0.00  0.00    +0.000 A 
ATOM      2  S   UNL     1       4.854   4.386  16.222  0.00  0.00    +0.000 S 
ATOM      3  C   UNL     1       4.477   5.356  17.571  0.00  0.00    +0.000 A 
ATOM      4  C   UNL     1       5.437   6.335  17.723  0.00  0.00    +0.000 A 
ATOM      5  C   UNL     1       6.512   6.257  16.779  0.00  0.00    +0.000 A 
ENDROOT
BRANCH   3   6
ATOM      6  N   UNL     1       3.394   5.164  18.377  0.00  0.00    +0.000 N 
ATOM      7  C   UNL     1       3.498   4.992  19.834  0.00  0.00    +0.000 C 
ATOM      8  C   UNL     1       3.064   3.579  20.243  0.00  0.00    +0.000 C 
ATOM      9  O   UNL     1       1.748   3.272  19.751  0.00  0.00    +0.000 OA
ATOM     10  C   UNL     1       1.728   3.348  18.317  0.00  0.00    +0.000 C 
ATOM     11  C   UNL     1       2.098   4.754  17.815  0.00  0.00    +0.000 C 
ENDBRANCH   3   6
BRANCH   1  12
ATOM     12  C   UNL     1       6.945   4.865  14.600  0.00  0.00    +0.000 C 
ATOM     13  O   UNL     1       7.866   5.460  14.056  0.00  0.00    +0.000 OA
BRANCH  12  15
ATOM     14  C   UNL     1       6.334   3.627  12.704  0.00  0.00    +0.000 C 
ATOM     15  O   UNL     1       6.442   3.687  14.130  0.00  0.00    +0.000 OA
ENDBRANCH  12  15
ENDBRANCH   1  12
BRANCH   5  16
ATOM     16  O   UNL     1       7.642   7.030  16.796  0.00  0.00    +0.000 OA
BRANCH  16  17
ATOM     17  C   UNL     1       7.469   8.266  17.525  0.00  0.00    +0.000 C 
BRANCH  17  18
ATOM     18  C   UNL     1       8.610   8.493  18.520  0.00  0.00    +0.000 C 
BRANCH  18  19
ATOM     19  C   UNL     1       8.901   9.964  18.744  0.00  0.00    +0.000 A 
ATOM     20  C   UNL     1       8.651  10.906  17.731  0.00  0.00    +0.000 A 
ATOM     21  C   UNL     1       8.907  12.265  17.936  0.00  0.00    +0.000 A 
ATOM     22  C   UNL     1       9.421  12.704  19.156  0.00  0.00    +0.000 A 
ATOM     23  C   UNL     1       9.687  11.778  20.164  0.00  0.00    +0.000 A 
ATOM     24  C   UNL     1       9.435  10.418  19.958  0.00  0.00    +0.000 A 
ENDBRANCH  18  19
ENDBRANCH  17  18
ENDBRANCH  16  17
ENDBRANCH   5  16
TORSDOF 7
ENDMDL
MODEL 2
REMARK VINA RESULT:      -7.6      2.774      6.709
REMARK  Name = 
REMARK  8 active torsions:
REMARK  status: ('A' for Active; 'I' for Inactive)
REMARK    1  A    between atoms: C_1  and  O_2
REMARK    2  A    between atoms: O_2  and  C_3
REMARK    3  A    between atoms: C_3  and  C_5
REMARK    4  A    between atoms: C_7  and  N_8
REMARK    5  A    between atoms: C_15  and  O_16
REMARK    6  A    between atoms: O_16  and  C_17
REMARK    7  A    between atoms: C_17  and  C_18
REMARK    8  A    between atoms: C_18  and  C_19
REMARK                            x       y       z     vdW  Elec       q    Type
REMARK                         _______ _______ _______ _____ _____    ______ ____
ROOT
ATOM      1  C   UNL     1       6.143   4.609  17.830  0.00  0.00    +0.000 A 
ATOM      2  S   UNL     1       5.077   5.024  19.122  0.00  0.00    +0.000 S 
ATOM      3  C   UNL     1       3.697   4.400  18.341  0.00  0.00    +0.000 A 
ATOM      4  C   UNL     1       4.047   3.911  17.100  0.00  0.00    +0.000 A 
ATOM      5  C   UNL     1       5.425   4.101  16.758  0.00  0.00    +0.000 A 
ENDROOT
BRANCH   3   6
ATOM      6  N   UNL     1       2.442   4.408  18.874  0.00  0.00    +0.000 N 
ATOM      7  C   UNL     1       2.167   4.773  20.272  0.00  0.00    +0.000 C 
ATOM      8  C   UNL     1       1.638   3.563  21.052  0.00  0.00    +0.000 C 
ATOM      9  O   UNL     1       0.492   2.983  20.405  0.00  0.00    +0.000 OA
ATOM     10  C   UNL     1       0.841   2.544  19.083  0.00  0.00    +0.000 C 
ATOM     11  C   UNL     1       1.333   3.709  18.207  0.00  0.00    +0.000 C 
ENDBRANCH   3   6
BRANCH   1  12
ATOM     12  C   UNL     1       7.550   4.891  18.075  0.00  0.00    +0.000 C 
ATOM     13  O   UNL     1       8.483   4.150  17.791  0.00  0.00    +0.000 OA
BRANCH  12  15
ATOM     14  C   UNL     1       7.751   7.201  17.718  0.00  0.00    +0.000 C 
ATOM     15  O   UNL     1       7.724   6.116  18.652  0.00  0.00    +0.000 OA
ENDBRANCH  12  15
ENDBRANCH   1  12
BRANCH   5  16
ATOM     16  O   UNL     1       5.990   3.819  15.543  0.00  0.00    +0.000 OA
BRANCH  16  17
ATOM     17  C   UNL     1       6.197   4.997  14.731  0.00  0.00    +0.000 C 
BRANCH  17  18
ATOM     18  C   UNL     1       7.025   4.677  13.484  0.00  0.00    +0.000 C 
BRANCH  18  19
ATOM     19  C   UNL     1       6.336   3.686  12.567  0.00  0.00    +0.000 A 
ATOM     20  C   UNL     1       7.060   2.637  11.973  0.00  0.00    +0.000 A 
ATOM     21  C   UNL     1       6.428   1.713  11.136  0.00  0.00    +0.000 A 
ATOM     22  C   UNL     1       5.061   1.824  10.876  0.00  0.00    +0.000 A 
ATOM     23  C   UNL     1       4.335   2.869  11.447  0.00  0.00    +0.000 A 
ATOM     24  C   UNL     1       4.968   3.795  12.281  0.00  0.00    +0.000 A 
ENDBRANCH  18  19
ENDBRANCH  17  18
ENDBRANCH  16  17
ENDBRANCH   5  16
TORSDOF 7
ENDMDL
MODEL 3
REMARK VINA RESULT:      -7.6      2.196      6.763
REMARK  Name = 
REMARK  8 active torsions:
REMARK  status: ('A' for Active; 'I' for Inactive)
REMARK    1  A    between atoms: C_1  and  O_2
REMARK    2  A    between atoms: O_2  and  C_3
REMARK    3  A    between atoms: C_3  and  C_5
REMARK    4  A    between atoms: C_7  and  N_8
REMARK    5  A    between atoms: C_15  and  O_16
REMARK    6  A    between atoms: O_16  and  C_17
REMARK    7  A    between atoms: C_17  and  C_18
REMARK    8  A    between atoms: C_18  and  C_19
REMARK                            x       y       z     vdW  Elec       q    Type
REMARK                         _______ _______ _______ _____ _____    ______ ____
ROOT
ATOM      1  C   UNL     1       6.445   5.327  17.346  0.00  0.00    +0.000 A 
ATOM      2  S   UNL     1       4.975   5.275  18.250  0.00  0.00    +0.000 S 
ATOM      3  C   UNL     1       4.263   4.095  17.247  0.00  0.00    +0.000 A 
ATOM      4  C   UNL     1       5.128   3.771  16.223  0.00  0.00    +0.000 A 
ATOM      5  C   UNL     1       6.344   4.529  16.216  0.00  0.00    +0.000 A 
ENDROOT
BRANCH   3   6
ATOM      6  N   UNL     1       3.017   3.574  17.439  0.00  0.00    +0.000 N 
ATOM      7  C   UNL     1       1.847   4.398  17.777  0.00  0.00    +0.000 C 
ATOM      8  C   UNL     1       1.342   4.068  19.187  0.00  0.00    +0.000 C 
ATOM      9  O   UNL     1       1.079   2.662  19.333  0.00  0.00    +0.000 OA
ATOM     10  C   UNL     1       2.279   1.908  19.100  0.00  0.00    +0.000 C 
ATOM     11  C   UNL     1       2.829   2.136  17.681  0.00  0.00    +0.000 C 
ENDBRANCH   3   6
BRANCH   1  12
ATOM     12  C   UNL     1       7.476   6.196  17.894  0.00  0.00    +0.000 C 
ATOM     13  O   UNL     1       8.019   6.055  18.982  0.00  0.00    +0.000 OA
BRANCH  12  15
ATOM     14  C   UNL     1       7.874   8.494  17.640  0.00  0.00    +0.000 C 
ATOM     15  O   UNL     1       7.797   7.201  17.028  0.00  0.00    +0.000 OA
ENDBRANCH  12  15
ENDBRANCH   1  12
BRANCH   5  16
ATOM     16  O   UNL     1       7.303   4.486  15.241  0.00  0.00    +0.000 OA
BRANCH  16  17
ATOM     17  C   UNL     1       7.008   5.352  14.122  0.00  0.00    +0.000 C 
BRANCH  17  18
ATOM     18  C   UNL     1       7.672   4.851  12.837  0.00  0.00    +0.000 C 
BRANCH  18  19
ATOM     19  C   UNL     1       6.931   3.683  12.217  0.00  0.00    +0.000 A 
ATOM     20  C   UNL     1       5.526   3.635  12.236  0.00  0.00    +0.000 A 
ATOM     21  C   UNL     1       4.837   2.566  11.655  0.00  0.00    +0.000 A 
ATOM     22  C   UNL     1       5.541   1.524  11.050  0.00  0.00    +0.000 A 
ATOM     23  C   UNL     1       6.935   1.553  11.038  0.00  0.00    +0.000 A 
ATOM     24  C   UNL     1       7.625   2.620  11.621  0.00  0.00    +0.000 A 
ENDBRANCH  18  19
ENDBRANCH  17  18
ENDBRANCH  16  17
ENDBRANCH   5  16
TORSDOF 7
ENDMDL
MODEL 4
REMARK VINA RESULT:      -7.5      0.901      1.079
REMARK  Name = 
REMARK  8 active torsions:
REMARK  status: ('A' for Active; 'I' for Inactive)
REMARK    1  A    between atoms: C_1  and  O_2
REMARK    2  A    between atoms: O_2  and  C_3
REMARK    3  A    between atoms: C_3  and  C_5
REMARK    4  A    between atoms: C_7  and  N_8
REMARK    5  A    between atoms: C_15  and  O_16
REMARK    6  A    between atoms: O_16  and  C_17
REMARK    7  A    between atoms: C_17  and  C_18
REMARK    8  A    between atoms: C_18  and  C_19
REMARK                            x       y       z     vdW  Elec       q    Type
REMARK                         _______ _______ _______ _____ _____    ______ ____
ROOT
ATOM      1  C   UNL     1       6.500   5.222  15.961  0.00  0.00    +0.000 A 
ATOM      2  S   UNL     1       5.391   4.053  16.580  0.00  0.00    +0.000 S 
ATOM      3  C   UNL     1       5.261   4.809  18.102  0.00  0.00    +0.000 A 
ATOM      4  C   UNL     1       6.077   5.920  18.141  0.00  0.00    +0.000 A 
ATOM      5  C   UNL     1       6.857   6.120  16.956  0.00  0.00    +0.000 A 
ENDROOT
BRANCH   3   6
ATOM      6  N   UNL     1       4.474   4.357  19.120  0.00  0.00    +0.000 N 
ATOM      7  C   UNL     1       4.309   2.930  19.434  0.00  0.00    +0.000 C 
ATOM      8  C   UNL     1       2.866   2.481  19.170  0.00  0.00    +0.000 C 
ATOM      9  O   UNL     1       1.924   3.306  19.877  0.00  0.00    +0.000 OA
ATOM     10  C   UNL     1       2.051   4.674  19.455  0.00  0.00    +0.000 C 
ATOM     11  C   UNL     1       3.459   5.227  19.734  0.00  0.00    +0.000 C 
ENDBRANCH   3   6
BRANCH   1  12
ATOM     12  C   UNL     1       6.876   5.039  14.568  0.00  0.00    +0.000 C 
ATOM     13  O   UNL     1       7.872   5.510  14.033  0.00  0.00    +0.000 OA
BRANCH  12  15
ATOM     14  C   UNL     1       6.514   3.635  12.723  0.00  0.00    +0.000 C 
ATOM     15  O   UNL     1       5.985   4.244  13.906  0.00  0.00    +0.000 OA
ENDBRANCH  12  15
ENDBRANCH   1  12
BRANCH   5  16
ATOM     16  O   UNL     1       7.829   7.070  16.794  0.00  0.00    +0.000 OA
BRANCH  16  17
ATOM     17  C   UNL     1       7.501   8.325  17.432  0.00  0.00    +0.000 C 
BRANCH  17  18
ATOM     18  C   UNL     1       8.563   8.724  18.460  0.00  0.00    +0.000 C 
BRANCH  18  19
ATOM     19  C   UNL     1       8.938  10.190  18.369  0.00  0.00    +0.000 A 
ATOM     20  C   UNL     1       8.118  11.097  17.674  0.00  0.00    +0.000 A 
ATOM     21  C   UNL     1       8.452  12.452  17.596  0.00  0.00    +0.000 A 
ATOM     22  C   UNL     1       9.615  12.923  18.208  0.00  0.00    +0.000 A 
ATOM     23  C   UNL     1      10.444  12.031  18.887  0.00  0.00    +0.000 A 
ATOM     24  C   UNL     1      10.112  10.675  18.962  0.00  0.00    +0.000 A 
ENDBRANCH  18  19
ENDBRANCH  17  18
ENDBRANCH  16  17
ENDBRANCH   5  16
TORSDOF 7
ENDMDL
MODEL 5
REMARK VINA RESULT:      -7.4      1.395      1.719
REMARK  Name = 
REMARK  8 active torsions:
REMARK  status: ('A' for Active; 'I' for Inactive)
REMARK    1  A    between atoms: C_1  and  O_2
REMARK    2  A    between atoms: O_2  and  C_3
REMARK    3  A    between atoms: C_3  and  C_5
REMARK    4  A    between atoms: C_7  and  N_8
REMARK    5  A    between atoms: C_15  and  O_16
REMARK    6  A    between atoms: O_16  and  C_17
REMARK    7  A    between atoms: C_17  and  C_18
REMARK    8  A    between atoms: C_18  and  C_19
REMARK                            x       y       z     vdW  Elec       q    Type
REMARK                         _______ _______ _______ _____ _____    ______ ____
ROOT
ATOM      1  C   UNL     1       5.575   5.566  17.016  0.00  0.00    +0.000 A 
ATOM      2  S   UNL     1       4.052   4.863  17.423  0.00  0.00    +0.000 S 
ATOM      3  C   UNL     1       4.447   4.675  19.071  0.00  0.00    +0.000 A 
ATOM      4  C   UNL     1       5.735   5.117  19.294  0.00  0.00    +0.000 A 
ATOM      5  C   UNL     1       6.423   5.548  18.113  0.00  0.00    +0.000 A 
ENDROOT
BRANCH   3   6
ATOM      6  N   UNL     1       3.607   4.149  20.007  0.00  0.00    +0.000 N 
ATOM      7  C   UNL     1       3.444   2.703  20.218  0.00  0.00    +0.000 C 
ATOM      8  C   UNL     1       2.027   2.257  19.838  0.00  0.00    +0.000 C 
ATOM      9  O   UNL     1       1.032   3.024  20.538  0.00  0.00    +0.000 OA
ATOM     10  C   UNL     1       1.164   4.418  20.213  0.00  0.00    +0.000 C 
ATOM     11  C   UNL     1       2.544   4.967  20.612  0.00  0.00    +0.000 C 
ENDBRANCH   3   6
BRANCH   1  12
ATOM     12  C   UNL     1       5.704   6.001  15.633  0.00  0.00    +0.000 C 
ATOM     13  O   UNL     1       5.021   6.862  15.093  0.00  0.00    +0.000 OA
BRANCH  12  15
ATOM     14  C   UNL     1       6.272   4.234  14.198  0.00  0.00    +0.000 C 
ATOM     15  O   UNL     1       6.713   5.343  14.991  0.00  0.00    +0.000 OA
ENDBRANCH  12  15
ENDBRANCH   1  12
BRANCH   5  16
ATOM     16  O   UNL     1       7.741   5.911  18.049  0.00  0.00    +0.000 OA
BRANCH  16  17
ATOM     17  C   UNL     1       8.002   7.197  18.656  0.00  0.00    +0.000 C 
BRANCH  17  18
ATOM     18  C   UNL     1       7.954   8.323  17.620  0.00  0.00    +0.000 C 
BRANCH  18  19
ATOM     19  C   UNL     1       8.483   9.636  18.165  0.00  0.00    +0.000 A 
ATOM     20  C   UNL     1       8.234  10.843  17.490  0.00  0.00    +0.000 A 
ATOM     21  C   UNL     1       8.709  12.058  17.993  0.00  0.00    +0.000 A 
ATOM     22  C   UNL     1       9.446  12.085  19.179  0.00  0.00    +0.000 A 
ATOM     23  C   UNL     1       9.712  10.892  19.850  0.00  0.00    +0.000 A 
ATOM     24  C   UNL     1       9.240   9.677  19.345  0.00  0.00    +0.000 A 
ENDBRANCH  18  19
ENDBRANCH  17  18
ENDBRANCH  16  17
ENDBRANCH   5  16
TORSDOF 7
ENDMDL
MODEL 6
REMARK VINA RESULT:      -7.4      0.785      1.529
REMARK  Name = 
REMARK  8 active torsions:
REMARK  status: ('A' for Active; 'I' for Inactive)
REMARK    1  A    between atoms: C_1  and  O_2
REMARK    2  A    between atoms: O_2  and  C_3
REMARK    3  A    between atoms: C_3  and  C_5
REMARK    4  A    between atoms: C_7  and  N_8
REMARK    5  A    between atoms: C_15  and  O_16
REMARK    6  A    between atoms: O_16  and  C_17
REMARK    7  A    between atoms: C_17  and  C_18
REMARK    8  A    between atoms: C_18  and  C_19
REMARK                            x       y       z     vdW  Elec       q    Type
REMARK                         _______ _______ _______ _____ _____    ______ ____
ROOT
ATOM      1  C   UNL     1       6.519   5.131  15.873  0.00  0.00    +0.000 A 
ATOM      2  S   UNL     1       5.296   4.041  16.415  0.00  0.00    +0.000 S 
ATOM      3  C   UNL     1       5.046   4.867  17.885  0.00  0.00    +0.000 A 
ATOM      4  C   UNL     1       5.909   5.941  17.968  0.00  0.00    +0.000 A 
ATOM      5  C   UNL     1       6.816   6.054  16.865  0.00  0.00    +0.000 A 
ENDROOT
BRANCH   3   6
ATOM      6  N   UNL     1       4.137   4.496  18.831  0.00  0.00    +0.000 N 
ATOM      7  C   UNL     1       3.270   3.316  18.690  0.00  0.00    +0.000 C 
ATOM      8  C   UNL     1       1.799   3.737  18.574  0.00  0.00    +0.000 C 
ATOM      9  O   UNL     1       1.406   4.575  19.674  0.00  0.00    +0.000 OA
ATOM     10  C   UNL     1       2.210   5.764  19.702  0.00  0.00    +0.000 C 
ATOM     11  C   UNL     1       3.704   5.438  19.874  0.00  0.00    +0.000 C 
ENDBRANCH   3   6
BRANCH   1  12
ATOM     12  C   UNL     1       7.028   4.872  14.534  0.00  0.00    +0.000 C 
ATOM     13  O   UNL     1       7.831   5.573  13.932  0.00  0.00    +0.000 OA
BRANCH  12  15
ATOM     14  C   UNL     1       6.417   3.714  12.588  0.00  0.00    +0.000 C 
ATOM     15  O   UNL     1       6.514   3.718  14.016  0.00  0.00    +0.000 OA
ENDBRANCH  12  15
ENDBRANCH   1  12
BRANCH   5  16
ATOM     16  O   UNL     1       7.844   6.952  16.770  0.00  0.00    +0.000 OA
BRANCH  16  17
ATOM     17  C   UNL     1       7.918   7.847  17.903  0.00  0.00    +0.000 C 
BRANCH  17  18
ATOM     18  C   UNL     1       7.728   9.305  17.477  0.00  0.00    +0.000 C 
BRANCH  18  19
ATOM     19  C   UNL     1       8.601  10.259  18.268  0.00  0.00    +0.000 A 
ATOM     20  C   UNL     1       9.185   9.856  19.482  0.00  0.00    +0.000 A 
ATOM     21  C   UNL     1      10.001  10.727  20.210  0.00  0.00    +0.000 A 
ATOM     22  C   UNL     1      10.243  12.018  19.738  0.00  0.00    +0.000 A 
ATOM     23  C   UNL     1       9.657  12.435  18.544  0.00  0.00    +0.000 A 
ATOM     24  C   UNL     1       8.839  11.565  17.817  0.00  0.00    +0.000 A 
ENDBRANCH  18  19
ENDBRANCH  17  18
ENDBRANCH  16  17
ENDBRANCH   5  16
TORSDOF 7
ENDMDL
MODEL 7
REMARK VINA RESULT:      -7.4      3.108      5.530
REMARK  Name = 
REMARK  8 active torsions:
REMARK  status: ('A' for Active; 'I' for Inactive)
REMARK    1  A    between atoms: C_1  and  O_2
REMARK    2  A    between atoms: O_2  and  C_3
REMARK    3  A    between atoms: C_3  and  C_5
REMARK    4  A    between atoms: C_7  and  N_8
REMARK    5  A    between atoms: C_15  and  O_16
REMARK    6  A    between atoms: O_16  and  C_17
REMARK    7  A    between atoms: C_17  and  C_18
REMARK    8  A    between atoms: C_18  and  C_19
REMARK                            x       y       z     vdW  Elec       q    Type
REMARK                         _______ _______ _______ _____ _____    ______ ____
ROOT
ATOM      1  C   UNL     1       5.543   5.765  17.649  0.00  0.00    +0.000 A 
ATOM      2  S   UNL     1       5.546   4.181  18.335  0.00  0.00    +0.000 S 
ATOM      3  C   UNL     1       3.877   4.200  18.682  0.00  0.00    +0.000 A 
ATOM      4  C   UNL     1       3.338   5.412  18.305  0.00  0.00    +0.000 A 
ATOM      5  C   UNL     1       4.293   6.349  17.793  0.00  0.00    +0.000 A 
ENDROOT
BRANCH   3   6
ATOM      6  N   UNL     1       3.201   3.167  19.261  0.00  0.00    +0.000 N 
ATOM      7  C   UNL     1       1.908   2.675  18.761  0.00  0.00    +0.000 C 
ATOM      8  C   UNL     1       0.797   2.939  19.785  0.00  0.00    +0.000 C 
ATOM      9  O   UNL     1       1.128   2.390  21.071  0.00  0.00    +0.000 OA
ATOM     10  C   UNL     1       2.341   2.983  21.564  0.00  0.00    +0.000 C 
ATOM     11  C   UNL     1       3.528   2.718  20.623  0.00  0.00    +0.000 C 
ENDBRANCH   3   6
BRANCH   1  12
ATOM     12  C   UNL     1       6.816   6.201  17.097  0.00  0.00    +0.000 C 
ATOM     13  O   UNL     1       7.192   6.016  15.946  0.00  0.00    +0.000 OA
BRANCH  12  15
ATOM     14  C   UNL     1       7.815   8.244  17.675  0.00  0.00    +0.000 C 
ATOM     15  O   UNL     1       7.559   6.878  18.020  0.00  0.00    +0.000 OA
ENDBRANCH  12  15
ENDBRANCH   1  12
BRANCH   5  16
ATOM     16  O   UNL     1       4.033   7.653  17.471  0.00  0.00    +0.000 OA
BRANCH  16  17
ATOM     17  C   UNL     1       2.621   7.934  17.351  0.00  0.00    +0.000 C 
BRANCH  17  18
ATOM     18  C   UNL     1       2.267   9.294  17.958  0.00  0.00    +0.000 C 
BRANCH  18  19
ATOM     19  C   UNL     1       1.431   9.168  19.217  0.00  0.00    +0.000 A 
ATOM     20  C   UNL     1       0.364  10.051  19.458  0.00  0.00    +0.000 A 
ATOM     21  C   UNL     1      -0.418   9.933  20.611  0.00  0.00    +0.000 A 
ATOM     22  C   UNL     1      -0.143   8.933  21.544  0.00  0.00    +0.000 A 
ATOM     23  C   UNL     1       0.922   8.060  21.324  0.00  0.00    +0.000 A 
ATOM     24  C   UNL     1       1.706   8.180  20.173  0.00  0.00    +0.000 A 
ENDBRANCH  18  19
ENDBRANCH  17  18
ENDBRANCH  16  17
ENDBRANCH   5  16
TORSDOF 7
ENDMDL
MODEL 8
REMARK VINA RESULT:      -7.4      3.732      7.059
REMARK  Name = 
REMARK  8 active torsions:
REMARK  status: ('A' for Active; 'I' for Inactive)
REMARK    1  A    between atoms: C_1  and  O_2
REMARK    2  A    between atoms: O_2  and  C_3
REMARK    3  A    between atoms: C_3  and  C_5
REMARK    4  A    between atoms: C_7  and  N_8
REMARK    5  A    between atoms: C_15  and  O_16
REMARK    6  A    between atoms: O_16  and  C_17
REMARK    7  A    between atoms: C_17  and  C_18
REMARK    8  A    between atoms: C_18  and  C_19
REMARK                            x       y       z     vdW  Elec       q    Type
REMARK                         _______ _______ _______ _____ _____    ______ ____
ROOT
ATOM      1  C   UNL     1       3.010   3.799  20.163  0.00  0.00    +0.000 A 
ATOM      2  S   UNL     1       4.427   3.153  19.418  0.00  0.00    +0.000 S 
ATOM      3  C   UNL     1       5.027   4.681  18.962  0.00  0.00    +0.000 A 
ATOM      4  C   UNL     1       4.140   5.664  19.349  0.00  0.00    +0.000 A 
ATOM      5  C   UNL     1       2.942   5.169  19.959  0.00  0.00    +0.000 A 
ENDROOT
BRANCH   3   6
ATOM      6  N   UNL     1       6.203   4.879  18.301  0.00  0.00    +0.000 N 
ATOM      7  C   UNL     1       7.177   5.911  18.687  0.00  0.00    +0.000 C 
ATOM      8  C   UNL     1       7.293   6.981  17.594  0.00  0.00    +0.000 C 
ATOM      9  O   UNL     1       7.598   6.394  16.317  0.00  0.00    +0.000 OA
ATOM     10  C   UNL     1       6.562   5.476  15.935  0.00  0.00    +0.000 C 
ATOM     11  C   UNL     1       6.412   4.331  16.952  0.00  0.00    +0.000 C 
ENDBRANCH   3   6
BRANCH   1  12
ATOM     12  C   UNL     1       2.153   2.820  20.814  0.00  0.00    +0.000 C 
ATOM     13  O   UNL     1       1.878   2.799  22.007  0.00  0.00    +0.000 OA
BRANCH  12  15
ATOM     14  C   UNL     1       0.766   2.476  18.954  0.00  0.00    +0.000 C 
ATOM     15  O   UNL     1       1.658   1.913  19.923  0.00  0.00    +0.000 OA
ENDBRANCH  12  15
ENDBRANCH   1  12
BRANCH   5  16
ATOM     16  O   UNL     1       1.859   5.927  20.314  0.00  0.00    +0.000 OA
BRANCH  16  17
ATOM     17  C   UNL     1       2.073   7.343  20.118  0.00  0.00    +0.000 C 
BRANCH  17  18
ATOM     18  C   UNL     1       1.345   8.171  21.180  0.00  0.00    +0.000 C 
BRANCH  18  19
ATOM     19  C   UNL     1       0.731   9.435  20.610  0.00  0.00    +0.000 A 
ATOM     20  C   UNL     1       0.737   9.672  19.225  0.00  0.00    +0.000 A 
ATOM     21  C   UNL     1       0.162  10.830  18.692  0.00  0.00    +0.000 A 
ATOM     22  C   UNL     1      -0.425  11.772  19.538  0.00  0.00    +0.000 A 
ATOM     23  C   UNL     1      -0.425  11.556  20.915  0.00  0.00    +0.000 A 
ATOM     24  C   UNL     1       0.153  10.399  21.448  0.00  0.00    +0.000 A 
ENDBRANCH  18  19
ENDBRANCH  17  18
ENDBRANCH  16  17
ENDBRANCH   5  16
TORSDOF 7
ENDMDL
MODEL 9
REMARK VINA RESULT:      -7.4      0.551      1.327
REMARK  Name = 
REMARK  8 active torsions:
REMARK  status: ('A' for Active; 'I' for Inactive)
REMARK    1  A    between atoms: C_1  and  O_2
REMARK    2  A    between atoms: O_2  and  C_3
REMARK    3  A    between atoms: C_3  and  C_5
REMARK    4  A    between atoms: C_7  and  N_8
REMARK    5  A    between atoms: C_15  and  O_16
REMARK    6  A    between atoms: O_16  and  C_17
REMARK    7  A    between atoms: C_17  and  C_18
REMARK    8  A    between atoms: C_18  and  C_19
REMARK                            x       y       z     vdW  Elec       q    Type
REMARK                         _______ _______ _______ _____ _____    ______ ____
ROOT
ATOM      1  C   UNL     1       6.212   5.140  15.792  0.00  0.00    +0.000 A 
ATOM      2  S   UNL     1       4.812   4.238  16.244  0.00  0.00    +0.000 S 
ATOM      3  C   UNL     1       4.509   5.180  17.632  0.00  0.00    +0.000 A 
ATOM      4  C   UNL     1       5.483   6.148  17.759  0.00  0.00    +0.000 A 
ATOM      5  C   UNL     1       6.512   6.083  16.764  0.00  0.00    +0.000 A 
ENDROOT
BRANCH   3   6
ATOM      6  N   UNL     1       3.463   4.979  18.485  0.00  0.00    +0.000 N 
ATOM      7  C   UNL     1       3.623   4.406  19.829  0.00  0.00    +0.000 C 
ATOM      8  C   UNL     1       2.936   3.038  19.919  0.00  0.00    +0.000 C 
ATOM      9  O   UNL     1       1.556   3.118  19.522  0.00  0.00    +0.000 OA
ATOM     10  C   UNL     1       1.459   3.578  18.165  0.00  0.00    +0.000 C 
ATOM     11  C   UNL     1       2.077   4.976  17.992  0.00  0.00    +0.000 C 
ENDBRANCH   3   6
BRANCH   1  12
ATOM     12  C   UNL     1       6.826   4.738  14.536  0.00  0.00    +0.000 C 
ATOM     13  O   UNL     1       6.468   3.797  13.839  0.00  0.00    +0.000 OA
BRANCH  12  15
ATOM     14  C   UNL     1       8.202   5.524  12.806  0.00  0.00    +0.000 C 
ATOM     15  O   UNL     1       7.862   5.559  14.197  0.00  0.00    +0.000 OA
ENDBRANCH  12  15
ENDBRANCH   1  12
BRANCH   5  16
ATOM     16  O   UNL     1       7.648   6.846  16.744  0.00  0.00    +0.000 OA
BRANCH  16  17
ATOM     17  C   UNL     1       7.464   8.146  17.348  0.00  0.00    +0.000 C 
BRANCH  17  18
ATOM     18  C   UNL     1       8.470   8.385  18.477  0.00  0.00    +0.000 C 
BRANCH  18  19
ATOM     19  C   UNL     1       8.834   9.848  18.632  0.00  0.00    +0.000 A 
ATOM     20  C   UNL     1       9.567  10.289  19.748  0.00  0.00    +0.000 A 
ATOM     21  C   UNL     1       9.915  11.636  19.891  0.00  0.00    +0.000 A 
ATOM     22  C   UNL     1       9.532  12.565  18.922  0.00  0.00    +0.000 A 
ATOM     23  C   UNL     1       8.792  12.142  17.818  0.00  0.00    +0.000 A 
ATOM     24  C   UNL     1       8.441  10.796  17.677  0.00  0.00    +0.000 A 
ENDBRANCH  18  19
ENDBRANCH  17  18
ENDBRANCH  16  17
ENDBRANCH   5  16
TORSDOF 7
ENDMDL
