MODEL 1
REMARK VINA RESULT:      -8.3      0.000      0.000
REMARK  Name = 
REMARK  5 active torsions:
REMARK  status: ('A' for Active; 'I' for Inactive)
REMARK    1  A    between atoms: C_2  and  O_3
REMARK    2  A    between atoms: C_2  and  C_4
REMARK    3  A    between atoms: C_8  and  O_9
REMARK    4  A    between atoms: O_9  and  C_10
REMARK    5  A    between atoms: C_18  and  C_19
REMARK                            x       y       z     vdW  Elec       q    Type
REMARK                         _______ _______ _______ _____ _____    ______ ____
ROOT
ATOM      1  C   UNL     1       6.499   4.951  15.466  0.00  0.00    +0.000 C 
ATOM      2  C   UNL     1       5.314   4.395  15.654  0.00  0.00    +0.000 C 
ATOM      3  C   UNL     1       4.920   4.244  17.015  0.00  0.00    +0.000 A 
ATOM      4  C   UNL     1       3.576   4.150  17.247  0.00  0.00    +0.000 A 
ATOM      5  C   UNL     1       3.084   3.967  18.507  0.00  0.00    +0.000 A 
ATOM      6  C   UNL     1       3.984   3.911  19.562  0.00  0.00    +0.000 A 
ATOM      7  C   UNL     1       5.384   4.015  19.349  0.00  0.00    +0.000 A 
ATOM      8  C   UNL     1       5.837   4.173  18.051  0.00  0.00    +0.000 A 
ATOM      9  O   UNL     1       7.174   4.328  17.775  0.00  0.00    +0.000 OA
ATOM     10  C   UNL     1       7.305   5.392  16.761  0.00  0.00    +0.000 C 
ENDROOT
BRANCH  10  11
ATOM     11  C   UNL     1       7.069   6.768  17.579  0.00  0.00    +0.000 C 
ATOM     12  F   UNL     1       5.822   7.269  17.512  0.00  0.00    +0.000 F 
ATOM     13  F   UNL     1       7.344   6.657  18.905  0.00  0.00    +0.000 F 
ATOM     14  F   UNL     1       7.928   7.723  17.142  0.00  0.00    +0.000 F 
ENDBRANCH  10  11
BRANCH   1  16
ATOM     15  O   UNL     1       7.541   5.234  13.311  0.00  0.00    +0.000 OA
ATOM     16  C   UNL     1       6.811   4.596  14.064  0.00  0.00    +0.000 C 
BRANCH  16  17
ATOM     17  O   UNL     1       6.358   3.430  13.626  0.00  0.00    +0.000 OA
ATOM     18  H   UNL     1       5.622   3.199  14.242  0.00  0.00    +0.000 HD
ENDBRANCH  16  17
ENDBRANCH   1  16
BRANCH   5  19
ATOM     19  O   UNL     1       1.753   3.840  18.520  0.00  0.00    +0.000 OA
BRANCH  19  20
ATOM     20  C   UNL     1       1.146   2.775  19.189  0.00  0.00    +0.000 C 
ATOM     21  F   UNL     1       1.940   1.702  19.354  0.00  0.00    +0.000 F 
ATOM     22  F   UNL     1       0.753   3.204  20.410  0.00  0.00    +0.000 F 
ATOM     23  F   UNL     1       0.050   2.416  18.491  0.00  0.00    +0.000 F 
ENDBRANCH  19  20
ENDBRANCH   5  19
TORSDOF 5
ENDMDL
MODEL 2
REMARK VINA RESULT:      -8.3      2.535      3.538
REMARK  Name = 
REMARK  5 active torsions:
REMARK  status: ('A' for Active; 'I' for Inactive)
REMARK    1  A    between atoms: C_2  and  O_3
REMARK    2  A    between atoms: C_2  and  C_4
REMARK    3  A    between atoms: C_8  and  O_9
REMARK    4  A    between atoms: O_9  and  C_10
REMARK    5  A    between atoms: C_18  and  C_19
REMARK                            x       y       z     vdW  Elec       q    Type
REMARK                         _______ _______ _______ _____ _____    ______ ____
ROOT
ATOM      1  C   UNL     1       6.801   5.559  18.154  0.00  0.00    +0.000 C 
ATOM      2  C   UNL     1       6.072   5.052  19.134  0.00  0.00    +0.000 C 
ATOM      3  C   UNL     1       4.740   4.690  18.779  0.00  0.00    +0.000 A 
ATOM      4  C   UNL     1       4.139   3.749  19.568  0.00  0.00    +0.000 A 
ATOM      5  C   UNL     1       2.853   3.351  19.344  0.00  0.00    +0.000 A 
ATOM      6  C   UNL     1       2.172   3.903  18.269  0.00  0.00    +0.000 A 
ATOM      7  C   UNL     1       2.775   4.875  17.429  0.00  0.00    +0.000 A 
ATOM      8  C   UNL     1       4.073   5.267  17.710  0.00  0.00    +0.000 A 
ATOM      9  O   UNL     1       4.736   6.167  16.911  0.00  0.00    +0.000 OA
ATOM     10  C   UNL     1       6.116   5.675  16.727  0.00  0.00    +0.000 C 
ENDROOT
BRANCH  10  11
ATOM     11  C   UNL     1       5.978   4.467  15.660  0.00  0.00    +0.000 C 
ATOM     12  F   UNL     1       5.639   3.274  16.185  0.00  0.00    +0.000 F 
ATOM     13  F   UNL     1       5.060   4.710  14.689  0.00  0.00    +0.000 F 
ATOM     14  F   UNL     1       7.144   4.310  14.983  0.00  0.00    +0.000 F 
ENDBRANCH  10  11
BRANCH   1  16
ATOM     15  O   UNL     1       8.356   7.332  18.651  0.00  0.00    +0.000 OA
ATOM     16  C   UNL     1       7.916   6.209  18.877  0.00  0.00    +0.000 C 
BRANCH  16  17
ATOM     17  O   UNL     1       8.400   5.571  19.933  0.00  0.00    +0.000 OA
ATOM     18  H   UNL     1       9.184   6.103  20.210  0.00  0.00    +0.000 HD
ENDBRANCH  16  17
ENDBRANCH   1  16
BRANCH   5  19
ATOM     19  O   UNL     1       2.427   2.470  20.256  0.00  0.00    +0.000 OA
BRANCH  19  20
ATOM     20  C   UNL     1       1.665   2.890  21.350  0.00  0.00    +0.000 C 
ATOM     21  F   UNL     1       1.401   1.919  22.243  0.00  0.00    +0.000 F 
ATOM     22  F   UNL     1       2.335   3.879  21.983  0.00  0.00    +0.000 F 
ATOM     23  F   UNL     1       0.506   3.393  20.880  0.00  0.00    +0.000 F 
ENDBRANCH  19  20
ENDBRANCH   5  19
TORSDOF 5
ENDMDL
MODEL 3
REMARK VINA RESULT:      -8.2      0.156      1.055
REMARK  Name = 
REMARK  5 active torsions:
REMARK  status: ('A' for Active; 'I' for Inactive)
REMARK    1  A    between atoms: C_2  and  O_3
REMARK    2  A    between atoms: C_2  and  C_4
REMARK    3  A    between atoms: C_8  and  O_9
REMARK    4  A    between atoms: O_9  and  C_10
REMARK    5  A    between atoms: C_18  and  C_19
REMARK                            x       y       z     vdW  Elec       q    Type
REMARK                         _______ _______ _______ _____ _____    ______ ____
ROOT
ATOM      1  C   UNL     1       6.506   4.998  15.375  0.00  0.00    +0.000 C 
ATOM      2  C   UNL     1       5.325   4.434  15.571  0.00  0.00    +0.000 C 
ATOM      3  C   UNL     1       4.936   4.292  16.934  0.00  0.00    +0.000 A 
ATOM      4  C   UNL     1       3.593   4.189  17.171  0.00  0.00    +0.000 A 
ATOM      5  C   UNL     1       3.107   4.014  18.434  0.00  0.00    +0.000 A 
ATOM      6  C   UNL     1       4.010   3.974  19.486  0.00  0.00    +0.000 A 
ATOM      7  C   UNL     1       5.408   4.086  19.269  0.00  0.00    +0.000 A 
ATOM      8  C   UNL     1       5.857   4.237  17.968  0.00  0.00    +0.000 A 
ATOM      9  O   UNL     1       7.192   4.400  17.688  0.00  0.00    +0.000 OA
ATOM     10  C   UNL     1       7.312   5.456  16.663  0.00  0.00    +0.000 C 
ENDROOT
BRANCH  10  11
ATOM     11  C   UNL     1       7.068   6.837  17.471  0.00  0.00    +0.000 C 
ATOM     12  F   UNL     1       5.820   7.336  17.389  0.00  0.00    +0.000 F 
ATOM     13  F   UNL     1       7.331   6.735  18.800  0.00  0.00    +0.000 F 
ATOM     14  F   UNL     1       7.929   7.790  17.034  0.00  0.00    +0.000 F 
ENDBRANCH  10  11
BRANCH   1  16
ATOM     15  O   UNL     1       6.274   3.738  13.333  0.00  0.00    +0.000 OA
ATOM     16  C   UNL     1       6.816   4.633  13.975  0.00  0.00    +0.000 C 
BRANCH  16  17
ATOM     17  O   UNL     1       7.667   5.415  13.326  0.00  0.00    +0.000 OA
ATOM     18  H   UNL     1       8.530   4.937  13.369  0.00  0.00    +0.000 HD
ENDBRANCH  16  17
ENDBRANCH   1  16
BRANCH   5  19
ATOM     19  O   UNL     1       1.776   3.876  18.452  0.00  0.00    +0.000 OA
BRANCH  19  20
ATOM     20  C   UNL     1       1.182   2.784  19.088  0.00  0.00    +0.000 C 
ATOM     21  F   UNL     1       0.076   2.323  18.476  0.00  0.00    +0.000 F 
ATOM     22  F   UNL     1       2.085   1.780  19.147  0.00  0.00    +0.000 F 
ATOM     23  F   UNL     1       0.874   3.154  20.348  0.00  0.00    +0.000 F 
ENDBRANCH  19  20
ENDBRANCH   5  19
TORSDOF 5
ENDMDL
MODEL 4
REMARK VINA RESULT:      -8.1      2.546      3.583
REMARK  Name = 
REMARK  5 active torsions:
REMARK  status: ('A' for Active; 'I' for Inactive)
REMARK    1  A    between atoms: C_2  and  O_3
REMARK    2  A    between atoms: C_2  and  C_4
REMARK    3  A    between atoms: C_8  and  O_9
REMARK    4  A    between atoms: O_9  and  C_10
REMARK    5  A    between atoms: C_18  and  C_19
REMARK                            x       y       z     vdW  Elec       q    Type
REMARK                         _______ _______ _______ _____ _____    ______ ____
ROOT
ATOM      1  C   UNL     1       6.811   5.562  18.138  0.00  0.00    +0.000 C 
ATOM      2  C   UNL     1       6.077   5.068  19.121  0.00  0.00    +0.000 C 
ATOM      3  C   UNL     1       4.744   4.708  18.765  0.00  0.00    +0.000 A 
ATOM      4  C   UNL     1       4.137   3.779  19.563  0.00  0.00    +0.000 A 
ATOM      5  C   UNL     1       2.850   3.384  19.339  0.00  0.00    +0.000 A 
ATOM      6  C   UNL     1       2.175   3.926  18.255  0.00  0.00    +0.000 A 
ATOM      7  C   UNL     1       2.785   4.886  17.406  0.00  0.00    +0.000 A 
ATOM      8  C   UNL     1       4.084   5.276  17.688  0.00  0.00    +0.000 A 
ATOM      9  O   UNL     1       4.754   6.163  16.881  0.00  0.00    +0.000 OA
ATOM     10  C   UNL     1       6.132   5.664  16.707  0.00  0.00    +0.000 C 
ENDROOT
BRANCH  10  11
ATOM     11  C   UNL     1       5.993   4.444  15.654  0.00  0.00    +0.000 C 
ATOM     12  F   UNL     1       4.953   4.535  14.804  0.00  0.00    +0.000 F 
ATOM     13  F   UNL     1       7.090   4.286  14.868  0.00  0.00    +0.000 F 
ATOM     14  F   UNL     1       5.889   3.265  16.318  0.00  0.00    +0.000 F 
ENDBRANCH  10  11
BRANCH   1  16
ATOM     15  O   UNL     1       8.364   7.338  18.627  0.00  0.00    +0.000 OA
ATOM     16  C   UNL     1       7.927   6.215  18.858  0.00  0.00    +0.000 C 
BRANCH  16  17
ATOM     17  O   UNL     1       8.413   5.580  19.914  0.00  0.00    +0.000 OA
ATOM     18  H   UNL     1       9.390   5.561  19.768  0.00  0.00    +0.000 HD
ENDBRANCH  16  17
ENDBRANCH   1  16
BRANCH   5  19
ATOM     19  O   UNL     1       2.417   2.515  20.260  0.00  0.00    +0.000 OA
BRANCH  19  20
ATOM     20  C   UNL     1       1.693   2.956  21.370  0.00  0.00    +0.000 C 
ATOM     21  F   UNL     1       2.356   3.830  22.149  0.00  0.00    +0.000 F 
ATOM     22  F   UNL     1       0.560   3.550  20.934  0.00  0.00    +0.000 F 
ATOM     23  F   UNL     1       1.354   1.875  22.101  0.00  0.00    +0.000 F 
ENDBRANCH  19  20
ENDBRANCH   5  19
TORSDOF 5
ENDMDL
MODEL 5
REMARK VINA RESULT:      -8.0      2.622      3.661
REMARK  Name = 
REMARK  5 active torsions:
REMARK  status: ('A' for Active; 'I' for Inactive)
REMARK    1  A    between atoms: C_2  and  O_3
REMARK    2  A    between atoms: C_2  and  C_4
REMARK    3  A    between atoms: C_8  and  O_9
REMARK    4  A    between atoms: O_9  and  C_10
REMARK    5  A    between atoms: C_18  and  C_19
REMARK                            x       y       z     vdW  Elec       q    Type
REMARK                         _______ _______ _______ _____ _____    ______ ____
ROOT
ATOM      1  C   UNL     1       6.787   5.597  18.379  0.00  0.00    +0.000 C 
ATOM      2  C   UNL     1       5.992   5.036  19.275  0.00  0.00    +0.000 C 
ATOM      3  C   UNL     1       4.618   4.958  18.907  0.00  0.00    +0.000 A 
ATOM      4  C   UNL     1       3.879   3.992  19.533  0.00  0.00    +0.000 A 
ATOM      5  C   UNL     1       2.545   3.849  19.286  0.00  0.00    +0.000 A 
ATOM      6  C   UNL     1       1.954   4.689  18.354  0.00  0.00    +0.000 A 
ATOM      7  C   UNL     1       2.700   5.695  17.685  0.00  0.00    +0.000 A 
ATOM      8  C   UNL     1       4.045   5.821  17.987  0.00  0.00    +0.000 A 
ATOM      9  O   UNL     1       4.839   6.739  17.343  0.00  0.00    +0.000 OA
ATOM     10  C   UNL     1       6.121   6.081  17.022  0.00  0.00    +0.000 C 
ENDROOT
BRANCH  10  11
ATOM     11  C   UNL     1       5.785   5.128  15.758  0.00  0.00    +0.000 C 
ATOM     12  F   UNL     1       5.266   3.925  16.069  0.00  0.00    +0.000 F 
ATOM     13  F   UNL     1       4.910   5.687  14.883  0.00  0.00    +0.000 F 
ATOM     14  F   UNL     1       6.906   4.922  15.021  0.00  0.00    +0.000 F 
ENDBRANCH  10  11
BRANCH   1  16
ATOM     15  O   UNL     1       8.602   5.139  19.897  0.00  0.00    +0.000 OA
ATOM     16  C   UNL     1       7.997   5.919  19.168  0.00  0.00    +0.000 C 
BRANCH  16  17
ATOM     17  O   UNL     1       8.536   7.114  18.978  0.00  0.00    +0.000 OA
ATOM     18  H   UNL     1       8.992   7.322  19.830  0.00  0.00    +0.000 HD
ENDBRANCH  16  17
ENDBRANCH   1  16
BRANCH   5  19
ATOM     19  O   UNL     1       1.989   2.891  20.037  0.00  0.00    +0.000 OA
BRANCH  19  20
ATOM     20  C   UNL     1       1.996   2.985  21.431  0.00  0.00    +0.000 C 
ATOM     21  F   UNL     1       2.197   4.230  21.899  0.00  0.00    +0.000 F 
ATOM     22  F   UNL     1       0.807   2.542  21.896  0.00  0.00    +0.000 F 
ATOM     23  F   UNL     1       2.965   2.171  21.896  0.00  0.00    +0.000 F 
ENDBRANCH  19  20
ENDBRANCH   5  19
TORSDOF 5
ENDMDL
MODEL 6
REMARK VINA RESULT:      -7.9      2.710      3.773
REMARK  Name = 
REMARK  5 active torsions:
REMARK  status: ('A' for Active; 'I' for Inactive)
REMARK    1  A    between atoms: C_2  and  O_3
REMARK    2  A    between atoms: C_2  and  C_4
REMARK    3  A    between atoms: C_8  and  O_9
REMARK    4  A    between atoms: O_9  and  C_10
REMARK    5  A    between atoms: C_18  and  C_19
REMARK                            x       y       z     vdW  Elec       q    Type
REMARK                         _______ _______ _______ _____ _____    ______ ____
ROOT
ATOM      1  C   UNL     1       6.511   5.532  18.323  0.00  0.00    +0.000 C 
ATOM      2  C   UNL     1       5.743   5.463  19.398  0.00  0.00    +0.000 C 
ATOM      3  C   UNL     1       4.350   5.302  19.143  0.00  0.00    +0.000 A 
ATOM      4  C   UNL     1       3.612   4.749  20.152  0.00  0.00    +0.000 A 
ATOM      5  C   UNL     1       2.263   4.580  20.033  0.00  0.00    +0.000 A 
ATOM      6  C   UNL     1       1.655   4.955  18.843  0.00  0.00    +0.000 A 
ATOM      7  C   UNL     1       2.400   5.524  17.777  0.00  0.00    +0.000 A 
ATOM      8  C   UNL     1       3.762   5.700  17.953  0.00  0.00    +0.000 A 
ATOM      9  O   UNL     1       4.553   6.200  16.947  0.00  0.00    +0.000 OA
ATOM     10  C   UNL     1       5.795   5.403  16.912  0.00  0.00    +0.000 C 
ENDROOT
BRANCH  10  11
ATOM     11  C   UNL     1       5.368   4.010  16.209  0.00  0.00    +0.000 C 
ATOM     12  F   UNL     1       4.772   3.117  17.022  0.00  0.00    +0.000 F 
ATOM     13  F   UNL     1       4.515   4.176  15.165  0.00  0.00    +0.000 F 
ATOM     14  F   UNL     1       6.455   3.415  15.658  0.00  0.00    +0.000 F 
ENDBRANCH  10  11
BRANCH   1  16
ATOM     15  O   UNL     1       8.249   7.188  18.533  0.00  0.00    +0.000 OA
ATOM     16  C   UNL     1       7.768   6.106  18.853  0.00  0.00    +0.000 C 
BRANCH  16  17
ATOM     17  O   UNL     1       8.358   5.449  19.841  0.00  0.00    +0.000 OA
ATOM     18  H   UNL     1       7.631   4.936  20.270  0.00  0.00    +0.000 HD
ENDBRANCH  16  17
ENDBRANCH   1  16
BRANCH   5  19
ATOM     19  O   UNL     1       1.713   4.080  21.146  0.00  0.00    +0.000 OA
BRANCH  19  20
ATOM     20  C   UNL     1       1.726   2.705  21.390  0.00  0.00    +0.000 C 
ATOM     21  F   UNL     1       0.783   2.290  22.254  0.00  0.00    +0.000 F 
ATOM     22  F   UNL     1       1.541   2.060  20.216  0.00  0.00    +0.000 F 
ATOM     23  F   UNL     1       2.944   2.380  21.868  0.00  0.00    +0.000 F 
ENDBRANCH  19  20
ENDBRANCH   5  19
TORSDOF 5
ENDMDL
MODEL 7
REMARK VINA RESULT:      -7.9      2.477      3.540
REMARK  Name = 
REMARK  5 active torsions:
REMARK  status: ('A' for Active; 'I' for Inactive)
REMARK    1  A    between atoms: C_2  and  O_3
REMARK    2  A    between atoms: C_2  and  C_4
REMARK    3  A    between atoms: C_8  and  O_9
REMARK    4  A    between atoms: O_9  and  C_10
REMARK    5  A    between atoms: C_18  and  C_19
REMARK                            x       y       z     vdW  Elec       q    Type
REMARK                         _______ _______ _______ _____ _____    ______ ____
ROOT
ATOM      1  C   UNL     1       6.744   6.088  17.428  0.00  0.00    +0.000 C 
ATOM      2  C   UNL     1       6.176   5.657  18.541  0.00  0.00    +0.000 C 
ATOM      3  C   UNL     1       4.933   4.981  18.370  0.00  0.00    +0.000 A 
ATOM      4  C   UNL     1       4.571   4.122  19.370  0.00  0.00    +0.000 A 
ATOM      5  C   UNL     1       3.386   3.446  19.330  0.00  0.00    +0.000 A 
ATOM      6  C   UNL     1       2.562   3.627  18.228  0.00  0.00    +0.000 A 
ATOM      7  C   UNL     1       2.918   4.508  17.173  0.00  0.00    +0.000 A 
ATOM      8  C   UNL     1       4.119   5.191  17.269  0.00  0.00    +0.000 A 
ATOM      9  O   UNL     1       4.550   6.022  16.264  0.00  0.00    +0.000 OA
ATOM     10  C   UNL     1       5.992   5.779  16.064  0.00  0.00    +0.000 C 
ENDROOT
BRANCH  10  11
ATOM     11  C   UNL     1       6.062   4.376  15.261  0.00  0.00    +0.000 C 
ATOM     12  F   UNL     1       7.128   4.231  14.452  0.00  0.00    +0.000 F 
ATOM     13  F   UNL     1       6.074   3.290  16.077  0.00  0.00    +0.000 F 
ATOM     14  F   UNL     1       4.943   4.214  14.511  0.00  0.00    +0.000 F 
ENDBRANCH  10  11
BRANCH   1  16
ATOM     15  O   UNL     1       7.974   8.160  17.407  0.00  0.00    +0.000 OA
ATOM     16  C   UNL     1       7.732   7.073  17.922  0.00  0.00    +0.000 C 
BRANCH  16  17
ATOM     17  O   UNL     1       8.315   6.808  19.082  0.00  0.00    +0.000 OA
ATOM     18  H   UNL     1       8.916   7.575  19.241  0.00  0.00    +0.000 HD
ENDBRANCH  16  17
ENDBRANCH   1  16
BRANCH   5  19
ATOM     19  O   UNL     1       3.187   2.703  20.424  0.00  0.00    +0.000 OA
BRANCH  19  20
ATOM     20  C   UNL     1       2.120   2.973  21.284  0.00  0.00    +0.000 C 
ATOM     21  F   UNL     1       0.916   2.982  20.685  0.00  0.00    +0.000 F 
ATOM     22  F   UNL     1       2.104   2.031  22.255  0.00  0.00    +0.000 F 
ATOM     23  F   UNL     1       2.342   4.172  21.858  0.00  0.00    +0.000 F 
ENDBRANCH  19  20
ENDBRANCH   5  19
TORSDOF 5
ENDMDL
MODEL 8
REMARK VINA RESULT:      -7.8      3.216      6.101
REMARK  Name = 
REMARK  5 active torsions:
REMARK  status: ('A' for Active; 'I' for Inactive)
REMARK    1  A    between atoms: C_2  and  O_3
REMARK    2  A    between atoms: C_2  and  C_4
REMARK    3  A    between atoms: C_8  and  O_9
REMARK    4  A    between atoms: O_9  and  C_10
REMARK    5  A    between atoms: C_18  and  C_19
REMARK                            x       y       z     vdW  Elec       q    Type
REMARK                         _______ _______ _______ _____ _____    ______ ____
ROOT
ATOM      1  C   UNL     1       2.547   7.194  18.381  0.00  0.00    +0.000 C 
ATOM      2  C   UNL     1       3.506   7.372  17.488  0.00  0.00    +0.000 C 
ATOM      3  C   UNL     1       4.513   6.364  17.464  0.00  0.00    +0.000 A 
ATOM      4  C   UNL     1       5.210   6.235  16.295  0.00  0.00    +0.000 A 
ATOM      5  C   UNL     1       6.221   5.326  16.169  0.00  0.00    +0.000 A 
ATOM      6  C   UNL     1       6.508   4.507  17.251  0.00  0.00    +0.000 A 
ATOM      7  C   UNL     1       5.794   4.615  18.473  0.00  0.00    +0.000 A 
ATOM      8  C   UNL     1       4.794   5.569  18.564  0.00  0.00    +0.000 A 
ATOM      9  O   UNL     1       4.030   5.697  19.698  0.00  0.00    +0.000 OA
ATOM     10  C   UNL     1       2.628   5.887  19.279  0.00  0.00    +0.000 C 
ENDROOT
BRANCH  10  11
ATOM     11  C   UNL     1       2.134   4.414  18.825  0.00  0.00    +0.000 C 
ATOM     12  F   UNL     1       2.073   4.215  17.495  0.00  0.00    +0.000 F 
ATOM     13  F   UNL     1       2.918   3.414  19.306  0.00  0.00    +0.000 F 
ATOM     14  F   UNL     1       0.908   4.154  19.344  0.00  0.00    +0.000 F 
ENDBRANCH  10  11
BRANCH   1  16
ATOM     15  O   UNL     1       1.344   8.987  19.451  0.00  0.00    +0.000 OA
ATOM     16  C   UNL     1       1.927   8.534  18.471  0.00  0.00    +0.000 C 
BRANCH  16  17
ATOM     17  O   UNL     1       2.123   9.355  17.449  0.00  0.00    +0.000 OA
ATOM     18  H   UNL     1       1.299   9.898  17.402  0.00  0.00    +0.000 HD
ENDBRANCH  16  17
ENDBRANCH   1  16
BRANCH   5  19
ATOM     19  O   UNL     1       6.818   5.393  14.974  0.00  0.00    +0.000 OA
BRANCH  19  20
ATOM     20  C   UNL     1       6.460   4.514  13.949  0.00  0.00    +0.000 C 
ATOM     21  F   UNL     1       5.175   4.609  13.565  0.00  0.00    +0.000 F 
ATOM     22  F   UNL     1       7.244   4.766  12.877  0.00  0.00    +0.000 F 
ATOM     23  F   UNL     1       6.709   3.259  14.373  0.00  0.00    +0.000 F 
ENDBRANCH  19  20
ENDBRANCH   5  19
TORSDOF 5
ENDMDL
MODEL 9
REMARK VINA RESULT:      -7.8      3.250      6.080
REMARK  Name = 
REMARK  5 active torsions:
REMARK  status: ('A' for Active; 'I' for Inactive)
REMARK    1  A    between atoms: C_2  and  O_3
REMARK    2  A    between atoms: C_2  and  C_4
REMARK    3  A    between atoms: C_8  and  O_9
REMARK    4  A    between atoms: O_9  and  C_10
REMARK    5  A    between atoms: C_18  and  C_19
REMARK                            x       y       z     vdW  Elec       q    Type
REMARK                         _______ _______ _______ _____ _____    ______ ____
ROOT
ATOM      1  C   UNL     1       2.473   7.302  18.432  0.00  0.00    +0.000 C 
ATOM      2  C   UNL     1       3.442   7.466  17.546  0.00  0.00    +0.000 C 
ATOM      3  C   UNL     1       4.447   6.456  17.549  0.00  0.00    +0.000 A 
ATOM      4  C   UNL     1       5.156   6.307  16.389  0.00  0.00    +0.000 A 
ATOM      5  C   UNL     1       6.167   5.396  16.288  0.00  0.00    +0.000 A 
ATOM      6  C   UNL     1       6.442   4.594  17.385  0.00  0.00    +0.000 A 
ATOM      7  C   UNL     1       5.716   4.723  18.599  0.00  0.00    +0.000 A 
ATOM      8  C   UNL     1       4.717   5.679  18.664  0.00  0.00    +0.000 A 
ATOM      9  O   UNL     1       3.942   5.826  19.788  0.00  0.00    +0.000 OA
ATOM     10  C   UNL     1       2.544   6.010  19.352  0.00  0.00    +0.000 C 
ENDROOT
BRANCH  10  11
ATOM     11  C   UNL     1       2.053   4.531  18.917  0.00  0.00    +0.000 C 
ATOM     12  F   UNL     1       2.888   3.529  19.250  0.00  0.00    +0.000 F 
ATOM     13  F   UNL     1       0.848   4.189  19.443  0.00  0.00    +0.000 F 
ATOM     14  F   UNL     1       1.855   4.483  17.575  0.00  0.00    +0.000 F 
ENDBRANCH  10  11
BRANCH   1  16
ATOM     15  O   UNL     1       1.337   9.147  19.487  0.00  0.00    +0.000 OA
ATOM     16  C   UNL     1       1.855   8.645  18.494  0.00  0.00    +0.000 C 
BRANCH  16  17
ATOM     17  O   UNL     1       1.977   9.412  17.421  0.00  0.00    +0.000 OA
ATOM     18  H   UNL     1       2.930   9.672  17.406  0.00  0.00    +0.000 HD
ENDBRANCH  16  17
ENDBRANCH   1  16
BRANCH   5  19
ATOM     19  O   UNL     1       6.776   5.443  15.097  0.00  0.00    +0.000 OA
BRANCH  19  20
ATOM     20  C   UNL     1       6.451   4.527  14.094  0.00  0.00    +0.000 C 
ATOM     21  F   UNL     1       6.598   3.239  14.454  0.00  0.00    +0.000 F 
ATOM     22  F   UNL     1       5.162   4.724  13.737  0.00  0.00    +0.000 F 
ATOM     23  F   UNL     1       7.233   4.785  13.027  0.00  0.00    +0.000 F 
ENDBRANCH  19  20
ENDBRANCH   5  19
TORSDOF 5
ENDMDL
