MODEL 1
REMARK VINA RESULT:      -7.9      0.000      0.000
REMARK  Name = 
REMARK  6 active torsions:
REMARK  status: ('A' for Active; 'I' for Inactive)
REMARK    1  A    between atoms: C_1  and  O_2
REMARK    2  A    between atoms: O_2  and  C_3
REMARK    3  A    between atoms: C_6  and  N_7
REMARK    4  A    between atoms: N_10  and  C_11
REMARK    5  A    between atoms: C_19  and  C_20
REMARK    6  A    between atoms: N_25  and  C_26
REMARK                            x       y       z     vdW  Elec       q    Type
REMARK                         _______ _______ _______ _____ _____    ______ ____
ROOT
ATOM      1  C   UNL     1       4.950   4.350  17.373  0.00  0.00    +0.000 A 
ATOM      2  C   UNL     1       6.171   4.405  16.691  0.00  0.00    +0.000 A 
ATOM      3  C   UNL     1       7.209   5.207  17.145  0.00  0.00    +0.000 A 
ATOM      4  C   UNL     1       7.083   5.938  18.316  0.00  0.00    +0.000 A 
ATOM      5  C   UNL     1       5.887   5.844  19.034  0.00  0.00    +0.000 A 
ATOM      6  C   UNL     1       4.793   5.054  18.592  0.00  0.00    +0.000 A 
ENDROOT
BRANCH   6   7
ATOM      7  C   UNL     1       3.562   5.039  19.439  0.00  0.00    +0.000 A 
ATOM      8  C   UNL     1       2.578   6.011  19.606  0.00  0.00    +0.000 A 
ATOM      9 BR   UNL     1       2.301   7.664  18.756  0.00  0.00    +0.000 Br
ATOM     10  C   UNL     1       1.711   5.564  20.606  0.00  0.00    +0.000 A 
ATOM     11  N   UNL     1       2.054   4.361  21.048  0.00  0.00    +0.000 NA
ATOM     12  N   UNL     1       3.156   4.043  20.326  0.00  0.00    +0.000 N 
ATOM     13  C   UNL     1       3.750   2.761  20.625  0.00  0.00    +0.000 C 
ENDBRANCH   6   7
BRANCH   4  14
ATOM     14  N   UNL     1       8.115   6.786  18.795  0.00  0.00    +0.000 N 
ATOM     15  C   UNL     1       8.189   8.138  18.495  0.00  0.00    +0.000 C 
ATOM     16  O   UNL     1       7.449   8.681  17.678  0.00  0.00    +0.000 OA
ATOM     17  N   UNL     1       9.183   8.804  19.185  0.00  0.00    +0.000 N 
ATOM     18  H   UNL     1       8.899   6.357  19.253  0.00  0.00    +0.000 HD
ATOM     19  H   UNL     1       9.954   8.262  19.533  0.00  0.00    +0.000 HD
BRANCH  17  20
ATOM     20  C   UNL     1       9.349  10.213  19.118  0.00  0.00    +0.000 A 
ATOM     21  C   UNL     1       9.577  10.884  17.912  0.00  0.00    +0.000 A 
ATOM     22  C   UNL     1       9.859  12.252  17.881  0.00  0.00    +0.000 A 
ATOM     23  C   UNL     1       9.870  12.966  19.068  0.00  0.00    +0.000 A 
ATOM     24 BR   UNL     1      10.280  14.813  19.039  0.00  0.00    +0.000 Br
ATOM     25  C   UNL     1       9.592  12.331  20.277  0.00  0.00    +0.000 A 
ATOM     26  C   UNL     1       9.326  10.953  20.304  0.00  0.00    +0.000 A 
ENDBRANCH  17  20
ENDBRANCH   4  14
BRANCH   1  28
ATOM     27  C   UNL     1       3.763   2.264  17.290  0.00  0.00    +0.000 C 
ATOM     28  O   UNL     1       3.898   3.625  16.886  0.00  0.00    +0.000 OA
ENDBRANCH   1  28
TORSDOF 4
ENDMDL
MODEL 2
REMARK VINA RESULT:      -7.7      6.545      9.205
REMARK  Name = 
REMARK  6 active torsions:
REMARK  status: ('A' for Active; 'I' for Inactive)
REMARK    1  A    between atoms: C_1  and  O_2
REMARK    2  A    between atoms: O_2  and  C_3
REMARK    3  A    between atoms: C_6  and  N_7
REMARK    4  A    between atoms: N_10  and  C_11
REMARK    5  A    between atoms: C_19  and  C_20
REMARK    6  A    between atoms: N_25  and  C_26
REMARK                            x       y       z     vdW  Elec       q    Type
REMARK                         _______ _______ _______ _____ _____    ______ ____
ROOT
ATOM      1  C   UNL     1      -0.310  12.893  18.734  0.00  0.00    +0.000 A 
ATOM      2  C   UNL     1       1.074  12.760  18.889  0.00  0.00    +0.000 A 
ATOM      3  C   UNL     1       1.659  11.514  19.067  0.00  0.00    +0.000 A 
ATOM      4  C   UNL     1       0.892  10.359  19.045  0.00  0.00    +0.000 A 
ATOM      5  C   UNL     1      -0.485  10.479  18.833  0.00  0.00    +0.000 A 
ATOM      6  C   UNL     1      -1.125  11.736  18.670  0.00  0.00    +0.000 A 
ENDROOT
BRANCH   6   7
ATOM      7  C   UNL     1      -2.604  11.739  18.459  0.00  0.00    +0.000 A 
ATOM      8  C   UNL     1      -3.349  11.376  17.339  0.00  0.00    +0.000 A 
ATOM      9 BR   UNL     1      -2.843  10.616  15.697  0.00  0.00    +0.000 Br
ATOM     10  C   UNL     1      -4.685  11.686  17.606  0.00  0.00    +0.000 A 
ATOM     11  N   UNL     1      -4.839  12.173  18.830  0.00  0.00    +0.000 NA
ATOM     12  N   UNL     1      -3.585  12.182  19.344  0.00  0.00    +0.000 N 
ATOM     13  C   UNL     1      -3.467  12.690  20.692  0.00  0.00    +0.000 C 
ENDBRANCH   6   7
BRANCH   4  14
ATOM     14  N   UNL     1       1.454   9.072  19.248  0.00  0.00    +0.000 N 
ATOM     15  C   UNL     1       2.153   8.383  18.268  0.00  0.00    +0.000 C 
ATOM     16  O   UNL     1       2.222   8.769  17.103  0.00  0.00    +0.000 OA
ATOM     17  N   UNL     1       2.742   7.221  18.722  0.00  0.00    +0.000 N 
ATOM     18  H   UNL     1       1.211   8.583  20.091  0.00  0.00    +0.000 HD
ATOM     19  H   UNL     1       2.355   6.791  19.544  0.00  0.00    +0.000 HD
BRANCH  17  20
ATOM     20  C   UNL     1       3.604   6.433  17.914  0.00  0.00    +0.000 A 
ATOM     21  C   UNL     1       4.737   6.962  17.289  0.00  0.00    +0.000 A 
ATOM     22  C   UNL     1       5.503   6.203  16.401  0.00  0.00    +0.000 A 
ATOM     23  C   UNL     1       5.157   4.881  16.171  0.00  0.00    +0.000 A 
ATOM     24 BR   UNL     1       6.171   3.854  14.949  0.00  0.00    +0.000 Br
ATOM     25  C   UNL     1       4.065   4.314  16.824  0.00  0.00    +0.000 A 
ATOM     26  C   UNL     1       3.288   5.087  17.702  0.00  0.00    +0.000 A 
ENDBRANCH  17  20
ENDBRANCH   4  14
BRANCH   1  28
ATOM     27  C   UNL     1      -0.688  15.062  19.693  0.00  0.00    +0.000 C 
ATOM     28  O   UNL     1      -0.897  14.124  18.639  0.00  0.00    +0.000 OA
ENDBRANCH   1  28
TORSDOF 4
ENDMDL
MODEL 3
REMARK VINA RESULT:      -7.5      1.351      1.677
REMARK  Name = 
REMARK  6 active torsions:
REMARK  status: ('A' for Active; 'I' for Inactive)
REMARK    1  A    between atoms: C_1  and  O_2
REMARK    2  A    between atoms: O_2  and  C_3
REMARK    3  A    between atoms: C_6  and  N_7
REMARK    4  A    between atoms: N_10  and  C_11
REMARK    5  A    between atoms: C_19  and  C_20
REMARK    6  A    between atoms: N_25  and  C_26
REMARK                            x       y       z     vdW  Elec       q    Type
REMARK                         _______ _______ _______ _____ _____    ______ ____
ROOT
ATOM      1  C   UNL     1       4.811   4.389  17.321  0.00  0.00    +0.000 A 
ATOM      2  C   UNL     1       5.998   4.450  16.581  0.00  0.00    +0.000 A 
ATOM      3  C   UNL     1       7.065   5.232  17.001  0.00  0.00    +0.000 A 
ATOM      4  C   UNL     1       7.003   5.937  18.193  0.00  0.00    +0.000 A 
ATOM      5  C   UNL     1       5.843   5.837  18.967  0.00  0.00    +0.000 A 
ATOM      6  C   UNL     1       4.721   5.067  18.561  0.00  0.00    +0.000 A 
ENDROOT
BRANCH   6   7
ATOM      7  C   UNL     1       3.533   5.043  19.467  0.00  0.00    +0.000 A 
ATOM      8  C   UNL     1       3.066   4.033  20.306  0.00  0.00    +0.000 A 
ATOM      9 BR   UNL     1       3.782   2.355  20.755  0.00  0.00    +0.000 Br
ATOM     10  C   UNL     1       1.847   4.459  20.838  0.00  0.00    +0.000 A 
ATOM     11  N   UNL     1       1.537   5.684  20.432  0.00  0.00    +0.000 NA
ATOM     12  N   UNL     1       2.567   6.036  19.624  0.00  0.00    +0.000 N 
ATOM     13  C   UNL     1       2.471   7.348  19.027  0.00  0.00    +0.000 C 
ENDBRANCH   6   7
BRANCH   4  14
ATOM     14  N   UNL     1       8.066   6.765  18.640  0.00  0.00    +0.000 N 
ATOM     15  C   UNL     1       8.107   8.135  18.421  0.00  0.00    +0.000 C 
ATOM     16  O   UNL     1       7.299   8.719  17.704  0.00  0.00    +0.000 OA
ATOM     17  N   UNL     1       9.149   8.767  19.069  0.00  0.00    +0.000 N 
ATOM     18  H   UNL     1       8.887   6.317  19.004  0.00  0.00    +0.000 HD
ATOM     19  H   UNL     1       9.950   8.213  19.319  0.00  0.00    +0.000 HD
BRANCH  17  20
ATOM     20  C   UNL     1       9.301  10.179  19.079  0.00  0.00    +0.000 A 
ATOM     21  C   UNL     1       9.499  10.919  17.909  0.00  0.00    +0.000 A 
ATOM     22  C   UNL     1       9.767  12.290  17.949  0.00  0.00    +0.000 A 
ATOM     23  C   UNL     1       9.794  12.936  19.175  0.00  0.00    +0.000 A 
ATOM     24 BR   UNL     1      10.186  14.785  19.242  0.00  0.00    +0.000 Br
ATOM     25  C   UNL     1       9.546  12.231  20.351  0.00  0.00    +0.000 A 
ATOM     26  C   UNL     1       9.293  10.851  20.305  0.00  0.00    +0.000 A 
ENDBRANCH  17  20
ENDBRANCH   4  14
BRANCH   1  28
ATOM     27  C   UNL     1       3.650   2.293  17.170  0.00  0.00    +0.000 C 
ATOM     28  O   UNL     1       3.730   3.685  16.870  0.00  0.00    +0.000 OA
ENDBRANCH   1  28
TORSDOF 4
ENDMDL
MODEL 4
REMARK VINA RESULT:      -7.4      6.557      9.244
REMARK  Name = 
REMARK  6 active torsions:
REMARK  status: ('A' for Active; 'I' for Inactive)
REMARK    1  A    between atoms: C_1  and  O_2
REMARK    2  A    between atoms: O_2  and  C_3
REMARK    3  A    between atoms: C_6  and  N_7
REMARK    4  A    between atoms: N_10  and  C_11
REMARK    5  A    between atoms: C_19  and  C_20
REMARK    6  A    between atoms: N_25  and  C_26
REMARK                            x       y       z     vdW  Elec       q    Type
REMARK                         _______ _______ _______ _____ _____    ______ ____
ROOT
ATOM      1  C   UNL     1      -0.428  12.851  19.201  0.00  0.00    +0.000 A 
ATOM      2  C   UNL     1       0.921  12.696  19.538  0.00  0.00    +0.000 A 
ATOM      3  C   UNL     1       1.495  11.436  19.639  0.00  0.00    +0.000 A 
ATOM      4  C   UNL     1       0.757  10.295  19.360  0.00  0.00    +0.000 A 
ATOM      5  C   UNL     1      -0.576  10.444  18.967  0.00  0.00    +0.000 A 
ATOM      6  C   UNL     1      -1.206  11.714  18.873  0.00  0.00    +0.000 A 
ENDROOT
BRANCH   6   7
ATOM      7  C   UNL     1      -2.639  11.746  18.451  0.00  0.00    +0.000 A 
ATOM      8  C   UNL     1      -3.776  12.107  19.171  0.00  0.00    +0.000 A 
ATOM      9 BR   UNL     1      -3.986  12.823  20.895  0.00  0.00    +0.000 Br
ATOM     10  C   UNL     1      -4.885  11.838  18.365  0.00  0.00    +0.000 A 
ATOM     11  N   UNL     1      -4.525  11.378  17.174  0.00  0.00    +0.000 NA
ATOM     12  N   UNL     1      -3.171  11.345  17.227  0.00  0.00    +0.000 N 
ATOM     13  C   UNL     1      -2.511  10.860  16.037  0.00  0.00    +0.000 C 
ENDBRANCH   6   7
BRANCH   4  14
ATOM     14  N   UNL     1       1.305   8.992  19.478  0.00  0.00    +0.000 N 
ATOM     15  C   UNL     1       2.020   8.372  18.464  0.00  0.00    +0.000 C 
ATOM     16  O   UNL     1       2.116   8.842  17.333  0.00  0.00    +0.000 OA
ATOM     17  N   UNL     1       2.590   7.173  18.842  0.00  0.00    +0.000 N 
ATOM     18  H   UNL     1       1.041   8.444  20.277  0.00  0.00    +0.000 HD
ATOM     19  H   UNL     1       2.183   6.687  19.622  0.00  0.00    +0.000 HD
BRANCH  17  20
ATOM     20  C   UNL     1       3.463   6.439  17.996  0.00  0.00    +0.000 A 
ATOM     21  C   UNL     1       4.552   7.031  17.348  0.00  0.00    +0.000 A 
ATOM     22  C   UNL     1       5.326   6.323  16.425  0.00  0.00    +0.000 A 
ATOM     23  C   UNL     1       5.033   4.991  16.180  0.00  0.00    +0.000 A 
ATOM     24 BR   UNL     1       6.056   4.032  14.911  0.00  0.00    +0.000 Br
ATOM     25  C   UNL     1       3.987   4.363  16.854  0.00  0.00    +0.000 A 
ATOM     26  C   UNL     1       3.202   5.084  17.767  0.00  0.00    +0.000 A 
ENDBRANCH  17  20
ENDBRANCH   4  14
BRANCH   1  28
ATOM     27  C   UNL     1      -0.799  14.964  20.280  0.00  0.00    +0.000 C 
ATOM     28  O   UNL     1      -1.016  14.085  19.178  0.00  0.00    +0.000 OA
ENDBRANCH   1  28
TORSDOF 4
ENDMDL
MODEL 5
REMARK VINA RESULT:      -7.4      1.379      1.946
REMARK  Name = 
REMARK  6 active torsions:
REMARK  status: ('A' for Active; 'I' for Inactive)
REMARK    1  A    between atoms: C_1  and  O_2
REMARK    2  A    between atoms: O_2  and  C_3
REMARK    3  A    between atoms: C_6  and  N_7
REMARK    4  A    between atoms: N_10  and  C_11
REMARK    5  A    between atoms: C_19  and  C_20
REMARK    6  A    between atoms: N_25  and  C_26
REMARK                            x       y       z     vdW  Elec       q    Type
REMARK                         _______ _______ _______ _____ _____    ______ ____
ROOT
ATOM      1  C   UNL     1       4.911   4.717  17.203  0.00  0.00    +0.000 A 
ATOM      2  C   UNL     1       6.055   4.907  16.421  0.00  0.00    +0.000 A 
ATOM      3  C   UNL     1       7.123   5.664  16.884  0.00  0.00    +0.000 A 
ATOM      4  C   UNL     1       7.105   6.213  18.157  0.00  0.00    +0.000 A 
ATOM      5  C   UNL     1       5.990   5.981  18.967  0.00  0.00    +0.000 A 
ATOM      6  C   UNL     1       4.868   5.231  18.522  0.00  0.00    +0.000 A 
ENDROOT
BRANCH   6   7
ATOM      7  C   UNL     1       3.730   5.057  19.475  0.00  0.00    +0.000 A 
ATOM      8  C   UNL     1       3.385   3.965  20.268  0.00  0.00    +0.000 A 
ATOM      9 BR   UNL     1       4.254   2.329  20.583  0.00  0.00    +0.000 Br
ATOM     10  C   UNL     1       2.163   4.258  20.877  0.00  0.00    +0.000 A 
ATOM     11  N   UNL     1       1.737   5.474  20.560  0.00  0.00    +0.000 NA
ATOM     12  N   UNL     1       2.696   5.956  19.733  0.00  0.00    +0.000 N 
ATOM     13  C   UNL     1       2.468   7.288  19.222  0.00  0.00    +0.000 C 
ENDBRANCH   6   7
BRANCH   4  14
ATOM     14  N   UNL     1       8.168   7.013  18.652  0.00  0.00    +0.000 N 
ATOM     15  C   UNL     1       8.249   8.382  18.447  0.00  0.00    +0.000 C 
ATOM     16  O   UNL     1       7.484   8.991  17.703  0.00  0.00    +0.000 OA
ATOM     17  N   UNL     1       9.279   8.985  19.140  0.00  0.00    +0.000 N 
ATOM     18  H   UNL     1       8.964   6.543  19.045  0.00  0.00    +0.000 HD
ATOM     19  H   UNL     1      10.056   8.411  19.417  0.00  0.00    +0.000 HD
BRANCH  17  20
ATOM     20  C   UNL     1       9.463  10.393  19.168  0.00  0.00    +0.000 A 
ATOM     21  C   UNL     1       9.346  11.141  20.344  0.00  0.00    +0.000 A 
ATOM     22  C   UNL     1       9.409  12.537  20.331  0.00  0.00    +0.000 A 
ATOM     23  C   UNL     1       9.636  13.190  19.131  0.00  0.00    +0.000 A 
ATOM     24 BR   UNL     1       9.694  15.081  19.098  0.00  0.00    +0.000 Br
ATOM     25  C   UNL     1       9.811  12.465  17.954  0.00  0.00    +0.000 A 
ATOM     26  C   UNL     1       9.729  11.063  17.970  0.00  0.00    +0.000 A 
ENDBRANCH  17  20
ENDBRANCH   4  14
BRANCH   1  28
ATOM     27  C   UNL     1       3.720   2.643  16.987  0.00  0.00    +0.000 C 
ATOM     28  O   UNL     1       3.826   4.039  16.720  0.00  0.00    +0.000 OA
ENDBRANCH   1  28
TORSDOF 4
ENDMDL
MODEL 6
REMARK VINA RESULT:      -7.3      5.671      8.807
REMARK  Name = 
REMARK  6 active torsions:
REMARK  status: ('A' for Active; 'I' for Inactive)
REMARK    1  A    between atoms: C_1  and  O_2
REMARK    2  A    between atoms: O_2  and  C_3
REMARK    3  A    between atoms: C_6  and  N_7
REMARK    4  A    between atoms: N_10  and  C_11
REMARK    5  A    between atoms: C_19  and  C_20
REMARK    6  A    between atoms: N_25  and  C_26
REMARK                            x       y       z     vdW  Elec       q    Type
REMARK                         _______ _______ _______ _____ _____    ______ ____
ROOT
ATOM      1  C   UNL     1      -0.660  10.847  21.933  0.00  0.00    +0.000 A 
ATOM      2  C   UNL     1      -0.556   9.773  22.824  0.00  0.00    +0.000 A 
ATOM      3  C   UNL     1       0.275   8.695  22.553  0.00  0.00    +0.000 A 
ATOM      4  C   UNL     1       1.065   8.674  21.414  0.00  0.00    +0.000 A 
ATOM      5  C   UNL     1       1.010   9.769  20.546  0.00  0.00    +0.000 A 
ATOM      6  C   UNL     1       0.156  10.881  20.775  0.00  0.00    +0.000 A 
ENDROOT
BRANCH   6   7
ATOM      7  C   UNL     1       0.177  11.988  19.772  0.00  0.00    +0.000 A 
ATOM      8  C   UNL     1       0.921  13.166  19.755  0.00  0.00    +0.000 A 
ATOM      9 BR   UNL     1       2.287  13.796  20.882  0.00  0.00    +0.000 Br
ATOM     10  C   UNL     1       0.478  13.926  18.670  0.00  0.00    +0.000 A 
ATOM     11  N   UNL     1      -0.458  13.291  17.977  0.00  0.00    +0.000 NA
ATOM     12  N   UNL     1      -0.618  12.117  18.635  0.00  0.00    +0.000 N 
ATOM     13  C   UNL     1      -1.610  11.223  18.083  0.00  0.00    +0.000 C 
ENDBRANCH   6   7
BRANCH   4  14
ATOM     14  N   UNL     1       1.906   7.577  21.094  0.00  0.00    +0.000 N 
ATOM     15  C   UNL     1       2.223   7.215  19.793  0.00  0.00    +0.000 C 
ATOM     16  O   UNL     1       1.691   7.725  18.811  0.00  0.00    +0.000 OA
ATOM     17  N   UNL     1       3.174   6.217  19.714  0.00  0.00    +0.000 N 
ATOM     18  H   UNL     1       2.166   6.955  21.838  0.00  0.00    +0.000 HD
ATOM     19  H   UNL     1       3.286   5.613  20.509  0.00  0.00    +0.000 HD
BRANCH  17  20
ATOM     20  C   UNL     1       3.729   5.786  18.480  0.00  0.00    +0.000 A 
ATOM     21  C   UNL     1       3.557   4.486  17.994  0.00  0.00    +0.000 A 
ATOM     22  C   UNL     1       4.211   4.044  16.841  0.00  0.00    +0.000 A 
ATOM     23  C   UNL     1       5.014   4.930  16.140  0.00  0.00    +0.000 A 
ATOM     24 BR   UNL     1       5.927   4.334  14.595  0.00  0.00    +0.000 Br
ATOM     25  C   UNL     1       5.158   6.246  16.573  0.00  0.00    +0.000 A 
ATOM     26  C   UNL     1       4.512   6.679  17.742  0.00  0.00    +0.000 A 
ENDBRANCH  17  20
ENDBRANCH   4  14
BRANCH   1  28
ATOM     27  C   UNL     1      -1.178  12.882  23.096  0.00  0.00    +0.000 C 
ATOM     28  O   UNL     1      -1.536  11.872  22.156  0.00  0.00    +0.000 OA
ENDBRANCH   1  28
TORSDOF 4
ENDMDL
MODEL 7
REMARK VINA RESULT:      -7.3      1.225      1.501
REMARK  Name = 
REMARK  6 active torsions:
REMARK  status: ('A' for Active; 'I' for Inactive)
REMARK    1  A    between atoms: C_1  and  O_2
REMARK    2  A    between atoms: O_2  and  C_3
REMARK    3  A    between atoms: C_6  and  N_7
REMARK    4  A    between atoms: N_10  and  C_11
REMARK    5  A    between atoms: C_19  and  C_20
REMARK    6  A    between atoms: N_25  and  C_26
REMARK                            x       y       z     vdW  Elec       q    Type
REMARK                         _______ _______ _______ _____ _____    ______ ____
ROOT
ATOM      1  C   UNL     1       5.586   4.657  16.016  0.00  0.00    +0.000 A 
ATOM      2  C   UNL     1       6.906   4.950  15.658  0.00  0.00    +0.000 A 
ATOM      3  C   UNL     1       7.719   5.717  16.480  0.00  0.00    +0.000 A 
ATOM      4  C   UNL     1       7.260   6.174  17.706  0.00  0.00    +0.000 A 
ATOM      5  C   UNL     1       5.961   5.838  18.098  0.00  0.00    +0.000 A 
ATOM      6  C   UNL     1       5.090   5.075  17.276  0.00  0.00    +0.000 A 
ENDROOT
BRANCH   6   7
ATOM      7  C   UNL     1       3.720   4.787  17.798  0.00  0.00    +0.000 A 
ATOM      8  C   UNL     1       2.696   5.660  18.156  0.00  0.00    +0.000 A 
ATOM      9 BR   UNL     1       2.543   7.528  18.013  0.00  0.00    +0.000 Br
ATOM     10  C   UNL     1       1.666   4.896  18.708  0.00  0.00    +0.000 A 
ATOM     11  N   UNL     1       1.950   3.600  18.681  0.00  0.00    +0.000 NA
ATOM     12  N   UNL     1       3.178   3.542  18.112  0.00  0.00    +0.000 N 
ATOM     13  C   UNL     1       3.739   2.217  17.972  0.00  0.00    +0.000 C 
ENDBRANCH   6   7
BRANCH   4  14
ATOM     14  N   UNL     1       8.056   6.982  18.560  0.00  0.00    +0.000 N 
ATOM     15  C   UNL     1       8.334   8.316  18.304  0.00  0.00    +0.000 C 
ATOM     16  O   UNL     1       8.032   8.869  17.249  0.00  0.00    +0.000 OA
ATOM     17  N   UNL     1       8.996   8.951  19.336  0.00  0.00    +0.000 N 
ATOM     18  H   UNL     1       8.553   6.527  19.305  0.00  0.00    +0.000 HD
ATOM     19  H   UNL     1       9.518   8.381  19.977  0.00  0.00    +0.000 HD
BRANCH  17  20
ATOM     20  C   UNL     1       9.265  10.345  19.329  0.00  0.00    +0.000 A 
ATOM     21  C   UNL     1       9.495  11.059  18.149  0.00  0.00    +0.000 A 
ATOM     22  C   UNL     1       9.877  12.403  18.171  0.00  0.00    +0.000 A 
ATOM     23  C   UNL     1       9.989  13.053  19.390  0.00  0.00    +0.000 A 
ATOM     24 BR   UNL     1      10.535  14.863  19.432  0.00  0.00    +0.000 Br
ATOM     25  C   UNL     1       9.711  12.379  20.577  0.00  0.00    +0.000 A 
ATOM     26  C   UNL     1       9.344  11.024  20.550  0.00  0.00    +0.000 A 
ENDBRANCH  17  20
ENDBRANCH   4  14
BRANCH   1  28
ATOM     27  C   UNL     1       5.154   3.804  13.813  0.00  0.00    +0.000 C 
ATOM     28  O   UNL     1       4.758   3.969  15.173  0.00  0.00    +0.000 OA
ENDBRANCH   1  28
TORSDOF 4
ENDMDL
MODEL 8
REMARK VINA RESULT:      -7.3      6.709      9.482
REMARK  Name = 
REMARK  6 active torsions:
REMARK  status: ('A' for Active; 'I' for Inactive)
REMARK    1  A    between atoms: C_1  and  O_2
REMARK    2  A    between atoms: O_2  and  C_3
REMARK    3  A    between atoms: C_6  and  N_7
REMARK    4  A    between atoms: N_10  and  C_11
REMARK    5  A    between atoms: C_19  and  C_20
REMARK    6  A    between atoms: N_25  and  C_26
REMARK                            x       y       z     vdW  Elec       q    Type
REMARK                         _______ _______ _______ _____ _____    ______ ____
ROOT
ATOM      1  C   UNL     1      -0.699  13.041  19.635  0.00  0.00    +0.000 A 
ATOM      2  C   UNL     1       0.657  12.932  19.958  0.00  0.00    +0.000 A 
ATOM      3  C   UNL     1       1.273  11.692  20.058  0.00  0.00    +0.000 A 
ATOM      4  C   UNL     1       0.571  10.526  19.790  0.00  0.00    +0.000 A 
ATOM      5  C   UNL     1      -0.771  10.630  19.410  0.00  0.00    +0.000 A 
ATOM      6  C   UNL     1      -1.443  11.878  19.319  0.00  0.00    +0.000 A 
ENDROOT
BRANCH   6   7
ATOM      7  C   UNL     1      -2.880  11.862  18.912  0.00  0.00    +0.000 A 
ATOM      8  C   UNL     1      -3.464  11.503  17.699  0.00  0.00    +0.000 A 
ATOM      9 BR   UNL     1      -2.731  10.769  16.132  0.00  0.00    +0.000 Br
ATOM     10  C   UNL     1      -4.828  11.790  17.788  0.00  0.00    +0.000 A 
ATOM     11  N   UNL     1      -5.152  12.260  18.985  0.00  0.00    +0.000 NA
ATOM     12  N   UNL     1      -3.978  12.281  19.662  0.00  0.00    +0.000 N 
ATOM     13  C   UNL     1      -4.049  12.774  21.019  0.00  0.00    +0.000 C 
ENDBRANCH   6   7
BRANCH   4  14
ATOM     14  N   UNL     1       1.162   9.241  19.906  0.00  0.00    +0.000 N 
ATOM     15  C   UNL     1       1.712   8.557  18.833  0.00  0.00    +0.000 C 
ATOM     16  O   UNL     1       1.607   8.943  17.671  0.00  0.00    +0.000 OA
ATOM     17  N   UNL     1       2.367   7.396  19.194  0.00  0.00    +0.000 N 
ATOM     18  H   UNL     1       1.049   8.751  20.775  0.00  0.00    +0.000 HD
ATOM     19  H   UNL     1       2.107   6.964  20.064  0.00  0.00    +0.000 HD
BRANCH  17  20
ATOM     20  C   UNL     1       3.103   6.612  18.267  0.00  0.00    +0.000 A 
ATOM     21  C   UNL     1       2.853   5.251  18.071  0.00  0.00    +0.000 A 
ATOM     22  C   UNL     1       3.666   4.470  17.246  0.00  0.00    +0.000 A 
ATOM     23  C   UNL     1       4.719   5.069  16.574  0.00  0.00    +0.000 A 
ATOM     24 BR   UNL     1       5.844   4.015  15.478  0.00  0.00    +0.000 Br
ATOM     25  C   UNL     1       4.956   6.436  16.709  0.00  0.00    +0.000 A 
ATOM     26  C   UNL     1       4.146   7.212  17.553  0.00  0.00    +0.000 A 
ENDBRANCH  17  20
ENDBRANCH   4  14
BRANCH   1  28
ATOM     27  C   UNL     1      -0.573  15.419  19.947  0.00  0.00    +0.000 C 
ATOM     28  O   UNL     1      -1.327  14.255  19.615  0.00  0.00    +0.000 OA
ENDBRANCH   1  28
TORSDOF 4
ENDMDL
MODEL 9
REMARK VINA RESULT:      -7.2      5.825      8.937
REMARK  Name = 
REMARK  6 active torsions:
REMARK  status: ('A' for Active; 'I' for Inactive)
REMARK    1  A    between atoms: C_1  and  O_2
REMARK    2  A    between atoms: O_2  and  C_3
REMARK    3  A    between atoms: C_6  and  N_7
REMARK    4  A    between atoms: N_10  and  C_11
REMARK    5  A    between atoms: C_19  and  C_20
REMARK    6  A    between atoms: N_25  and  C_26
REMARK                            x       y       z     vdW  Elec       q    Type
REMARK                         _______ _______ _______ _____ _____    ______ ____
ROOT
ATOM      1  C   UNL     1      -0.559  11.269  22.248  0.00  0.00    +0.000 A 
ATOM      2  C   UNL     1      -0.454  10.215  23.163  0.00  0.00    +0.000 A 
ATOM      3  C   UNL     1       0.246   9.059  22.846  0.00  0.00    +0.000 A 
ATOM      4  C   UNL     1       0.903   8.936  21.631  0.00  0.00    +0.000 A 
ATOM      5  C   UNL     1       0.850  10.007  20.735  0.00  0.00    +0.000 A 
ATOM      6  C   UNL     1       0.126  11.198  21.011  0.00  0.00    +0.000 A 
ENDROOT
BRANCH   6   7
ATOM      7  C   UNL     1       0.135  12.271  19.971  0.00  0.00    +0.000 A 
ATOM      8  C   UNL     1      -0.755  12.514  18.927  0.00  0.00    +0.000 A 
ATOM      9 BR   UNL     1      -2.387  11.703  18.465  0.00  0.00    +0.000 Br
ATOM     10  C   UNL     1      -0.230  13.557  18.162  0.00  0.00    +0.000 A 
ATOM     11  N   UNL     1       0.903  14.018  18.675  0.00  0.00    +0.000 NA
ATOM     12  N   UNL     1       1.104  13.253  19.775  0.00  0.00    +0.000 N 
ATOM     13  C   UNL     1       2.302  13.546  20.529  0.00  0.00    +0.000 C 
ENDBRANCH   6   7
BRANCH   4  14
ATOM     14  N   UNL     1       1.607   7.759  21.266  0.00  0.00    +0.000 N 
ATOM     15  C   UNL     1       2.019   7.491  19.969  0.00  0.00    +0.000 C 
ATOM     16  O   UNL     1       1.688   8.181  19.008  0.00  0.00    +0.000 OA
ATOM     17  N   UNL     1       2.816   6.369  19.863  0.00  0.00    +0.000 N 
ATOM     18  H   UNL     1       1.682   7.028  21.950  0.00  0.00    +0.000 HD
ATOM     19  H   UNL     1       2.744   5.674  20.586  0.00  0.00    +0.000 HD
BRANCH  17  20
ATOM     20  C   UNL     1       3.444   5.987  18.648  0.00  0.00    +0.000 A 
ATOM     21  C   UNL     1       3.404   4.677  18.163  0.00  0.00    +0.000 A 
ATOM     22  C   UNL     1       4.130   4.295  17.031  0.00  0.00    +0.000 A 
ATOM     23  C   UNL     1       4.870   5.248  16.351  0.00  0.00    +0.000 A 
ATOM     24 BR   UNL     1       5.879   4.734  14.836  0.00  0.00    +0.000 Br
ATOM     25  C   UNL     1       4.883   6.573  16.783  0.00  0.00    +0.000 A 
ATOM     26  C   UNL     1       4.165   6.947  17.931  0.00  0.00    +0.000 A 
ENDBRANCH  17  20
ENDBRANCH   4  14
BRANCH   1  28
ATOM     27  C   UNL     1      -2.692  12.197  22.848  0.00  0.00    +0.000 C 
ATOM     28  O   UNL     1      -1.314  12.375  22.525  0.00  0.00    +0.000 OA
ENDBRANCH   1  28
TORSDOF 4
ENDMDL
