MODEL 1
REMARK VINA RESULT:      -7.5      0.000      0.000
REMARK  Name = 
REMARK  6 active torsions:
REMARK  status: ('A' for Active; 'I' for Inactive)
REMARK    1  A    between atoms: C_1  and  O_2
REMARK    2  A    between atoms: O_2  and  C_3
REMARK    3  A    between atoms: C_7  and  N_8
REMARK    4  A    between atoms: N_11  and  C_12
REMARK    5  A    between atoms: C_14  and  C_15
REMARK    6  A    between atoms: C_14  and  C_16
REMARK                            x       y       z     vdW  Elec       q    Type
REMARK                         _______ _______ _______ _____ _____    ______ ____
ROOT
ATOM      1  N   UNL     1       1.822   4.505  18.750  0.00  0.00    +0.000 N 
ATOM      2  C   UNL     1       2.696   3.768  17.947  0.00  0.00    +0.000 C 
ATOM      3  O   UNL     1       2.266   2.895  17.186  0.00  0.00    +0.000 OA
ATOM      4  N   UNL     1       4.078   3.853  18.164  0.00  0.00    +0.000 N 
ATOM      5  H   UNL     1       0.920   4.043  18.691  0.00  0.00    +0.000 HD
ATOM      6  H   UNL     1       4.208   4.413  18.997  0.00  0.00    +0.000 HD
ENDROOT
BRANCH   4   7
ATOM      7  C   UNL     1       5.320   4.048  17.221  0.00  0.00    +0.000 C 
ATOM      8  C   UNL     1       6.032   5.102  18.092  0.00  0.00    +0.000 C 
ATOM      9  C   UNL     1       6.964   5.919  17.268  0.00  0.00    +0.000 C 
ATOM     10  C   UNL     1       8.002   4.481  17.346  0.00  0.00    +0.000 C 
ATOM     11  C   UNL     1       5.484   6.686  16.598  0.00  0.00    +0.000 C 
ATOM     12  O   UNL     1       7.485   6.051  15.976  0.00  0.00    +0.000 OA
ATOM     13  C   UNL     1       6.882   5.138  15.135  0.00  0.00    +0.000 A 
ATOM     14  C   UNL     1       7.570   5.275  13.911  0.00  0.00    +0.000 A 
ATOM     15  C   UNL     1       7.143   4.488  12.898  0.00  0.00    +0.000 A 
ATOM     16  C   UNL     1       6.047   3.643  13.151  0.00  0.00    +0.000 A 
ATOM     17 CL   UNL     1       5.529   2.725  11.772  0.00  0.00    +0.000 Cl
ATOM     18  C   UNL     1       5.364   3.478  14.441  0.00  0.00    +0.000 A 
ATOM     19  C   UNL     1       5.747   4.238  15.546  0.00  0.00    +0.000 A 
ENDBRANCH   4   7
BRANCH   1  24
ATOM     20  C   UNL     1       1.940   8.318  18.874  0.00  0.00    +0.000 A 
ATOM     21  C   UNL     1       1.685   8.574  20.216  0.00  0.00    +0.000 A 
ATOM     22  C   UNL     1       1.396   7.510  21.063  0.00  0.00    +0.000 A 
ATOM     23  C   UNL     1       1.375   6.175  20.601  0.00  0.00    +0.000 A 
ATOM     24  C   UNL     1       1.665   5.855  19.280  0.00  0.00    +0.000 A 
ATOM     25  C   UNL     1       1.924   6.976  18.412  0.00  0.00    +0.000 A 
BRANCH  20  27
ATOM     26  C   UNL     1       1.444  10.633  18.411  0.00  0.00    +0.000 C 
ATOM     27  O   UNL     1       2.218   9.469  18.188  0.00  0.00    +0.000 OA
ENDBRANCH  20  27
ENDBRANCH   1  24
TORSDOF 3
ENDMDL
MODEL 2
REMARK VINA RESULT:      -7.4      1.179      1.698
REMARK  Name = 
REMARK  6 active torsions:
REMARK  status: ('A' for Active; 'I' for Inactive)
REMARK    1  A    between atoms: C_1  and  O_2
REMARK    2  A    between atoms: O_2  and  C_3
REMARK    3  A    between atoms: C_7  and  N_8
REMARK    4  A    between atoms: N_11  and  C_12
REMARK    5  A    between atoms: C_14  and  C_15
REMARK    6  A    between atoms: C_14  and  C_16
REMARK                            x       y       z     vdW  Elec       q    Type
REMARK                         _______ _______ _______ _____ _____    ______ ____
ROOT
ATOM      1  N   UNL     1       1.739   5.359  18.768  0.00  0.00    +0.000 N 
ATOM      2  C   UNL     1       2.535   4.473  18.038  0.00  0.00    +0.000 C 
ATOM      3  O   UNL     1       2.018   3.595  17.337  0.00  0.00    +0.000 OA
ATOM      4  N   UNL     1       3.916   4.423  18.270  0.00  0.00    +0.000 N 
ATOM      5  H   UNL     1       0.792   4.994  18.728  0.00  0.00    +0.000 HD
ATOM      6  H   UNL     1       4.099   5.028  19.061  0.00  0.00    +0.000 HD
ENDROOT
BRANCH   4   7
ATOM      7  C   UNL     1       5.179   4.410  17.337  0.00  0.00    +0.000 C 
ATOM      8  C   UNL     1       6.029   5.378  18.184  0.00  0.00    +0.000 C 
ATOM      9  C   UNL     1       7.075   6.027  17.348  0.00  0.00    +0.000 C 
ATOM     10  C   UNL     1       7.895   4.458  17.479  0.00  0.00    +0.000 C 
ATOM     11  C   UNL     1       5.725   6.978  16.639  0.00  0.00    +0.000 C 
ATOM     12  O   UNL     1       7.618   6.044  16.059  0.00  0.00    +0.000 OA
ATOM     13  C   UNL     1       6.896   5.201  15.238  0.00  0.00    +0.000 A 
ATOM     14  C   UNL     1       7.605   5.201  14.018  0.00  0.00    +0.000 A 
ATOM     15  C   UNL     1       7.077   4.454  13.023  0.00  0.00    +0.000 A 
ATOM     16  C   UNL     1       5.870   3.782  13.289  0.00  0.00    +0.000 A 
ATOM     17 CL   UNL     1       5.235   2.907  11.931  0.00  0.00    +0.000 Cl
ATOM     18  C   UNL     1       5.161   3.755  14.575  0.00  0.00    +0.000 A 
ATOM     19  C   UNL     1       5.641   4.487  15.661  0.00  0.00    +0.000 A 
ENDBRANCH   4   7
BRANCH   1  24
ATOM     20  C   UNL     1       1.317   8.380  21.062  0.00  0.00    +0.000 A 
ATOM     21  C   UNL     1       1.385   9.439  20.165  0.00  0.00    +0.000 A 
ATOM     22  C   UNL     1       1.647   9.173  18.826  0.00  0.00    +0.000 A 
ATOM     23  C   UNL     1       1.826   7.856  18.350  0.00  0.00    +0.000 A 
ATOM     24  C   UNL     1       1.726   6.755  19.192  0.00  0.00    +0.000 A 
ATOM     25  C   UNL     1       1.492   7.056  20.582  0.00  0.00    +0.000 A 
BRANCH  20  27
ATOM     26  C   UNL     1      -0.231   9.358  22.632  0.00  0.00    +0.000 C 
ATOM     27  O   UNL     1       1.039   8.814  22.331  0.00  0.00    +0.000 OA
ENDBRANCH  20  27
ENDBRANCH   1  24
TORSDOF 3
ENDMDL
MODEL 3
REMARK VINA RESULT:      -7.1      5.407      9.956
REMARK  Name = 
REMARK  6 active torsions:
REMARK  status: ('A' for Active; 'I' for Inactive)
REMARK    1  A    between atoms: C_1  and  O_2
REMARK    2  A    between atoms: O_2  and  C_3
REMARK    3  A    between atoms: C_7  and  N_8
REMARK    4  A    between atoms: N_11  and  C_12
REMARK    5  A    between atoms: C_14  and  C_15
REMARK    6  A    between atoms: C_14  and  C_16
REMARK                            x       y       z     vdW  Elec       q    Type
REMARK                         _______ _______ _______ _____ _____    ______ ____
ROOT
ATOM      1  N   UNL     1       1.799   7.560  21.302  0.00  0.00    +0.000 N 
ATOM      2  C   UNL     1       1.202   8.752  21.719  0.00  0.00    +0.000 C 
ATOM      3  O   UNL     1       1.682   9.400  22.656  0.00  0.00    +0.000 OA
ATOM      4  N   UNL     1      -0.065   9.104  21.235  0.00  0.00    +0.000 N 
ATOM      5  H   UNL     1       2.486   7.319  22.010  0.00  0.00    +0.000 HD
ATOM      6  H   UNL     1      -0.395   8.318  20.688  0.00  0.00    +0.000 HD
ENDROOT
BRANCH   4   7
ATOM      7  C   UNL     1      -0.680  10.426  20.650  0.00  0.00    +0.000 C 
ATOM      8  C   UNL     1       0.203  10.481  19.386  0.00  0.00    +0.000 C 
ATOM      9  C   UNL     1       0.286  11.872  18.865  0.00  0.00    +0.000 C 
ATOM     10  C   UNL     1      -1.354  11.551  18.267  0.00  0.00    +0.000 C 
ATOM     11  C   UNL     1       1.349  12.194  20.278  0.00  0.00    +0.000 C 
ATOM     12  O   UNL     1      -0.196  13.170  19.072  0.00  0.00    +0.000 OA
ATOM     13  C   UNL     1      -0.992  13.197  20.199  0.00  0.00    +0.000 A 
ATOM     14  C   UNL     1      -1.517  14.506  20.231  0.00  0.00    +0.000 A 
ATOM     15  C   UNL     1      -2.326  14.798  21.274  0.00  0.00    +0.000 A 
ATOM     16  C   UNL     1      -2.537  13.788  22.232  0.00  0.00    +0.000 A 
ATOM     17 CL   UNL     1      -3.531  14.278  23.567  0.00  0.00    +0.000 Cl
ATOM     18  C   UNL     1      -2.019  12.415  22.168  0.00  0.00    +0.000 A 
ATOM     19  C   UNL     1      -1.187  12.022  21.120  0.00  0.00    +0.000 A 
ENDBRANCH   4   7
BRANCH   1  24
ATOM     20  C   UNL     1       2.235   4.546  18.999  0.00  0.00    +0.000 A 
ATOM     21  C   UNL     1       2.762   5.130  17.854  0.00  0.00    +0.000 A 
ATOM     22  C   UNL     1       2.901   6.512  17.802  0.00  0.00    +0.000 A 
ATOM     23  C   UNL     1       2.540   7.337  18.890  0.00  0.00    +0.000 A 
ATOM     24  C   UNL     1       2.049   6.807  20.077  0.00  0.00    +0.000 A 
ATOM     25  C   UNL     1       1.877   5.376  20.095  0.00  0.00    +0.000 A 
BRANCH  20  27
ATOM     26  C   UNL     1       0.931   2.520  18.914  0.00  0.00    +0.000 C 
ATOM     27  O   UNL     1       2.180   3.183  18.889  0.00  0.00    +0.000 OA
ENDBRANCH  20  27
ENDBRANCH   1  24
TORSDOF 3
ENDMDL
MODEL 4
REMARK VINA RESULT:      -7.0      3.157      7.407
REMARK  Name = 
REMARK  6 active torsions:
REMARK  status: ('A' for Active; 'I' for Inactive)
REMARK    1  A    between atoms: C_1  and  O_2
REMARK    2  A    between atoms: O_2  and  C_3
REMARK    3  A    between atoms: C_7  and  N_8
REMARK    4  A    between atoms: N_11  and  C_12
REMARK    5  A    between atoms: C_14  and  C_15
REMARK    6  A    between atoms: C_14  and  C_16
REMARK                            x       y       z     vdW  Elec       q    Type
REMARK                         _______ _______ _______ _____ _____    ______ ____
ROOT
ATOM      1  N   UNL     1       7.071   4.068  13.569  0.00  0.00    +0.000 N 
ATOM      2  C   UNL     1       6.849   4.755  14.765  0.00  0.00    +0.000 C 
ATOM      3  O   UNL     1       7.533   5.740  15.060  0.00  0.00    +0.000 OA
ATOM      4  N   UNL     1       6.009   4.201  15.741  0.00  0.00    +0.000 N 
ATOM      5  H   UNL     1       7.944   4.424  13.192  0.00  0.00    +0.000 HD
ATOM      6  H   UNL     1       5.759   3.275  15.417  0.00  0.00    +0.000 HD
ENDROOT
BRANCH   4   7
ATOM      7  C   UNL     1       4.834   4.767  16.617  0.00  0.00    +0.000 C 
ATOM      8  C   UNL     1       5.583   6.019  17.118  0.00  0.00    +0.000 C 
ATOM      9  C   UNL     1       4.988   6.512  18.390  0.00  0.00    +0.000 C 
ATOM     10  C   UNL     1       3.704   7.134  17.334  0.00  0.00    +0.000 C 
ATOM     11  C   UNL     1       5.765   5.081  19.150  0.00  0.00    +0.000 C 
ATOM     12  O   UNL     1       3.942   6.285  19.291  0.00  0.00    +0.000 OA
ATOM     13  C   UNL     1       3.230   5.167  18.908  0.00  0.00    +0.000 A 
ATOM     14  C   UNL     1       2.141   5.115  19.803  0.00  0.00    +0.000 A 
ATOM     15  C   UNL     1       1.291   4.075  19.647  0.00  0.00    +0.000 A 
ATOM     16  C   UNL     1       1.590   3.140  18.639  0.00  0.00    +0.000 A 
ATOM     17 CL   UNL     1       0.482   1.807  18.561  0.00  0.00    +0.000 Cl
ATOM     18  C   UNL     1       2.704   3.225  17.685  0.00  0.00    +0.000 A 
ATOM     19  C   UNL     1       3.623   4.272  17.763  0.00  0.00    +0.000 A 
ENDBRANCH   4   7
BRANCH   1  24
ATOM     20  C   UNL     1       4.197   3.205  11.210  0.00  0.00    +0.000 A 
ATOM     21  C   UNL     1       4.583   1.962  10.723  0.00  0.00    +0.000 A 
ATOM     22  C   UNL     1       5.815   1.442  11.102  0.00  0.00    +0.000 A 
ATOM     23  C   UNL     1       6.676   2.133  11.983  0.00  0.00    +0.000 A 
ATOM     24  C   UNL     1       6.324   3.358  12.535  0.00  0.00    +0.000 A 
ATOM     25  C   UNL     1       5.061   3.897  12.100  0.00  0.00    +0.000 A 
BRANCH  20  27
ATOM     26  C   UNL     1       2.830   4.305   9.554  0.00  0.00    +0.000 C 
ATOM     27  O   UNL     1       2.957   3.562  10.751  0.00  0.00    +0.000 OA
ENDBRANCH  20  27
ENDBRANCH   1  24
TORSDOF 3
ENDMDL
MODEL 5
REMARK VINA RESULT:      -7.0      3.191      7.410
REMARK  Name = 
REMARK  6 active torsions:
REMARK  status: ('A' for Active; 'I' for Inactive)
REMARK    1  A    between atoms: C_1  and  O_2
REMARK    2  A    between atoms: O_2  and  C_3
REMARK    3  A    between atoms: C_7  and  N_8
REMARK    4  A    between atoms: N_11  and  C_12
REMARK    5  A    between atoms: C_14  and  C_15
REMARK    6  A    between atoms: C_14  and  C_16
REMARK                            x       y       z     vdW  Elec       q    Type
REMARK                         _______ _______ _______ _____ _____    ______ ____
ROOT
ATOM      1  N   UNL     1       7.366   5.679  15.816  0.00  0.00    +0.000 N 
ATOM      2  C   UNL     1       6.835   5.654  17.108  0.00  0.00    +0.000 C 
ATOM      3  O   UNL     1       6.940   6.638  17.849  0.00  0.00    +0.000 OA
ATOM      4  N   UNL     1       6.385   4.444  17.653  0.00  0.00    +0.000 N 
ATOM      5  H   UNL     1       7.945   6.511  15.760  0.00  0.00    +0.000 HD
ATOM      6  H   UNL     1       6.628   3.719  16.990  0.00  0.00    +0.000 HD
ENDROOT
BRANCH   4   7
ATOM      7  C   UNL     1       5.087   4.012  18.426  0.00  0.00    +0.000 C 
ATOM      8  C   UNL     1       4.903   2.659  17.710  0.00  0.00    +0.000 C 
ATOM      9  C   UNL     1       3.486   2.212  17.789  0.00  0.00    +0.000 C 
ATOM     10  C   UNL     1       3.903   1.795  19.464  0.00  0.00    +0.000 C 
ATOM     11  C   UNL     1       3.153   3.506  16.588  0.00  0.00    +0.000 C 
ATOM     12  O   UNL     1       2.241   2.549  18.333  0.00  0.00    +0.000 OA
ATOM     13  C   UNL     1       2.330   3.762  18.985  0.00  0.00    +0.000 A 
ATOM     14  C   UNL     1       1.068   3.930  19.593  0.00  0.00    +0.000 A 
ATOM     15  C   UNL     1       0.890   5.077  20.288  0.00  0.00    +0.000 A 
ATOM     16  C   UNL     1       1.958   5.993  20.309  0.00  0.00    +0.000 A 
ATOM     17 CL   UNL     1       1.611   7.462  21.165  0.00  0.00    +0.000 Cl
ATOM     18  C   UNL     1       3.283   5.790  19.707  0.00  0.00    +0.000 A 
ATOM     19  C   UNL     1       3.560   4.630  18.984  0.00  0.00    +0.000 A 
ENDBRANCH   4   7
BRANCH   1  24
ATOM     20  C   UNL     1       5.507   3.843  13.033  0.00  0.00    +0.000 A 
ATOM     21  C   UNL     1       6.430   3.877  11.995  0.00  0.00    +0.000 A 
ATOM     22  C   UNL     1       7.624   4.566  12.175  0.00  0.00    +0.000 A 
ATOM     23  C   UNL     1       7.933   5.214  13.392  0.00  0.00    +0.000 A 
ATOM     24  C   UNL     1       7.068   5.177  14.479  0.00  0.00    +0.000 A 
ATOM     25  C   UNL     1       5.821   4.491  14.258  0.00  0.00    +0.000 A 
BRANCH  20  27
ATOM     26  C   UNL     1       4.000   3.016  11.342  0.00  0.00    +0.000 C 
ATOM     27  O   UNL     1       4.398   3.115  12.696  0.00  0.00    +0.000 OA
ENDBRANCH  20  27
ENDBRANCH   1  24
TORSDOF 3
ENDMDL
MODEL 6
REMARK VINA RESULT:      -7.0      5.306      9.871
REMARK  Name = 
REMARK  6 active torsions:
REMARK  status: ('A' for Active; 'I' for Inactive)
REMARK    1  A    between atoms: C_1  and  O_2
REMARK    2  A    between atoms: O_2  and  C_3
REMARK    3  A    between atoms: C_7  and  N_8
REMARK    4  A    between atoms: N_11  and  C_12
REMARK    5  A    between atoms: C_14  and  C_15
REMARK    6  A    between atoms: C_14  and  C_16
REMARK                            x       y       z     vdW  Elec       q    Type
REMARK                         _______ _______ _______ _____ _____    ______ ____
ROOT
ATOM      1  N   UNL     1       1.708   7.808  21.450  0.00  0.00    +0.000 N 
ATOM      2  C   UNL     1       1.107   8.989  21.894  0.00  0.00    +0.000 C 
ATOM      3  O   UNL     1       1.531   9.570  22.898  0.00  0.00    +0.000 OA
ATOM      4  N   UNL     1      -0.114   9.399  21.343  0.00  0.00    +0.000 N 
ATOM      5  H   UNL     1       2.338   7.512  22.188  0.00  0.00    +0.000 HD
ATOM      6  H   UNL     1      -0.421   8.654  20.729  0.00  0.00    +0.000 HD
ENDROOT
BRANCH   4   7
ATOM      7  C   UNL     1      -0.660  10.766  20.795  0.00  0.00    +0.000 C 
ATOM      8  C   UNL     1      -0.675  10.361  19.307  0.00  0.00    +0.000 C 
ATOM      9  C   UNL     1      -0.616  11.565  18.435  0.00  0.00    +0.000 C 
ATOM     10  C   UNL     1      -2.325  11.746  18.880  0.00  0.00    +0.000 C 
ATOM     11  C   UNL     1       1.104  11.682  18.942  0.00  0.00    +0.000 C 
ATOM     12  O   UNL     1      -0.606  12.964  18.467  0.00  0.00    +0.000 OA
ATOM     13  C   UNL     1      -0.583  13.400  19.776  0.00  0.00    +0.000 A 
ATOM     14  C   UNL     1      -0.705  14.802  19.685  0.00  0.00    +0.000 A 
ATOM     15  C   UNL     1      -0.684  15.479  20.855  0.00  0.00    +0.000 A 
ATOM     16  C   UNL     1      -0.514  14.729  22.033  0.00  0.00    +0.000 A 
ATOM     17 CL   UNL     1      -0.431  15.690  23.476  0.00  0.00    +0.000 Cl
ATOM     18  C   UNL     1      -0.429  13.265  22.121  0.00  0.00    +0.000 A 
ATOM     19  C   UNL     1      -0.456  12.486  20.965  0.00  0.00    +0.000 A 
ENDBRANCH   4   7
BRANCH   1  24
ATOM     20  C   UNL     1       2.626   4.949  19.093  0.00  0.00    +0.000 A 
ATOM     21  C   UNL     1       2.934   5.627  17.920  0.00  0.00    +0.000 A 
ATOM     22  C   UNL     1       2.766   7.006  17.873  0.00  0.00    +0.000 A 
ATOM     23  C   UNL     1       2.311   7.739  18.991  0.00  0.00    +0.000 A 
ATOM     24  C   UNL     1       2.029   7.121  20.203  0.00  0.00    +0.000 A 
ATOM     25  C   UNL     1       2.174   5.688  20.219  0.00  0.00    +0.000 A 
BRANCH  20  27
ATOM     26  C   UNL     1       4.160   3.090  19.188  0.00  0.00    +0.000 C 
ATOM     27  O   UNL     1       2.860   3.606  18.974  0.00  0.00    +0.000 OA
ENDBRANCH  20  27
ENDBRANCH   1  24
TORSDOF 3
ENDMDL
MODEL 7
REMARK VINA RESULT:      -7.0      3.246      5.180
REMARK  Name = 
REMARK  6 active torsions:
REMARK  status: ('A' for Active; 'I' for Inactive)
REMARK    1  A    between atoms: C_1  and  O_2
REMARK    2  A    between atoms: O_2  and  C_3
REMARK    3  A    between atoms: C_7  and  N_8
REMARK    4  A    between atoms: N_11  and  C_12
REMARK    5  A    between atoms: C_14  and  C_15
REMARK    6  A    between atoms: C_14  and  C_16
REMARK                            x       y       z     vdW  Elec       q    Type
REMARK                         _______ _______ _______ _____ _____    ______ ____
ROOT
ATOM      1  N   UNL     1       0.733   9.986  18.989  0.00  0.00    +0.000 N 
ATOM      2  C   UNL     1       1.550   9.313  18.076  0.00  0.00    +0.000 C 
ATOM      3  O   UNL     1       2.251   9.944  17.278  0.00  0.00    +0.000 OA
ATOM      4  N   UNL     1       1.409   7.930  17.904  0.00  0.00    +0.000 N 
ATOM      5  H   UNL     1       0.726  10.960  18.704  0.00  0.00    +0.000 HD
ATOM      6  H   UNL     1       0.607   7.648  18.455  0.00  0.00    +0.000 HD
ENDROOT
BRANCH   4   7
ATOM      7  C   UNL     1       2.423   6.732  17.833  0.00  0.00    +0.000 C 
ATOM      8  C   UNL     1       1.490   5.679  18.464  0.00  0.00    +0.000 C 
ATOM      9  C   UNL     1       2.279   4.565  19.055  0.00  0.00    +0.000 C 
ATOM     10  C   UNL     1       2.476   4.053  17.367  0.00  0.00    +0.000 C 
ATOM     11  C   UNL     1       2.716   5.739  20.344  0.00  0.00    +0.000 C 
ATOM     12  O   UNL     1       3.584   4.083  19.206  0.00  0.00    +0.000 OA
ATOM     13  C   UNL     1       4.480   4.984  18.667  0.00  0.00    +0.000 A 
ATOM     14  C   UNL     1       5.731   4.339  18.759  0.00  0.00    +0.000 A 
ATOM     15  C   UNL     1       6.796   5.040  18.309  0.00  0.00    +0.000 A 
ATOM     16  C   UNL     1       6.559   6.341  17.828  0.00  0.00    +0.000 A 
ATOM     17 CL   UNL     1       7.994   7.186  17.339  0.00  0.00    +0.000 Cl
ATOM     18  C   UNL     1       5.247   6.988  17.699  0.00  0.00    +0.000 A 
ATOM     19  C   UNL     1       4.091   6.334  18.125  0.00  0.00    +0.000 A 
ENDBRANCH   4   7
BRANCH   1  24
ATOM     20  C   UNL     1      -0.744  11.008  22.357  0.00  0.00    +0.000 A 
ATOM     21  C   UNL     1      -0.505   9.881  23.134  0.00  0.00    +0.000 A 
ATOM     22  C   UNL     1       0.065   8.760  22.540  0.00  0.00    +0.000 A 
ATOM     23  C   UNL     1       0.425   8.744  21.175  0.00  0.00    +0.000 A 
ATOM     24  C   UNL     1       0.250   9.855  20.360  0.00  0.00    +0.000 A 
ATOM     25  C   UNL     1      -0.376  10.993  20.986  0.00  0.00    +0.000 A 
BRANCH  20  27
ATOM     26  C   UNL     1      -2.691  12.066  23.309  0.00  0.00    +0.000 C 
ATOM     27  O   UNL     1      -1.293  12.021  23.097  0.00  0.00    +0.000 OA
ENDBRANCH  20  27
ENDBRANCH   1  24
TORSDOF 3
ENDMDL
MODEL 8
REMARK VINA RESULT:      -6.9      4.694      8.323
REMARK  Name = 
REMARK  6 active torsions:
REMARK  status: ('A' for Active; 'I' for Inactive)
REMARK    1  A    between atoms: C_1  and  O_2
REMARK    2  A    between atoms: O_2  and  C_3
REMARK    3  A    between atoms: C_7  and  N_8
REMARK    4  A    between atoms: N_11  and  C_12
REMARK    5  A    between atoms: C_14  and  C_15
REMARK    6  A    between atoms: C_14  and  C_16
REMARK                            x       y       z     vdW  Elec       q    Type
REMARK                         _______ _______ _______ _____ _____    ______ ____
ROOT
ATOM      1  N   UNL     1       2.993   6.624  18.060  0.00  0.00    +0.000 N 
ATOM      2  C   UNL     1       2.787   7.982  17.802  0.00  0.00    +0.000 C 
ATOM      3  O   UNL     1       3.300   8.518  16.813  0.00  0.00    +0.000 OA
ATOM      4  N   UNL     1       2.191   8.793  18.776  0.00  0.00    +0.000 N 
ATOM      5  H   UNL     1       3.730   6.321  17.431  0.00  0.00    +0.000 HD
ATOM      6  H   UNL     1       2.087   8.222  19.606  0.00  0.00    +0.000 HD
ENDROOT
BRANCH   4   7
ATOM      7  C   UNL     1       1.043   9.866  18.749  0.00  0.00    +0.000 C 
ATOM      8  C   UNL     1       1.288  10.415  20.169  0.00  0.00    +0.000 C 
ATOM      9  C   UNL     1       0.059  11.064  20.700  0.00  0.00    +0.000 C 
ATOM     10  C   UNL     1       0.510  12.390  19.609  0.00  0.00    +0.000 C 
ATOM     11  C   UNL     1      -0.584   9.395  20.872  0.00  0.00    +0.000 C 
ATOM     12  O   UNL     1      -1.251  11.415  20.357  0.00  0.00    +0.000 OA
ATOM     13  C   UNL     1      -1.545  10.945  19.093  0.00  0.00    +0.000 A 
ATOM     14  C   UNL     1      -2.825  11.464  18.809  0.00  0.00    +0.000 A 
ATOM     15  C   UNL     1      -3.355  11.121  17.614  0.00  0.00    +0.000 A 
ATOM     16  C   UNL     1      -2.600  10.263  16.793  0.00  0.00    +0.000 A 
ATOM     17 CL   UNL     1      -3.392   9.823  15.313  0.00  0.00    +0.000 Cl
ATOM     18  C   UNL     1      -1.250   9.760  17.079  0.00  0.00    +0.000 A 
ATOM     19  C   UNL     1      -0.619  10.076  18.283  0.00  0.00    +0.000 A 
ENDBRANCH   4   7
BRANCH   1  24
ATOM     20  C   UNL     1       1.854   4.000  20.588  0.00  0.00    +0.000 A 
ATOM     21  C   UNL     1       1.180   3.092  19.781  0.00  0.00    +0.000 A 
ATOM     22  C   UNL     1       1.029   3.373  18.428  0.00  0.00    +0.000 A 
ATOM     23  C   UNL     1       1.558   4.547  17.848  0.00  0.00    +0.000 A 
ATOM     24  C   UNL     1       2.278   5.470  18.597  0.00  0.00    +0.000 A 
ATOM     25  C   UNL     1       2.391   5.178  20.003  0.00  0.00    +0.000 A 
BRANCH  20  27
ATOM     26  C   UNL     1       1.497   2.259  22.218  0.00  0.00    +0.000 C 
ATOM     27  O   UNL     1       1.925   3.565  21.884  0.00  0.00    +0.000 OA
ENDBRANCH  20  27
ENDBRANCH   1  24
TORSDOF 3
ENDMDL
MODEL 9
REMARK VINA RESULT:      -6.9      4.463      8.375
REMARK  Name = 
REMARK  6 active torsions:
REMARK  status: ('A' for Active; 'I' for Inactive)
REMARK    1  A    between atoms: C_1  and  O_2
REMARK    2  A    between atoms: O_2  and  C_3
REMARK    3  A    between atoms: C_7  and  N_8
REMARK    4  A    between atoms: N_11  and  C_12
REMARK    5  A    between atoms: C_14  and  C_15
REMARK    6  A    between atoms: C_14  and  C_16
REMARK                            x       y       z     vdW  Elec       q    Type
REMARK                         _______ _______ _______ _____ _____    ______ ____
ROOT
ATOM      1  N   UNL     1       3.102   6.892  18.293  0.00  0.00    +0.000 N 
ATOM      2  C   UNL     1       2.768   8.187  17.889  0.00  0.00    +0.000 C 
ATOM      3  O   UNL     1       3.123   8.612  16.784  0.00  0.00    +0.000 OA
ATOM      4  N   UNL     1       2.230   9.089  18.817  0.00  0.00    +0.000 N 
ATOM      5  H   UNL     1       3.782   6.548  17.622  0.00  0.00    +0.000 HD
ATOM      6  H   UNL     1       2.265   8.633  19.720  0.00  0.00    +0.000 HD
ENDROOT
BRANCH   4   7
ATOM      7  C   UNL     1       1.011  10.080  18.794  0.00  0.00    +0.000 C 
ATOM      8  C   UNL     1       1.213  10.633  20.219  0.00  0.00    +0.000 C 
ATOM      9  C   UNL     1      -0.060  11.191  20.750  0.00  0.00    +0.000 C 
ATOM     10  C   UNL     1       0.301  12.554  19.672  0.00  0.00    +0.000 C 
ATOM     11  C   UNL     1      -0.587   9.480  20.907  0.00  0.00    +0.000 C 
ATOM     12  O   UNL     1      -1.391  11.454  20.405  0.00  0.00    +0.000 OA
ATOM     13  C   UNL     1      -1.647  10.975  19.136  0.00  0.00    +0.000 A 
ATOM     14  C   UNL     1      -2.959  11.406  18.852  0.00  0.00    +0.000 A 
ATOM     15  C   UNL     1      -3.460  11.037  17.652  0.00  0.00    +0.000 A 
ATOM     16  C   UNL     1      -2.644  10.240  16.827  0.00  0.00    +0.000 A 
ATOM     17 CL   UNL     1      -3.400   9.759  15.340  0.00  0.00    +0.000 Cl
ATOM     18  C   UNL     1      -1.264   9.830  17.115  0.00  0.00    +0.000 A 
ATOM     19  C   UNL     1      -0.661  10.178  18.324  0.00  0.00    +0.000 A 
ENDBRANCH   4   7
BRANCH   1  24
ATOM     20  C   UNL     1       2.133   3.309  19.184  0.00  0.00    +0.000 A 
ATOM     21  C   UNL     1       1.284   3.498  20.268  0.00  0.00    +0.000 A 
ATOM     22  C   UNL     1       1.089   4.785  20.757  0.00  0.00    +0.000 A 
ATOM     23  C   UNL     1       1.716   5.906  20.170  0.00  0.00    +0.000 A 
ATOM     24  C   UNL     1       2.541   5.784  19.059  0.00  0.00    +0.000 A 
ATOM     25  C   UNL     1       2.758   4.438  18.592  0.00  0.00    +0.000 A 
BRANCH  20  27
ATOM     26  C   UNL     1       3.438   1.425  18.435  0.00  0.00    +0.000 C 
ATOM     27  O   UNL     1       2.201   1.990  18.823  0.00  0.00    +0.000 OA
ENDBRANCH  20  27
ENDBRANCH   1  24
TORSDOF 3
ENDMDL
