MODEL 1
REMARK VINA RESULT:      -7.1      0.000      0.000
REMARK  Name = 
REMARK  4 active torsions:
REMARK  status: ('A' for Active; 'I' for Inactive)
REMARK    1  A    between atoms: C_1  and  N_2
REMARK    2  A    between atoms: C_4  and  C_5
REMARK    3  A    between atoms: C_5  and  N_6
REMARK    4  A    between atoms: C_7  and  C_9
REMARK                            x       y       z     vdW  Elec       q    Type
REMARK                         _______ _______ _______ _____ _____    ______ ____
ROOT
ATOM      1  N   UNL     1       5.213   3.608  18.599  0.00  0.00    +0.000 N 
ATOM      2  C   UNL     1       4.739   3.598  17.309  0.00  0.00    +0.000 C 
ATOM      3  O   UNL     1       3.615   3.203  17.011  0.00  0.00    +0.000 OA
ATOM      4  H   UNL     1       6.053   4.118  18.831  0.00  0.00    +0.000 HD
ENDROOT
BRANCH   2   5
ATOM      5  C   UNL     1       5.656   4.159  16.261  0.00  0.00    +0.000 A 
ATOM      6  C   UNL     1       6.591   5.084  16.544  0.00  0.00    +0.000 A 
ATOM      7  N   UNL     1       7.417   5.572  15.562  0.00  0.00    +0.000 N 
ATOM      8  C   UNL     1       7.388   5.165  14.245  0.00  0.00    +0.000 A 
ATOM      9  O   UNL     1       8.144   5.662  13.416  0.00  0.00    +0.000 OA
ATOM     10  C   UNL     1       6.388   4.093  13.920  0.00  0.00    +0.000 A 
ATOM     11 BR   UNL     1       6.313   3.432  12.180  0.00  0.00    +0.000 Br
ATOM     12  C   UNL     1       5.587   3.639  14.901  0.00  0.00    +0.000 A 
ATOM     13  H   UNL     1       8.111   6.279  15.778  0.00  0.00    +0.000 HD
ENDBRANCH   2   5
BRANCH   1  14
ATOM     14  C   UNL     1       4.377   3.190  19.701  0.00  0.00    +0.000 C 
BRANCH  14  18
ATOM     15  C   UNL     1       1.921   7.559  20.112  0.00  0.00    +0.000 C 
ATOM     16  N   UNL     1       2.306   6.169  20.153  0.00  0.00    +0.000 N 
ATOM     17  C   UNL     1       3.485   5.621  19.734  0.00  0.00    +0.000 A 
ATOM     18  C   UNL     1       3.394   4.265  19.978  0.00  0.00    +0.000 A 
ATOM     19  C   UNL     1       2.108   4.110  20.549  0.00  0.00    +0.000 A 
ATOM     20  N   UNL     1       1.453   5.266  20.663  0.00  0.00    +0.000 NA
ENDBRANCH  14  18
ENDBRANCH   1  14
TORSDOF 3
ENDMDL
MODEL 2
REMARK VINA RESULT:      -7.1      1.111      1.129
REMARK  Name = 
REMARK  4 active torsions:
REMARK  status: ('A' for Active; 'I' for Inactive)
REMARK    1  A    between atoms: C_1  and  N_2
REMARK    2  A    between atoms: C_4  and  C_5
REMARK    3  A    between atoms: C_5  and  N_6
REMARK    4  A    between atoms: C_7  and  C_9
REMARK                            x       y       z     vdW  Elec       q    Type
REMARK                         _______ _______ _______ _____ _____    ______ ____
ROOT
ATOM      1  N   UNL     1       4.378   3.197  17.821  0.00  0.00    +0.000 N 
ATOM      2  C   UNL     1       5.552   3.906  17.908  0.00  0.00    +0.000 C 
ATOM      3  O   UNL     1       6.129   4.118  18.971  0.00  0.00    +0.000 OA
ATOM      4  H   UNL     1       4.042   2.874  16.926  0.00  0.00    +0.000 HD
ENDROOT
BRANCH   2   5
ATOM      5  C   UNL     1       6.144   4.371  16.610  0.00  0.00    +0.000 A 
ATOM      6  C   UNL     1       7.084   5.331  16.551  0.00  0.00    +0.000 A 
ATOM      7  N   UNL     1       7.609   5.729  15.346  0.00  0.00    +0.000 N 
ATOM      8  C   UNL     1       7.257   5.191  14.127  0.00  0.00    +0.000 A 
ATOM      9  O   UNL     1       7.754   5.611  13.086  0.00  0.00    +0.000 OA
ATOM     10  C   UNL     1       6.250   4.078  14.176  0.00  0.00    +0.000 A 
ATOM     11 BR   UNL     1       5.754   3.245  12.585  0.00  0.00    +0.000 Br
ATOM     12  C   UNL     1       5.748   3.715  15.369  0.00  0.00    +0.000 A 
ATOM     13  H   UNL     1       8.308   6.463  15.306  0.00  0.00    +0.000 HD
ENDBRANCH   2   5
BRANCH   1  14
ATOM     14  C   UNL     1       3.774   2.612  18.996  0.00  0.00    +0.000 C 
BRANCH  14  18
ATOM     15  C   UNL     1       1.505   6.732  20.776  0.00  0.00    +0.000 C 
ATOM     16  N   UNL     1       1.817   5.391  20.344  0.00  0.00    +0.000 N 
ATOM     17  C   UNL     1       3.001   4.937  19.836  0.00  0.00    +0.000 A 
ATOM     18  C   UNL     1       2.822   3.593  19.573  0.00  0.00    +0.000 A 
ATOM     19  C   UNL     1       1.485   3.346  19.964  0.00  0.00    +0.000 A 
ATOM     20  N   UNL     1       0.879   4.435  20.439  0.00  0.00    +0.000 NA
ENDBRANCH  14  18
ENDBRANCH   1  14
TORSDOF 3
ENDMDL
MODEL 3
REMARK VINA RESULT:      -6.9      3.201      6.881
REMARK  Name = 
REMARK  4 active torsions:
REMARK  status: ('A' for Active; 'I' for Inactive)
REMARK    1  A    between atoms: C_1  and  N_2
REMARK    2  A    between atoms: C_4  and  C_5
REMARK    3  A    between atoms: C_5  and  N_6
REMARK    4  A    between atoms: C_7  and  C_9
REMARK                            x       y       z     vdW  Elec       q    Type
REMARK                         _______ _______ _______ _____ _____    ______ ____
ROOT
ATOM      1  N   UNL     1       4.301   4.761  17.406  0.00  0.00    +0.000 N 
ATOM      2  C   UNL     1       2.986   4.722  17.802  0.00  0.00    +0.000 C 
ATOM      3  O   UNL     1       2.223   3.809  17.498  0.00  0.00    +0.000 OA
ATOM      4  H   UNL     1       4.944   5.412  17.833  0.00  0.00    +0.000 HD
ENDROOT
BRANCH   2   5
ATOM      5  C   UNL     1       2.528   5.840  18.693  0.00  0.00    +0.000 A 
ATOM      6  C   UNL     1       2.340   5.674  20.014  0.00  0.00    +0.000 A 
ATOM      7  N   UNL     1       1.924   6.721  20.801  0.00  0.00    +0.000 N 
ATOM      8  C   UNL     1       1.689   7.999  20.340  0.00  0.00    +0.000 A 
ATOM      9  O   UNL     1       1.299   8.880  21.099  0.00  0.00    +0.000 OA
ATOM     10  C   UNL     1       1.947   8.216  18.876  0.00  0.00    +0.000 A 
ATOM     11 BR   UNL     1       1.716   9.924  18.169  0.00  0.00    +0.000 Br
ATOM     12  C   UNL     1       2.346   7.172  18.129  0.00  0.00    +0.000 A 
ATOM     13  H   UNL     1       1.771   6.588  21.795  0.00  0.00    +0.000 HD
ENDBRANCH   2   5
BRANCH   1  14
ATOM     14  C   UNL     1       4.879   3.684  16.635  0.00  0.00    +0.000 C 
BRANCH  14  18
ATOM     15  C   UNL     1       7.621   4.991  12.627  0.00  0.00    +0.000 C 
ATOM     16  N   UNL     1       7.082   4.844  13.957  0.00  0.00    +0.000 N 
ATOM     17  C   UNL     1       6.013   4.085  14.341  0.00  0.00    +0.000 A 
ATOM     18  C   UNL     1       5.882   4.258  15.706  0.00  0.00    +0.000 A 
ATOM     19  C   UNL     1       6.933   5.145  16.037  0.00  0.00    +0.000 A 
ATOM     20  N   UNL     1       7.666   5.494  14.978  0.00  0.00    +0.000 NA
ENDBRANCH  14  18
ENDBRANCH   1  14
TORSDOF 3
ENDMDL
MODEL 4
REMARK VINA RESULT:      -6.9      1.431      1.987
REMARK  Name = 
REMARK  4 active torsions:
REMARK  status: ('A' for Active; 'I' for Inactive)
REMARK    1  A    between atoms: C_1  and  N_2
REMARK    2  A    between atoms: C_4  and  C_5
REMARK    3  A    between atoms: C_5  and  N_6
REMARK    4  A    between atoms: C_7  and  C_9
REMARK                            x       y       z     vdW  Elec       q    Type
REMARK                         _______ _______ _______ _____ _____    ______ ____
ROOT
ATOM      1  N   UNL     1       4.307   5.451  18.412  0.00  0.00    +0.000 N 
ATOM      2  C   UNL     1       4.283   4.624  17.315  0.00  0.00    +0.000 C 
ATOM      3  O   UNL     1       3.422   3.765  17.143  0.00  0.00    +0.000 OA
ATOM      4  H   UNL     1       4.902   6.267  18.423  0.00  0.00    +0.000 HD
ENDROOT
BRANCH   2   5
ATOM      5  C   UNL     1       5.345   4.861  16.281  0.00  0.00    +0.000 A 
ATOM      6  C   UNL     1       6.398   5.667  16.504  0.00  0.00    +0.000 A 
ATOM      7  N   UNL     1       7.356   5.857  15.538  0.00  0.00    +0.000 N 
ATOM      8  C   UNL     1       7.346   5.248  14.301  0.00  0.00    +0.000 A 
ATOM      9  O   UNL     1       8.226   5.482  13.478  0.00  0.00    +0.000 OA
ATOM     10  C   UNL     1       6.207   4.301  14.053  0.00  0.00    +0.000 A 
ATOM     11 BR   UNL     1       6.138   3.384  12.434  0.00  0.00    +0.000 Br
ATOM     12  C   UNL     1       5.281   4.141  15.015  0.00  0.00    +0.000 A 
ATOM     13  H   UNL     1       8.141   6.476  15.706  0.00  0.00    +0.000 HD
ENDBRANCH   2   5
BRANCH   1  14
ATOM     14  C   UNL     1       3.272   5.384  19.417  0.00  0.00    +0.000 C 
BRANCH  14  18
ATOM     15  C   UNL     1       0.665   9.476  20.741  0.00  0.00    +0.000 C 
ATOM     16  N   UNL     1       1.440   8.489  20.029  0.00  0.00    +0.000 N 
ATOM     17  C   UNL     1       1.879   7.282  20.496  0.00  0.00    +0.000 A 
ATOM     18  C   UNL     1       2.570   6.690  19.457  0.00  0.00    +0.000 A 
ATOM     19  C   UNL     1       2.482   7.636  18.408  0.00  0.00    +0.000 A 
ATOM     20  N   UNL     1       1.789   8.723  18.753  0.00  0.00    +0.000 NA
ENDBRANCH  14  18
ENDBRANCH   1  14
TORSDOF 3
ENDMDL
MODEL 5
REMARK VINA RESULT:      -6.9      3.772      5.653
REMARK  Name = 
REMARK  4 active torsions:
REMARK  status: ('A' for Active; 'I' for Inactive)
REMARK    1  A    between atoms: C_1  and  N_2
REMARK    2  A    between atoms: C_4  and  C_5
REMARK    3  A    between atoms: C_5  and  N_6
REMARK    4  A    between atoms: C_7  and  C_9
REMARK                            x       y       z     vdW  Elec       q    Type
REMARK                         _______ _______ _______ _____ _____    ______ ____
ROOT
ATOM      1  N   UNL     1       2.531   7.269  18.300  0.00  0.00    +0.000 N 
ATOM      2  C   UNL     1       3.648   6.612  17.846  0.00  0.00    +0.000 C 
ATOM      3  O   UNL     1       4.385   7.068  16.976  0.00  0.00    +0.000 OA
ATOM      4  H   UNL     1       2.067   6.964  19.144  0.00  0.00    +0.000 HD
ENDROOT
BRANCH   2   5
ATOM      5  C   UNL     1       3.970   5.308  18.515  0.00  0.00    +0.000 A 
ATOM      6  C   UNL     1       5.133   4.664  18.312  0.00  0.00    +0.000 A 
ATOM      7  N   UNL     1       5.398   3.474  18.945  0.00  0.00    +0.000 N 
ATOM      8  C   UNL     1       4.544   2.857  19.834  0.00  0.00    +0.000 A 
ATOM      9  O   UNL     1       4.839   1.782  20.347  0.00  0.00    +0.000 OA
ATOM     10  C   UNL     1       3.264   3.589  20.116  0.00  0.00    +0.000 A 
ATOM     11 BR   UNL     1       2.070   2.866  21.350  0.00  0.00    +0.000 Br
ATOM     12  C   UNL     1       3.028   4.747  19.476  0.00  0.00    +0.000 A 
ATOM     13  H   UNL     1       6.271   2.985  18.778  0.00  0.00    +0.000 HD
ENDBRANCH   2   5
BRANCH   1  14
ATOM     14  C   UNL     1       2.184   8.580  17.802  0.00  0.00    +0.000 C 
BRANCH  14  18
ATOM     15  C   UNL     1      -0.327  10.092  21.889  0.00  0.00    +0.000 C 
ATOM     16  N   UNL     1       0.143   9.888  20.540  0.00  0.00    +0.000 N 
ATOM     17  C   UNL     1       1.172   9.087  20.132  0.00  0.00    +0.000 A 
ATOM     18  C   UNL     1       1.242   9.211  18.758  0.00  0.00    +0.000 A 
ATOM     19  C   UNL     1       0.201  10.118  18.447  0.00  0.00    +0.000 A 
ATOM     20  N   UNL     1      -0.471  10.521  19.527  0.00  0.00    +0.000 NA
ENDBRANCH  14  18
ENDBRANCH   1  14
TORSDOF 3
ENDMDL
MODEL 6
REMARK VINA RESULT:      -6.9      3.014      6.892
REMARK  Name = 
REMARK  4 active torsions:
REMARK  status: ('A' for Active; 'I' for Inactive)
REMARK    1  A    between atoms: C_1  and  N_2
REMARK    2  A    between atoms: C_4  and  C_5
REMARK    3  A    between atoms: C_5  and  N_6
REMARK    4  A    between atoms: C_7  and  C_9
REMARK                            x       y       z     vdW  Elec       q    Type
REMARK                         _______ _______ _______ _____ _____    ______ ____
ROOT
ATOM      1  N   UNL     1       5.889   4.969  16.451  0.00  0.00    +0.000 N 
ATOM      2  C   UNL     1       5.983   4.628  17.779  0.00  0.00    +0.000 C 
ATOM      3  O   UNL     1       7.049   4.363  18.328  0.00  0.00    +0.000 OA
ATOM      4  H   UNL     1       5.037   5.369  16.086  0.00  0.00    +0.000 HD
ENDROOT
BRANCH   2   5
ATOM      5  C   UNL     1       4.703   4.650  18.562  0.00  0.00    +0.000 A 
ATOM      6  C   UNL     1       4.419   5.623  19.446  0.00  0.00    +0.000 A 
ATOM      7  N   UNL     1       3.235   5.615  20.143  0.00  0.00    +0.000 N 
ATOM      8  C   UNL     1       2.249   4.662  19.996  0.00  0.00    +0.000 A 
ATOM      9  O   UNL     1       1.224   4.709  20.668  0.00  0.00    +0.000 OA
ATOM     10  C   UNL     1       2.525   3.598  18.973  0.00  0.00    +0.000 A 
ATOM     11 BR   UNL     1       1.228   2.299  18.658  0.00  0.00    +0.000 Br
ATOM     12  C   UNL     1       3.695   3.627  18.312  0.00  0.00    +0.000 A 
ATOM     13  H   UNL     1       3.031   6.344  20.818  0.00  0.00    +0.000 HD
ENDBRANCH   2   5
BRANCH   1  14
ATOM     14  C   UNL     1       7.070   5.083  15.627  0.00  0.00    +0.000 C 
BRANCH  14  18
ATOM     15  C   UNL     1       4.985   2.815  11.652  0.00  0.00    +0.000 C 
ATOM     16  N   UNL     1       5.850   3.559  12.535  0.00  0.00    +0.000 N 
ATOM     17  C   UNL     1       5.675   3.787  13.870  0.00  0.00    +0.000 A 
ATOM     18  C   UNL     1       6.759   4.538  14.283  0.00  0.00    +0.000 A 
ATOM     19  C   UNL     1       7.525   4.703  13.104  0.00  0.00    +0.000 A 
ATOM     20  N   UNL     1       6.977   4.101  12.046  0.00  0.00    +0.000 NA
ENDBRANCH  14  18
ENDBRANCH   1  14
TORSDOF 3
ENDMDL
MODEL 7
REMARK VINA RESULT:      -6.8      1.456      1.763
REMARK  Name = 
REMARK  4 active torsions:
REMARK  status: ('A' for Active; 'I' for Inactive)
REMARK    1  A    between atoms: C_1  and  N_2
REMARK    2  A    between atoms: C_4  and  C_5
REMARK    3  A    between atoms: C_5  and  N_6
REMARK    4  A    between atoms: C_7  and  C_9
REMARK                            x       y       z     vdW  Elec       q    Type
REMARK                         _______ _______ _______ _____ _____    ______ ____
ROOT
ATOM      1  N   UNL     1       3.853   4.669  17.380  0.00  0.00    +0.000 N 
ATOM      2  C   UNL     1       5.214   4.484  17.414  0.00  0.00    +0.000 C 
ATOM      3  O   UNL     1       5.819   4.148  18.429  0.00  0.00    +0.000 OA
ATOM      4  H   UNL     1       3.371   4.748  16.497  0.00  0.00    +0.000 HD
ENDROOT
BRANCH   2   5
ATOM      5  C   UNL     1       5.941   4.655  16.112  0.00  0.00    +0.000 A 
ATOM      6  C   UNL     1       7.067   5.383  16.007  0.00  0.00    +0.000 A 
ATOM      7  N   UNL     1       7.709   5.515  14.800  0.00  0.00    +0.000 N 
ATOM      8  C   UNL     1       7.296   4.920  13.628  0.00  0.00    +0.000 A 
ATOM      9  O   UNL     1       7.909   5.100  12.580  0.00  0.00    +0.000 OA
ATOM     10  C   UNL     1       6.071   4.058  13.735  0.00  0.00    +0.000 A 
ATOM     11 BR   UNL     1       5.467   3.163  12.218  0.00  0.00    +0.000 Br
ATOM     12  C   UNL     1       5.458   3.954  14.928  0.00  0.00    +0.000 A 
ATOM     13  H   UNL     1       8.550   6.077  14.724  0.00  0.00    +0.000 HD
ENDBRANCH   2   5
BRANCH   1  14
ATOM     14  C   UNL     1       3.040   4.428  18.550  0.00  0.00    +0.000 C 
BRANCH  14  18
ATOM     15  C   UNL     1       1.172   8.172  21.340  0.00  0.00    +0.000 C 
ATOM     16  N   UNL     1       1.767   7.381  20.290  0.00  0.00    +0.000 N 
ATOM     17  C   UNL     1       1.992   6.034  20.291  0.00  0.00    +0.000 A 
ATOM     18  C   UNL     1       2.573   5.735  19.073  0.00  0.00    +0.000 A 
ATOM     19  C   UNL     1       2.648   6.986  18.418  0.00  0.00    +0.000 A 
ATOM     20  N   UNL     1       2.152   7.983  19.152  0.00  0.00    +0.000 NA
ENDBRANCH  14  18
ENDBRANCH   1  14
TORSDOF 3
ENDMDL
MODEL 8
REMARK VINA RESULT:      -6.8      3.758      5.655
REMARK  Name = 
REMARK  4 active torsions:
REMARK  status: ('A' for Active; 'I' for Inactive)
REMARK    1  A    between atoms: C_1  and  N_2
REMARK    2  A    between atoms: C_4  and  C_5
REMARK    3  A    between atoms: C_5  and  N_6
REMARK    4  A    between atoms: C_7  and  C_9
REMARK                            x       y       z     vdW  Elec       q    Type
REMARK                         _______ _______ _______ _____ _____    ______ ____
ROOT
ATOM      1  N   UNL     1       2.520   7.277  18.259  0.00  0.00    +0.000 N 
ATOM      2  C   UNL     1       3.631   6.613  17.799  0.00  0.00    +0.000 C 
ATOM      3  O   UNL     1       4.359   7.058  16.915  0.00  0.00    +0.000 OA
ATOM      4  H   UNL     1       2.066   6.982  19.112  0.00  0.00    +0.000 HD
ENDROOT
BRANCH   2   5
ATOM      5  C   UNL     1       3.959   5.315  18.479  0.00  0.00    +0.000 A 
ATOM      6  C   UNL     1       5.121   4.670  18.274  0.00  0.00    +0.000 A 
ATOM      7  N   UNL     1       5.391   3.487  18.917  0.00  0.00    +0.000 N 
ATOM      8  C   UNL     1       4.544   2.878  19.818  0.00  0.00    +0.000 A 
ATOM      9  O   UNL     1       4.843   1.808  20.339  0.00  0.00    +0.000 OA
ATOM     10  C   UNL     1       3.265   3.612  20.102  0.00  0.00    +0.000 A 
ATOM     11 BR   UNL     1       2.080   2.900  21.351  0.00  0.00    +0.000 Br
ATOM     12  C   UNL     1       3.024   4.764  19.452  0.00  0.00    +0.000 A 
ATOM     13  H   UNL     1       6.264   2.997  18.748  0.00  0.00    +0.000 HD
ENDBRANCH   2   5
BRANCH   1  14
ATOM     14  C   UNL     1       2.170   8.583  17.751  0.00  0.00    +0.000 C 
BRANCH  14  18
ATOM     15  C   UNL     1      -1.304  11.429  20.014  0.00  0.00    +0.000 C 
ATOM     16  N   UNL     1      -0.273  10.465  19.716  0.00  0.00    +0.000 N 
ATOM     17  C   UNL     1       0.331  10.242  18.511  0.00  0.00    +0.000 A 
ATOM     18  C   UNL     1       1.252   9.233  18.718  0.00  0.00    +0.000 A 
ATOM     19  C   UNL     1       1.114   8.925  20.092  0.00  0.00    +0.000 A 
ATOM     20  N   UNL     1       0.195   9.678  20.698  0.00  0.00    +0.000 NA
ENDBRANCH  14  18
ENDBRANCH   1  14
TORSDOF 3
ENDMDL
MODEL 9
REMARK VINA RESULT:      -6.7      2.293      3.521
REMARK  Name = 
REMARK  4 active torsions:
REMARK  status: ('A' for Active; 'I' for Inactive)
REMARK    1  A    between atoms: C_1  and  N_2
REMARK    2  A    between atoms: C_4  and  C_5
REMARK    3  A    between atoms: C_5  and  N_6
REMARK    4  A    between atoms: C_7  and  C_9
REMARK                            x       y       z     vdW  Elec       q    Type
REMARK                         _______ _______ _______ _____ _____    ______ ____
ROOT
ATOM      1  N   UNL     1       3.048   6.069  19.980  0.00  0.00    +0.000 N 
ATOM      2  C   UNL     1       3.139   5.011  19.107  0.00  0.00    +0.000 C 
ATOM      3  O   UNL     1       2.186   4.287  18.831  0.00  0.00    +0.000 OA
ATOM      4  H   UNL     1       3.787   6.755  20.029  0.00  0.00    +0.000 HD
ENDROOT
BRANCH   2   5
ATOM      5  C   UNL     1       4.471   4.810  18.445  0.00  0.00    +0.000 A 
ATOM      6  C   UNL     1       5.607   4.658  19.148  0.00  0.00    +0.000 A 
ATOM      7  N   UNL     1       6.809   4.470  18.509  0.00  0.00    +0.000 N 
ATOM      8  C   UNL     1       6.962   4.397  17.141  0.00  0.00    +0.000 A 
ATOM      9  O   UNL     1       8.072   4.248  16.639  0.00  0.00    +0.000 OA
ATOM     10  C   UNL     1       5.697   4.510  16.341  0.00  0.00    +0.000 A 
ATOM     11 BR   UNL     1       5.792   4.364  14.486  0.00  0.00    +0.000 Br
ATOM     12  C   UNL     1       4.536   4.701  16.993  0.00  0.00    +0.000 A 
ATOM     13  H   UNL     1       7.665   4.369  19.044  0.00  0.00    +0.000 HD
ENDBRANCH   2   5
BRANCH   1  14
ATOM     14  C   UNL     1       1.788   6.421  20.593  0.00  0.00    +0.000 C 
BRANCH  14  18
ATOM     15  C   UNL     1       0.553  11.289  20.854  0.00  0.00    +0.000 C 
ATOM     16  N   UNL     1       0.983   9.983  20.416  0.00  0.00    +0.000 N 
ATOM     17  C   UNL     1       1.048   8.838  21.158  0.00  0.00    +0.000 A 
ATOM     18  C   UNL     1       1.511   7.850  20.310  0.00  0.00    +0.000 A 
ATOM     19  C   UNL     1       1.691   8.519  19.076  0.00  0.00    +0.000 A 
ATOM     20  N   UNL     1       1.362   9.811  19.139  0.00  0.00    +0.000 NA
ENDBRANCH  14  18
ENDBRANCH   1  14
TORSDOF 3
ENDMDL
