MODEL 1
REMARK VINA RESULT:      -7.5      0.000      0.000
REMARK  Name = 
REMARK  7 active torsions:
REMARK  status: ('A' for Active; 'I' for Inactive)
REMARK    1  A    between atoms: C_1  and  O_2
REMARK    2  A    between atoms: O_2  and  C_3
REMARK    3  A    between atoms: C_8  and  SE_9
REMARK    4  A    between atoms: SE_9  and  C_10
REMARK    5  A    between atoms: C_10  and  C_11
REMARK    6  A    between atoms: C_10  and  C_17
REMARK    7  A    between atoms: C_11  and  N_12
REMARK                            x       y       z     vdW  Elec       q    Type
REMARK                         _______ _______ _______ _____ _____    ______ ____
ROOT
ATOM      1  C   UNL     1       3.341   6.512  18.014  0.00  0.00    +0.000 C 
ENDROOT
BRANCH   1   2
ATOM      2  C   UNL     1       2.404   7.636  18.528  0.00  0.00    +0.000 A 
ATOM      3  C   UNL     1       1.990   8.723  17.713  0.00  0.00    +0.000 A 
ATOM      4  C   UNL     1       1.163   9.737  18.210  0.00  0.00    +0.000 A 
ATOM      5  C   UNL     1       0.739   9.707  19.534  0.00  0.00    +0.000 A 
ATOM      6 CL   UNL     1      -0.284  10.995  20.161  0.00  0.00    +0.000 Cl
ATOM      7  C   UNL     1       1.133   8.663  20.365  0.00  0.00    +0.000 A 
ATOM      8  C   UNL     1       1.955   7.633  19.878  0.00  0.00    +0.000 A 
ATOM      9 CL   UNL     1       2.424   6.393  21.031  0.00  0.00    +0.000 Cl
ENDBRANCH   1   2
BRANCH   1  10
ATOM     10 SE   UNL     1       2.311   4.854  17.589  0.00  0.00    +0.000 Se
BRANCH  10  16
ATOM     11  C   UNL     1       3.499   3.192  19.852  0.00  0.00    +0.000 A 
ATOM     12  C   UNL     1       3.353   2.479  21.055  0.00  0.00    +0.000 A 
ATOM     13  C   UNL     1       2.115   2.361  21.679  0.00  0.00    +0.000 A 
ATOM     14  C   UNL     1       0.991   2.940  21.096  0.00  0.00    +0.000 A 
ATOM     15  C   UNL     1       1.103   3.633  19.887  0.00  0.00    +0.000 A 
ATOM     16  C   UNL     1       2.341   3.773  19.234  0.00  0.00    +0.000 A 
BRANCH  11  18
ATOM     17  C   UNL     1       5.665   4.311  19.494  0.00  0.00    +0.000 C 
ATOM     18  O   UNL     1       4.773   3.269  19.386  0.00  0.00    +0.000 OA
ENDBRANCH  11  18
ENDBRANCH  10  16
ENDBRANCH   1  10
BRANCH   1  19
ATOM     19  C   UNL     1       4.323   6.946  16.888  0.00  0.00    +0.000 C 
BRANCH  19  20
ATOM     20  N   UNL     1       5.395   6.010  16.516  0.00  0.00    +0.000 N 
ATOM     21  C   UNL     1       5.352   4.850  15.827  0.00  0.00    +0.000 A 
ATOM     22  C   UNL     1       6.637   4.358  15.742  0.00  0.00    +0.000 A 
ATOM     23  N   UNL     1       7.481   5.204  16.366  0.00  0.00    +0.000 NA
ATOM     24  C   UNL     1       6.693   6.194  16.831  0.00  0.00    +0.000 A 
ENDBRANCH  19  20
ENDBRANCH   1  19
TORSDOF 6
ENDMDL
MODEL 2
REMARK VINA RESULT:      -7.2      2.595      5.038
REMARK  Name = 
REMARK  7 active torsions:
REMARK  status: ('A' for Active; 'I' for Inactive)
REMARK    1  A    between atoms: C_1  and  O_2
REMARK    2  A    between atoms: O_2  and  C_3
REMARK    3  A    between atoms: C_8  and  SE_9
REMARK    4  A    between atoms: SE_9  and  C_10
REMARK    5  A    between atoms: C_10  and  C_11
REMARK    6  A    between atoms: C_10  and  C_17
REMARK    7  A    between atoms: C_11  and  N_12
REMARK                            x       y       z     vdW  Elec       q    Type
REMARK                         _______ _______ _______ _____ _____    ______ ____
ROOT
ATOM      1  C   UNL     1       2.657   5.797  18.609  0.00  0.00    +0.000 C 
ENDROOT
BRANCH   1   2
ATOM      2  C   UNL     1       2.045   6.944  19.456  0.00  0.00    +0.000 A 
ATOM      3  C   UNL     1       1.547   6.746  20.771  0.00  0.00    +0.000 A 
ATOM      4  C   UNL     1       0.978   7.794  21.504  0.00  0.00    +0.000 A 
ATOM      5  C   UNL     1       0.874   9.063  20.943  0.00  0.00    +0.000 A 
ATOM      6 CL   UNL     1       0.138  10.373  21.860  0.00  0.00    +0.000 Cl
ATOM      7  C   UNL     1       1.341   9.291  19.654  0.00  0.00    +0.000 A 
ATOM      8  C   UNL     1       1.923   8.252  18.909  0.00  0.00    +0.000 A 
ATOM      9 CL   UNL     1       2.436   8.648  17.276  0.00  0.00    +0.000 Cl
ENDBRANCH   1   2
BRANCH   1  10
ATOM     10 SE   UNL     1       4.620   5.630  18.935  0.00  0.00    +0.000 Se
BRANCH  10  16
ATOM     11  C   UNL     1       6.312   5.978  16.423  0.00  0.00    +0.000 A 
ATOM     12  C   UNL     1       6.822   5.479  15.212  0.00  0.00    +0.000 A 
ATOM     13  C   UNL     1       6.503   4.201  14.765  0.00  0.00    +0.000 A 
ATOM     14  C   UNL     1       5.646   3.401  15.517  0.00  0.00    +0.000 A 
ATOM     15  C   UNL     1       5.104   3.882  16.713  0.00  0.00    +0.000 A 
ATOM     16  C   UNL     1       5.411   5.168  17.193  0.00  0.00    +0.000 A 
BRANCH  11  18
ATOM     17  C   UNL     1       7.695   7.574  17.693  0.00  0.00    +0.000 C 
ATOM     18  O   UNL     1       6.750   7.219  16.758  0.00  0.00    +0.000 OA
ENDBRANCH  11  18
ENDBRANCH  10  16
ENDBRANCH   1  10
BRANCH   1  19
ATOM     19  C   UNL     1       1.890   4.446  18.693  0.00  0.00    +0.000 C 
BRANCH  19  20
ATOM     20  N   UNL     1       2.081   3.624  19.898  0.00  0.00    +0.000 N 
ATOM     21  C   UNL     1       3.169   2.967  20.353  0.00  0.00    +0.000 A 
ATOM     22  C   UNL     1       2.827   2.350  21.538  0.00  0.00    +0.000 A 
ATOM     23  N   UNL     1       1.539   2.622  21.828  0.00  0.00    +0.000 NA
ATOM     24  C   UNL     1       1.113   3.394  20.808  0.00  0.00    +0.000 A 
ENDBRANCH  19  20
ENDBRANCH   1  19
TORSDOF 6
ENDMDL
MODEL 3
REMARK VINA RESULT:      -7.2      2.533      4.834
REMARK  Name = 
REMARK  7 active torsions:
REMARK  status: ('A' for Active; 'I' for Inactive)
REMARK    1  A    between atoms: C_1  and  O_2
REMARK    2  A    between atoms: O_2  and  C_3
REMARK    3  A    between atoms: C_8  and  SE_9
REMARK    4  A    between atoms: SE_9  and  C_10
REMARK    5  A    between atoms: C_10  and  C_11
REMARK    6  A    between atoms: C_10  and  C_17
REMARK    7  A    between atoms: C_11  and  N_12
REMARK                            x       y       z     vdW  Elec       q    Type
REMARK                         _______ _______ _______ _____ _____    ______ ____
ROOT
ATOM      1  C   UNL     1       2.592   6.387  18.472  0.00  0.00    +0.000 C 
ENDROOT
BRANCH   1   2
ATOM      2  C   UNL     1       1.962   7.408  19.457  0.00  0.00    +0.000 A 
ATOM      3  C   UNL     1       1.598   7.067  20.787  0.00  0.00    +0.000 A 
ATOM      4  C   UNL     1       1.009   8.001  21.646  0.00  0.00    +0.000 A 
ATOM      5  C   UNL     1       0.750   9.294  21.203  0.00  0.00    +0.000 A 
ATOM      6 CL   UNL     1      -0.010  10.459  22.280  0.00  0.00    +0.000 Cl
ATOM      7  C   UNL     1       1.084   9.660  19.903  0.00  0.00    +0.000 A 
ATOM      8  C   UNL     1       1.684   8.737  19.031  0.00  0.00    +0.000 A 
ATOM      9 CL   UNL     1       2.020   9.299  17.401  0.00  0.00    +0.000 Cl
ENDBRANCH   1   2
BRANCH   1  10
ATOM     10 SE   UNL     1       4.349   5.723  19.152  0.00  0.00    +0.000 Se
BRANCH  10  16
ATOM     11  C   UNL     1       6.705   5.863  17.222  0.00  0.00    +0.000 A 
ATOM     12  C   UNL     1       7.358   5.434  16.054  0.00  0.00    +0.000 A 
ATOM     13  C   UNL     1       6.800   4.461  15.231  0.00  0.00    +0.000 A 
ATOM     14  C   UNL     1       5.562   3.912  15.553  0.00  0.00    +0.000 A 
ATOM     15  C   UNL     1       4.879   4.339  16.696  0.00  0.00    +0.000 A 
ATOM     16  C   UNL     1       5.419   5.317  17.550  0.00  0.00    +0.000 A 
BRANCH  11  18
ATOM     17  C   UNL     1       7.730   8.069  17.619  0.00  0.00    +0.000 C 
ATOM     18  O   UNL     1       7.391   6.778  17.955  0.00  0.00    +0.000 OA
ENDBRANCH  11  18
ENDBRANCH  10  16
ENDBRANCH   1  10
BRANCH   1  19
ATOM     19  C   UNL     1       1.632   5.256  18.004  0.00  0.00    +0.000 C 
BRANCH  19  20
ATOM     20  N   UNL     1       1.568   4.033  18.819  0.00  0.00    +0.000 N 
ATOM     21  C   UNL     1       1.123   3.835  20.078  0.00  0.00    +0.000 A 
ATOM     22  C   UNL     1       1.272   2.498  20.376  0.00  0.00    +0.000 A 
ATOM     23  N   UNL     1       1.800   1.859  19.312  0.00  0.00    +0.000 NA
ATOM     24  C   UNL     1       1.973   2.822  18.385  0.00  0.00    +0.000 A 
ENDBRANCH  19  20
ENDBRANCH   1  19
TORSDOF 6
ENDMDL
MODEL 4
REMARK VINA RESULT:      -7.0      2.403      4.852
REMARK  Name = 
REMARK  7 active torsions:
REMARK  status: ('A' for Active; 'I' for Inactive)
REMARK    1  A    between atoms: C_1  and  O_2
REMARK    2  A    between atoms: O_2  and  C_3
REMARK    3  A    between atoms: C_8  and  SE_9
REMARK    4  A    between atoms: SE_9  and  C_10
REMARK    5  A    between atoms: C_10  and  C_11
REMARK    6  A    between atoms: C_10  and  C_17
REMARK    7  A    between atoms: C_11  and  N_12
REMARK                            x       y       z     vdW  Elec       q    Type
REMARK                         _______ _______ _______ _____ _____    ______ ____
ROOT
ATOM      1  C   UNL     1       2.732   6.108  18.664  0.00  0.00    +0.000 C 
ENDROOT
BRANCH   1   2
ATOM      2  C   UNL     1       2.036   7.204  19.513  0.00  0.00    +0.000 A 
ATOM      3  C   UNL     1       1.572   6.972  20.835  0.00  0.00    +0.000 A 
ATOM      4  C   UNL     1       0.926   7.972  21.570  0.00  0.00    +0.000 A 
ATOM      5  C   UNL     1       0.708   9.225  21.006  0.00  0.00    +0.000 A 
ATOM      6 CL   UNL     1      -0.125  10.473  21.926  0.00  0.00    +0.000 Cl
ATOM      7  C   UNL     1       1.139   9.485  19.710  0.00  0.00    +0.000 A 
ATOM      8  C   UNL     1       1.798   8.494  18.962  0.00  0.00    +0.000 A 
ATOM      9 CL   UNL     1       2.257   8.924  17.322  0.00  0.00    +0.000 Cl
ENDBRANCH   1   2
BRANCH   1  10
ATOM     10 SE   UNL     1       4.649   5.903  19.186  0.00  0.00    +0.000 Se
BRANCH  10  16
ATOM     11  C   UNL     1       6.935   4.905  17.433  0.00  0.00    +0.000 A 
ATOM     12  C   UNL     1       7.457   4.583  16.168  0.00  0.00    +0.000 A 
ATOM     13  C   UNL     1       6.695   4.729  15.013  0.00  0.00    +0.000 A 
ATOM     14  C   UNL     1       5.397   5.223  15.102  0.00  0.00    +0.000 A 
ATOM     15  C   UNL     1       4.861   5.576  16.344  0.00  0.00    +0.000 A 
ATOM     16  C   UNL     1       5.605   5.435  17.530  0.00  0.00    +0.000 A 
BRANCH  11  18
ATOM     17  C   UNL     1       8.178   5.522  19.470  0.00  0.00    +0.000 C 
ATOM     18  O   UNL     1       7.773   4.662  18.475  0.00  0.00    +0.000 OA
ENDBRANCH  11  18
ENDBRANCH  10  16
ENDBRANCH   1  10
BRANCH   1  19
ATOM     19  C   UNL     1       1.958   4.762  18.577  0.00  0.00    +0.000 C 
BRANCH  19  20
ATOM     20  N   UNL     1       1.962   3.893  19.764  0.00  0.00    +0.000 N 
ATOM     21  C   UNL     1       0.957   3.517  20.584  0.00  0.00    +0.000 A 
ATOM     22  C   UNL     1       1.484   2.684  21.548  0.00  0.00    +0.000 A 
ATOM     23  N   UNL     1       2.807   2.533  21.333  0.00  0.00    +0.000 NA
ATOM     24  C   UNL     1       3.066   3.285  20.245  0.00  0.00    +0.000 A 
ENDBRANCH  19  20
ENDBRANCH   1  19
TORSDOF 6
ENDMDL
MODEL 5
REMARK VINA RESULT:      -7.0      2.236      4.435
REMARK  Name = 
REMARK  7 active torsions:
REMARK  status: ('A' for Active; 'I' for Inactive)
REMARK    1  A    between atoms: C_1  and  O_2
REMARK    2  A    between atoms: O_2  and  C_3
REMARK    3  A    between atoms: C_8  and  SE_9
REMARK    4  A    between atoms: SE_9  and  C_10
REMARK    5  A    between atoms: C_10  and  C_11
REMARK    6  A    between atoms: C_10  and  C_17
REMARK    7  A    between atoms: C_11  and  N_12
REMARK                            x       y       z     vdW  Elec       q    Type
REMARK                         _______ _______ _______ _____ _____    ______ ____
ROOT
ATOM      1  C   UNL     1       2.768   5.957  17.984  0.00  0.00    +0.000 C 
ENDROOT
BRANCH   1   2
ATOM      2  C   UNL     1       2.195   7.301  18.506  0.00  0.00    +0.000 A 
ATOM      3  C   UNL     1       2.087   8.459  17.691  0.00  0.00    +0.000 A 
ATOM      4  C   UNL     1       1.588   9.665  18.194  0.00  0.00    +0.000 A 
ATOM      5  C   UNL     1       1.198   9.759  19.526  0.00  0.00    +0.000 A 
ATOM      6 CL   UNL     1       0.591  11.284  20.161  0.00  0.00    +0.000 Cl
ATOM      7  C   UNL     1       1.298   8.648  20.357  0.00  0.00    +0.000 A 
ATOM      8  C   UNL     1       1.789   7.427  19.864  0.00  0.00    +0.000 A 
ATOM      9 CL   UNL     1       1.912   6.108  21.017  0.00  0.00    +0.000 Cl
ENDBRANCH   1   2
BRANCH   1  10
ATOM     10 SE   UNL     1       4.693   5.756  18.477  0.00  0.00    +0.000 Se
BRANCH  10  16
ATOM     11  C   UNL     1       6.960   5.700  16.438  0.00  0.00    +0.000 A 
ATOM     12  C   UNL     1       7.496   5.260  15.216  0.00  0.00    +0.000 A 
ATOM     13  C   UNL     1       6.776   4.421  14.371  0.00  0.00    +0.000 A 
ATOM     14  C   UNL     1       5.491   4.023  14.727  0.00  0.00    +0.000 A 
ATOM     15  C   UNL     1       4.922   4.466  15.925  0.00  0.00    +0.000 A 
ATOM     16  C   UNL     1       5.627   5.311  16.802  0.00  0.00    +0.000 A 
BRANCH  11  18
ATOM     17  C   UNL     1       7.668   7.798  17.519  0.00  0.00    +0.000 C 
ATOM     18  O   UNL     1       7.795   6.470  17.184  0.00  0.00    +0.000 OA
ENDBRANCH  11  18
ENDBRANCH  10  16
ENDBRANCH   1  10
BRANCH   1  19
ATOM     19  C   UNL     1       1.902   4.708  18.315  0.00  0.00    +0.000 C 
BRANCH  19  20
ATOM     20  N   UNL     1       2.599   3.430  18.529  0.00  0.00    +0.000 N 
ATOM     21  C   UNL     1       2.725   2.350  17.728  0.00  0.00    +0.000 A 
ATOM     22  C   UNL     1       3.485   1.413  18.395  0.00  0.00    +0.000 A 
ATOM     23  N   UNL     1       3.839   1.901  19.602  0.00  0.00    +0.000 NA
ATOM     24  C   UNL     1       3.279   3.126  19.653  0.00  0.00    +0.000 A 
ENDBRANCH  19  20
ENDBRANCH   1  19
TORSDOF 6
ENDMDL
MODEL 6
REMARK VINA RESULT:      -7.0      2.066      4.221
REMARK  Name = 
REMARK  7 active torsions:
REMARK  status: ('A' for Active; 'I' for Inactive)
REMARK    1  A    between atoms: C_1  and  O_2
REMARK    2  A    between atoms: O_2  and  C_3
REMARK    3  A    between atoms: C_8  and  SE_9
REMARK    4  A    between atoms: SE_9  and  C_10
REMARK    5  A    between atoms: C_10  and  C_11
REMARK    6  A    between atoms: C_10  and  C_17
REMARK    7  A    between atoms: C_11  and  N_12
REMARK                            x       y       z     vdW  Elec       q    Type
REMARK                         _______ _______ _______ _____ _____    ______ ____
ROOT
ATOM      1  C   UNL     1       2.646   6.400  18.023  0.00  0.00    +0.000 C 
ENDROOT
BRANCH   1   2
ATOM      2  C   UNL     1       2.066   7.737  18.554  0.00  0.00    +0.000 A 
ATOM      3  C   UNL     1       2.048   8.928  17.780  0.00  0.00    +0.000 A 
ATOM      4  C   UNL     1       1.541  10.127  18.292  0.00  0.00    +0.000 A 
ATOM      5  C   UNL     1       1.053  10.180  19.594  0.00  0.00    +0.000 A 
ATOM      6 CL   UNL     1       0.436  11.695  20.242  0.00  0.00    +0.000 Cl
ATOM      7  C   UNL     1       1.064   9.036  20.385  0.00  0.00    +0.000 A 
ATOM      8  C   UNL     1       1.562   7.823  19.882  0.00  0.00    +0.000 A 
ATOM      9 CL   UNL     1       1.566   6.457  20.987  0.00  0.00    +0.000 Cl
ENDBRANCH   1   2
BRANCH   1  10
ATOM     10 SE   UNL     1       4.442   6.029  18.814  0.00  0.00    +0.000 Se
BRANCH  10  16
ATOM     11  C   UNL     1       6.900   4.912  17.399  0.00  0.00    +0.000 A 
ATOM     12  C   UNL     1       7.565   4.522  16.223  0.00  0.00    +0.000 A 
ATOM     13  C   UNL     1       6.951   4.625  14.979  0.00  0.00    +0.000 A 
ATOM     14  C   UNL     1       5.663   5.144  14.886  0.00  0.00    +0.000 A 
ATOM     15  C   UNL     1       4.988   5.564  16.037  0.00  0.00    +0.000 A 
ATOM     16  C   UNL     1       5.580   5.468  17.310  0.00  0.00    +0.000 A 
BRANCH  11  18
ATOM     17  C   UNL     1       8.013   5.628  19.478  0.00  0.00    +0.000 C 
ATOM     18  O   UNL     1       7.600   4.705  18.545  0.00  0.00    +0.000 OA
ENDBRANCH  11  18
ENDBRANCH  10  16
ENDBRANCH   1  10
BRANCH   1  19
ATOM     19  C   UNL     1       1.667   5.192  18.094  0.00  0.00    +0.000 C 
BRANCH  19  20
ATOM     20  N   UNL     1       2.241   3.860  18.342  0.00  0.00    +0.000 N 
ATOM     21  C   UNL     1       2.473   3.202  19.498  0.00  0.00    +0.000 A 
ATOM     22  C   UNL     1       3.019   1.976  19.186  0.00  0.00    +0.000 A 
ATOM     23  N   UNL     1       3.125   1.861  17.847  0.00  0.00    +0.000 NA
ATOM     24  C   UNL     1       2.649   3.026  17.365  0.00  0.00    +0.000 A 
ENDBRANCH  19  20
ENDBRANCH   1  19
TORSDOF 6
ENDMDL
MODEL 7
REMARK VINA RESULT:      -7.0      2.344      4.352
REMARK  Name = 
REMARK  7 active torsions:
REMARK  status: ('A' for Active; 'I' for Inactive)
REMARK    1  A    between atoms: C_1  and  O_2
REMARK    2  A    between atoms: O_2  and  C_3
REMARK    3  A    between atoms: C_8  and  SE_9
REMARK    4  A    between atoms: SE_9  and  C_10
REMARK    5  A    between atoms: C_10  and  C_11
REMARK    6  A    between atoms: C_10  and  C_17
REMARK    7  A    between atoms: C_11  and  N_12
REMARK                            x       y       z     vdW  Elec       q    Type
REMARK                         _______ _______ _______ _____ _____    ______ ____
ROOT
ATOM      1  C   UNL     1       2.639   5.987  19.097  0.00  0.00    +0.000 C 
ENDROOT
BRANCH   1   2
ATOM      2  C   UNL     1       1.978   7.258  19.692  0.00  0.00    +0.000 A 
ATOM      3  C   UNL     1       1.401   7.288  20.989  0.00  0.00    +0.000 A 
ATOM      4  C   UNL     1       0.790   8.442  21.492  0.00  0.00    +0.000 A 
ATOM      5  C   UNL     1       0.721   9.593  20.713  0.00  0.00    +0.000 A 
ATOM      6 CL   UNL     1      -0.068  11.036  21.341  0.00  0.00    +0.000 Cl
ATOM      7  C   UNL     1       1.266   9.597  19.434  0.00  0.00    +0.000 A 
ATOM      8  C   UNL     1       1.891   8.449  18.919  0.00  0.00    +0.000 A 
ATOM      9 CL   UNL     1       2.504   8.560  17.276  0.00  0.00    +0.000 Cl
ENDBRANCH   1   2
BRANCH   1  10
ATOM     10 SE   UNL     1       4.607   5.972  19.439  0.00  0.00    +0.000 Se
BRANCH  10  16
ATOM     11  C   UNL     1       6.752   4.854  17.583  0.00  0.00    +0.000 A 
ATOM     12  C   UNL     1       7.179   4.457  16.304  0.00  0.00    +0.000 A 
ATOM     13  C   UNL     1       6.336   4.549  15.200  0.00  0.00    +0.000 A 
ATOM     14  C   UNL     1       5.051   5.062  15.355  0.00  0.00    +0.000 A 
ATOM     15  C   UNL     1       4.610   5.488  16.611  0.00  0.00    +0.000 A 
ATOM     16  C   UNL     1       5.436   5.404  17.746  0.00  0.00    +0.000 A 
BRANCH  11  18
ATOM     17  C   UNL     1       8.209   5.584  19.432  0.00  0.00    +0.000 C 
ATOM     18  O   UNL     1       7.661   4.658  18.573  0.00  0.00    +0.000 OA
ENDBRANCH  11  18
ENDBRANCH  10  16
ENDBRANCH   1  10
BRANCH   1  19
ATOM     19  C   UNL     1       1.929   4.652  19.463  0.00  0.00    +0.000 C 
BRANCH  19  20
ATOM     20  N   UNL     1       2.501   3.405  18.932  0.00  0.00    +0.000 N 
ATOM     21  C   UNL     1       3.302   2.486  19.513  0.00  0.00    +0.000 A 
ATOM     22  C   UNL     1       3.550   1.494  18.588  0.00  0.00    +0.000 A 
ATOM     23  N   UNL     1       2.906   1.783  17.439  0.00  0.00    +0.000 NA
ATOM     24  C   UNL     1       2.283   2.954  17.680  0.00  0.00    +0.000 A 
ENDBRANCH  19  20
ENDBRANCH   1  19
TORSDOF 6
ENDMDL
MODEL 8
REMARK VINA RESULT:      -6.9      1.319      1.637
REMARK  Name = 
REMARK  7 active torsions:
REMARK  status: ('A' for Active; 'I' for Inactive)
REMARK    1  A    between atoms: C_1  and  O_2
REMARK    2  A    between atoms: O_2  and  C_3
REMARK    3  A    between atoms: C_8  and  SE_9
REMARK    4  A    between atoms: SE_9  and  C_10
REMARK    5  A    between atoms: C_10  and  C_11
REMARK    6  A    between atoms: C_10  and  C_17
REMARK    7  A    between atoms: C_11  and  N_12
REMARK                            x       y       z     vdW  Elec       q    Type
REMARK                         _______ _______ _______ _____ _____    ______ ____
ROOT
ATOM      1  C   UNL     1       3.020   6.772  18.472  0.00  0.00    +0.000 C 
ENDROOT
BRANCH   1   2
ATOM      2  C   UNL     1       2.232   8.100  18.624  0.00  0.00    +0.000 A 
ATOM      3  C   UNL     1       2.210   9.099  17.615  0.00  0.00    +0.000 A 
ATOM      4  C   UNL     1       1.511  10.299  17.788  0.00  0.00    +0.000 A 
ATOM      5  C   UNL     1       0.827  10.544  18.974  0.00  0.00    +0.000 A 
ATOM      6 CL   UNL     1      -0.034  12.063  19.196  0.00  0.00    +0.000 Cl
ATOM      7  C   UNL     1       0.834   9.593  19.988  0.00  0.00    +0.000 A 
ATOM      8  C   UNL     1       1.525   8.380  19.826  0.00  0.00    +0.000 A 
ATOM      9 CL   UNL     1       1.500   7.274  21.191  0.00  0.00    +0.000 Cl
ENDBRANCH   1   2
BRANCH   1  10
ATOM     10 SE   UNL     1       1.807   5.269  17.964  0.00  0.00    +0.000 Se
BRANCH  10  16
ATOM     11  C   UNL     1       2.936   2.759  19.276  0.00  0.00    +0.000 A 
ATOM     12  C   UNL     1       3.029   1.888  20.376  0.00  0.00    +0.000 A 
ATOM     13  C   UNL     1       2.318   2.126  21.548  0.00  0.00    +0.000 A 
ATOM     14  C   UNL     1       1.480   3.234  21.633  0.00  0.00    +0.000 A 
ATOM     15  C   UNL     1       1.349   4.103  20.545  0.00  0.00    +0.000 A 
ATOM     16  C   UNL     1       2.058   3.892  19.348  0.00  0.00    +0.000 A 
BRANCH  11  18
ATOM     17  C   UNL     1       4.161   3.234  17.191  0.00  0.00    +0.000 C 
ATOM     18  O   UNL     1       3.726   2.431  18.220  0.00  0.00    +0.000 OA
ENDBRANCH  11  18
ENDBRANCH  10  16
ENDBRANCH   1  10
BRANCH   1  19
ATOM     19  C   UNL     1       4.299   6.871  17.592  0.00  0.00    +0.000 C 
BRANCH  19  20
ATOM     20  N   UNL     1       5.551   6.328  18.141  0.00  0.00    +0.000 N 
ATOM     21  C   UNL     1       6.823   6.427  17.698  0.00  0.00    +0.000 A 
ATOM     22  C   UNL     1       7.634   5.744  18.579  0.00  0.00    +0.000 A 
ATOM     23  N   UNL     1       6.880   5.226  19.570  0.00  0.00    +0.000 NA
ATOM     24  C   UNL     1       5.619   5.594  19.270  0.00  0.00    +0.000 A 
ENDBRANCH  19  20
ENDBRANCH   1  19
TORSDOF 6
ENDMDL
MODEL 9
REMARK VINA RESULT:      -6.9      2.381      4.512
REMARK  Name = 
REMARK  7 active torsions:
REMARK  status: ('A' for Active; 'I' for Inactive)
REMARK    1  A    between atoms: C_1  and  O_2
REMARK    2  A    between atoms: O_2  and  C_3
REMARK    3  A    between atoms: C_8  and  SE_9
REMARK    4  A    between atoms: SE_9  and  C_10
REMARK    5  A    between atoms: C_10  and  C_11
REMARK    6  A    between atoms: C_10  and  C_17
REMARK    7  A    between atoms: C_11  and  N_12
REMARK                            x       y       z     vdW  Elec       q    Type
REMARK                         _______ _______ _______ _____ _____    ______ ____
ROOT
ATOM      1  C   UNL     1       2.785   6.742  18.719  0.00  0.00    +0.000 C 
ENDROOT
BRANCH   1   2
ATOM      2  C   UNL     1       2.002   7.728  19.626  0.00  0.00    +0.000 A 
ATOM      3  C   UNL     1       1.766   7.482  21.004  0.00  0.00    +0.000 A 
ATOM      4  C   UNL     1       1.036   8.377  21.794  0.00  0.00    +0.000 A 
ATOM      5  C   UNL     1       0.507   9.534  21.231  0.00  0.00    +0.000 A 
ATOM      6 CL   UNL     1      -0.429  10.647  22.223  0.00  0.00    +0.000 Cl
ATOM      7  C   UNL     1       0.708   9.803  19.882  0.00  0.00    +0.000 A 
ATOM      8  C   UNL     1       1.447   8.918  19.078  0.00  0.00    +0.000 A 
ATOM      9 CL   UNL     1       1.598   9.340  17.380  0.00  0.00    +0.000 Cl
ENDBRANCH   1   2
BRANCH   1  10
ATOM     10 SE   UNL     1       4.318   7.653  17.820  0.00  0.00    +0.000 Se
BRANCH  10  16
ATOM     11  C   UNL     1       6.293   5.344  17.568  0.00  0.00    +0.000 A 
ATOM     12  C   UNL     1       6.913   4.342  16.803  0.00  0.00    +0.000 A 
ATOM     13  C   UNL     1       6.597   4.158  15.460  0.00  0.00    +0.000 A 
ATOM     14  C   UNL     1       5.664   4.993  14.851  0.00  0.00    +0.000 A 
ATOM     15  C   UNL     1       5.051   6.015  15.582  0.00  0.00    +0.000 A 
ATOM     16  C   UNL     1       5.346   6.223  16.942  0.00  0.00    +0.000 A 
BRANCH  11  18
ATOM     17  C   UNL     1       7.853   5.783  19.424  0.00  0.00    +0.000 C 
ATOM     18  O   UNL     1       6.660   5.373  18.876  0.00  0.00    +0.000 OA
ENDBRANCH  11  18
ENDBRANCH  10  16
ENDBRANCH   1  10
BRANCH   1  19
ATOM     19  C   UNL     1       3.166   5.396  19.399  0.00  0.00    +0.000 C 
BRANCH  19  20
ATOM     20  N   UNL     1       2.511   4.172  18.909  0.00  0.00    +0.000 N 
ATOM     21  C   UNL     1       1.502   3.444  19.432  0.00  0.00    +0.000 A 
ATOM     22  C   UNL     1       1.253   2.390  18.579  0.00  0.00    +0.000 A 
ATOM     23  N   UNL     1       2.094   2.458  17.527  0.00  0.00    +0.000 NA
ATOM     24  C   UNL     1       2.849   3.549  17.762  0.00  0.00    +0.000 A 
ENDBRANCH  19  20
ENDBRANCH   1  19
TORSDOF 6
ENDMDL
