MODEL 1
REMARK VINA RESULT:      -6.9      0.000      0.000
REMARK  Name = 
REMARK  11 active torsions:
REMARK  status: ('A' for Active; 'I' for Inactive)
REMARK    1  A    between atoms: C_1  and  C_2
REMARK    2  A    between atoms: C_2  and  C_3
REMARK    3  A    between atoms: C_3  and  C_4
REMARK    4  A    between atoms: C_4  and  N_5
REMARK    5  A    between atoms: N_5  and  C_6
REMARK    6  A    between atoms: N_15  and  C_16
REMARK    7  A    between atoms: P_21  and  O_23
REMARK    8  A    between atoms: O_23  and  C_24
REMARK    9  A    between atoms: C_24  and  C_25
REMARK   10  A    between atoms: C_24  and  C_26
REMARK   11  A    between atoms: C_29  and  C_30
REMARK                            x       y       z     vdW  Elec       q    Type
REMARK                         _______ _______ _______ _____ _____    ______ ____
ROOT
ATOM      1  C   UNL     1       2.567   6.123  20.033  0.00  0.00    +0.000 A 
ATOM      2  N   UNL     1       3.332   5.898  18.930  0.00  0.00    +0.000 NA
ATOM      3  C   UNL     1       3.406   6.831  17.965  0.00  0.00    +0.000 A 
ATOM      4  N   UNL     1       4.295   6.589  16.936  0.00  0.00    +0.000 N 
ATOM      5  N   UNL     1       2.768   8.013  17.932  0.00  0.00    +0.000 NA
ATOM      6  C   UNL     1       2.062   8.229  19.049  0.00  0.00    +0.000 A 
ATOM      7  C   UNL     1       1.941   7.382  20.136  0.00  0.00    +0.000 A 
ATOM      8  N   UNL     1       1.200   7.987  21.131  0.00  0.00    +0.000 NA
ATOM      9  C   UNL     1       0.881   9.170  20.645  0.00  0.00    +0.000 A 
ATOM     10  N   UNL     1       1.267   9.305  19.338  0.00  0.00    +0.000 N 
ATOM     11  H   UNL     1       5.015   5.960  17.266  0.00  0.00    +0.000 HD
ATOM     12  H   UNL     1       4.607   7.471  16.551  0.00  0.00    +0.000 HD
ENDROOT
BRANCH  10  13
ATOM     13  C   UNL     1       0.907  10.352  18.399  0.00  0.00    +0.000 C 
ATOM     14  O   UNL     1       1.795  11.513  18.604  0.00  0.00    +0.000 OA
ATOM     15  C   UNL     1       0.937  12.664  18.660  0.00  0.00    +0.000 C 
ATOM     16  C   UNL     1       1.494  13.858  19.426  0.00  0.00    +0.000 C 
ATOM     17  O   UNL     1       0.493  14.838  19.685  0.00  0.00    +0.000 OA
ATOM     18  P   UNL     1      -0.920  14.379  20.319  0.00  0.00    +0.000 P 
ATOM     19  O   UNL     1      -1.945  15.448  20.446  0.00  0.00    +0.000 OA
ATOM     20  O   UNL     1      -1.321  13.120  19.375  0.00  0.00    +0.000 OA
ATOM     21  C   UNL     1      -0.311  12.140  19.326  0.00  0.00    +0.000 C 
ATOM     22  C   UNL     1      -0.547  10.892  18.504  0.00  0.00    +0.000 C 
ATOM     23  C   UNL     1      -1.641  10.010  19.075  0.00  0.00    +0.000 C 
ATOM     24  F   UNL     1      -0.943  11.264  17.245  0.00  0.00    +0.000 F 
BRANCH  18  25
ATOM     25  O   UNL     1      -0.526  13.627  21.683  0.00  0.00    +0.000 OA
BRANCH  25  26
ATOM     26  C   UNL     1      -1.511  13.181  22.595  0.00  0.00    +0.000 C 
ATOM     27  C   UNL     1      -1.247  11.727  22.943  0.00  0.00    +0.000 C 
ATOM     28  C   UNL     1      -1.366  14.066  23.833  0.00  0.00    +0.000 C 
ENDBRANCH  25  26
ENDBRANCH  18  25
ENDBRANCH  10  13
BRANCH   1  29
ATOM     29  N   UNL     1       2.392   5.142  21.012  0.00  0.00    +0.000 N 
ATOM     30  H   UNL     1       2.953   5.350  21.834  0.00  0.00    +0.000 HD
BRANCH  29  31
ATOM     31  C   UNL     1       2.361   3.757  20.579  0.00  0.00    +0.000 C 
BRANCH  31  32
ATOM     32  C   UNL     1       0.936   3.359  20.173  0.00  0.00    +0.000 C 
BRANCH  32  34
ATOM     33  C   UNL     1       2.238   2.329  18.268  0.00  0.00    +0.000 C 
ATOM     34  C   UNL     1       0.862   2.733  18.777  0.00  0.00    +0.000 C 
ENDBRANCH  32  34
ENDBRANCH  31  32
ENDBRANCH  29  31
ENDBRANCH   1  29
TORSDOF 7
ENDMDL
MODEL 2
REMARK VINA RESULT:      -6.8      2.320      4.296
REMARK  Name = 
REMARK  11 active torsions:
REMARK  status: ('A' for Active; 'I' for Inactive)
REMARK    1  A    between atoms: C_1  and  C_2
REMARK    2  A    between atoms: C_2  and  C_3
REMARK    3  A    between atoms: C_3  and  C_4
REMARK    4  A    between atoms: C_4  and  N_5
REMARK    5  A    between atoms: N_5  and  C_6
REMARK    6  A    between atoms: N_15  and  C_16
REMARK    7  A    between atoms: P_21  and  O_23
REMARK    8  A    between atoms: O_23  and  C_24
REMARK    9  A    between atoms: C_24  and  C_25
REMARK   10  A    between atoms: C_24  and  C_26
REMARK   11  A    between atoms: C_29  and  C_30
REMARK                            x       y       z     vdW  Elec       q    Type
REMARK                         _______ _______ _______ _____ _____    ______ ____
ROOT
ATOM      1  C   UNL     1       4.065   5.922  18.870  0.00  0.00    +0.000 A 
ATOM      2  N   UNL     1       3.602   4.965  19.721  0.00  0.00    +0.000 NA
ATOM      3  C   UNL     1       2.420   5.132  20.339  0.00  0.00    +0.000 A 
ATOM      4  N   UNL     1       1.956   4.070  21.089  0.00  0.00    +0.000 N 
ATOM      5  N   UNL     1       1.599   6.191  20.239  0.00  0.00    +0.000 NA
ATOM      6  C   UNL     1       2.053   7.094  19.361  0.00  0.00    +0.000 A 
ATOM      7  C   UNL     1       3.221   7.023  18.623  0.00  0.00    +0.000 A 
ATOM      8  N   UNL     1       3.307   8.100  17.762  0.00  0.00    +0.000 NA
ATOM      9  C   UNL     1       2.212   8.800  17.986  0.00  0.00    +0.000 A 
ATOM     10  N   UNL     1       1.494   8.301  19.039  0.00  0.00    +0.000 N 
ATOM     11  H   UNL     1       2.377   3.217  20.744  0.00  0.00    +0.000 HD
ATOM     12  H   UNL     1       0.946   4.096  21.117  0.00  0.00    +0.000 HD
ENDROOT
BRANCH  10  13
ATOM     13  C   UNL     1       0.369   8.907  19.728  0.00  0.00    +0.000 C 
ATOM     14  O   UNL     1      -0.161  10.015  18.908  0.00  0.00    +0.000 OA
ATOM     15  C   UNL     1      -0.312  11.132  19.799  0.00  0.00    +0.000 C 
ATOM     16  C   UNL     1      -0.268  12.504  19.138  0.00  0.00    +0.000 C 
ATOM     17  O   UNL     1      -0.133  13.551  20.096  0.00  0.00    +0.000 OA
ATOM     18  P   UNL     1       1.009  13.442  21.232  0.00  0.00    +0.000 P 
ATOM     19  O   UNL     1       1.000  14.520  22.257  0.00  0.00    +0.000 OA
ATOM     20  O   UNL     1       0.790  11.933  21.789  0.00  0.00    +0.000 OA
ATOM     21  C   UNL     1       0.836  10.968  20.764  0.00  0.00    +0.000 C 
ATOM     22  C   UNL     1       0.672   9.509  21.129  0.00  0.00    +0.000 C 
ATOM     23  C   UNL     1       1.831   8.974  21.946  0.00  0.00    +0.000 C 
ATOM     24  F   UNL     1      -0.460   9.373  21.891  0.00  0.00    +0.000 F 
BRANCH  18  25
ATOM     25  O   UNL     1       2.380  13.272  20.413  0.00  0.00    +0.000 OA
BRANCH  25  26
ATOM     26  C   UNL     1       2.911  14.323  19.628  0.00  0.00    +0.000 C 
ATOM     27  C   UNL     1       4.194  14.823  20.266  0.00  0.00    +0.000 C 
ATOM     28  C   UNL     1       3.192  13.716  18.254  0.00  0.00    +0.000 C 
ENDBRANCH  25  26
ENDBRANCH  18  25
ENDBRANCH  10  13
BRANCH   1  29
ATOM     29  N   UNL     1       5.328   5.827  18.284  0.00  0.00    +0.000 N 
ATOM     30  H   UNL     1       5.284   5.295  17.418  0.00  0.00    +0.000 HD
BRANCH  29  31
ATOM     31  C   UNL     1       6.458   5.557  19.156  0.00  0.00    +0.000 C 
BRANCH  31  32
ATOM     32  C   UNL     1       7.708   6.286  18.647  0.00  0.00    +0.000 C 
BRANCH  32  34
ATOM     33  C   UNL     1       8.040   8.646  17.805  0.00  0.00    +0.000 C 
ATOM     34  C   UNL     1       7.404   7.291  17.531  0.00  0.00    +0.000 C 
ENDBRANCH  32  34
ENDBRANCH  31  32
ENDBRANCH  29  31
ENDBRANCH   1  29
TORSDOF 7
ENDMDL
MODEL 3
REMARK VINA RESULT:      -6.8      1.586      1.841
REMARK  Name = 
REMARK  11 active torsions:
REMARK  status: ('A' for Active; 'I' for Inactive)
REMARK    1  A    between atoms: C_1  and  C_2
REMARK    2  A    between atoms: C_2  and  C_3
REMARK    3  A    between atoms: C_3  and  C_4
REMARK    4  A    between atoms: C_4  and  N_5
REMARK    5  A    between atoms: N_5  and  C_6
REMARK    6  A    between atoms: N_15  and  C_16
REMARK    7  A    between atoms: P_21  and  O_23
REMARK    8  A    between atoms: O_23  and  C_24
REMARK    9  A    between atoms: C_24  and  C_25
REMARK   10  A    between atoms: C_24  and  C_26
REMARK   11  A    between atoms: C_29  and  C_30
REMARK                            x       y       z     vdW  Elec       q    Type
REMARK                         _______ _______ _______ _____ _____    ______ ____
ROOT
ATOM      1  C   UNL     1       2.050   6.738  20.201  0.00  0.00    +0.000 A 
ATOM      2  N   UNL     1       2.735   6.642  19.028  0.00  0.00    +0.000 NA
ATOM      3  C   UNL     1       2.731   7.672  18.164  0.00  0.00    +0.000 A 
ATOM      4  N   UNL     1       3.546   7.553  17.055  0.00  0.00    +0.000 N 
ATOM      5  N   UNL     1       2.084   8.841  18.302  0.00  0.00    +0.000 NA
ATOM      6  C   UNL     1       1.458   8.928  19.483  0.00  0.00    +0.000 A 
ATOM      7  C   UNL     1       1.424   7.970  20.480  0.00  0.00    +0.000 A 
ATOM      8  N   UNL     1       0.752   8.455  21.585  0.00  0.00    +0.000 NA
ATOM      9  C   UNL     1       0.390   9.678  21.251  0.00  0.00    +0.000 A 
ATOM     10  N   UNL     1       0.678   9.955  19.941  0.00  0.00    +0.000 N 
ATOM     11  H   UNL     1       4.292   6.904  17.265  0.00  0.00    +0.000 HD
ATOM     12  H   UNL     1       3.822   8.475  16.744  0.00  0.00    +0.000 HD
ENDROOT
BRANCH  10  13
ATOM     13  C   UNL     1       0.243  11.089  19.146  0.00  0.00    +0.000 C 
ATOM     14  O   UNL     1       0.357  12.319  19.954  0.00  0.00    +0.000 OA
ATOM     15  C   UNL     1      -0.889  13.017  19.792  0.00  0.00    +0.000 C 
ATOM     16  C   UNL     1      -1.261  13.962  20.929  0.00  0.00    +0.000 C 
ATOM     17  O   UNL     1      -2.618  14.389  20.842  0.00  0.00    +0.000 OA
ATOM     18  P   UNL     1      -3.782  13.290  20.627  0.00  0.00    +0.000 P 
ATOM     19  O   UNL     1      -5.151  13.835  20.432  0.00  0.00    +0.000 OA
ATOM     20  O   UNL     1      -3.189  12.405  19.402  0.00  0.00    +0.000 OA
ATOM     21  C   UNL     1      -1.901  11.904  19.672  0.00  0.00    +0.000 C 
ATOM     22  C   UNL     1      -1.223  11.039  18.632  0.00  0.00    +0.000 C 
ATOM     23  C   UNL     1      -1.911   9.702  18.442  0.00  0.00    +0.000 C 
ATOM     24  F   UNL     1      -1.262  11.691  17.427  0.00  0.00    +0.000 F 
BRANCH  18  25
ATOM     25  O   UNL     1      -3.608  12.270  21.855  0.00  0.00    +0.000 OA
BRANCH  25  26
ATOM     26  C   UNL     1      -3.095  12.692  23.104  0.00  0.00    +0.000 C 
ATOM     27  C   UNL     1      -4.198  12.628  24.144  0.00  0.00    +0.000 C 
ATOM     28  C   UNL     1      -1.973  11.713  23.448  0.00  0.00    +0.000 C 
ENDBRANCH  25  26
ENDBRANCH  18  25
ENDBRANCH  10  13
BRANCH   1  29
ATOM     29  N   UNL     1       1.954   5.658  21.080  0.00  0.00    +0.000 N 
ATOM     30  H   UNL     1       2.290   5.915  22.005  0.00  0.00    +0.000 HD
BRANCH  29  31
ATOM     31  C   UNL     1       2.347   4.350  20.586  0.00  0.00    +0.000 C 
BRANCH  31  32
ATOM     32  C   UNL     1       1.116   3.577  20.094  0.00  0.00    +0.000 C 
BRANCH  32  34
ATOM     33  C   UNL     1       2.215   2.141  18.329  0.00  0.00    +0.000 C 
ATOM     34  C   UNL     1       1.184   3.226  18.604  0.00  0.00    +0.000 C 
ENDBRANCH  32  34
ENDBRANCH  31  32
ENDBRANCH  29  31
ENDBRANCH   1  29
TORSDOF 7
ENDMDL
MODEL 4
REMARK VINA RESULT:      -6.6      6.765      9.013
REMARK  Name = 
REMARK  11 active torsions:
REMARK  status: ('A' for Active; 'I' for Inactive)
REMARK    1  A    between atoms: C_1  and  C_2
REMARK    2  A    between atoms: C_2  and  C_3
REMARK    3  A    between atoms: C_3  and  C_4
REMARK    4  A    between atoms: C_4  and  N_5
REMARK    5  A    between atoms: N_5  and  C_6
REMARK    6  A    between atoms: N_15  and  C_16
REMARK    7  A    between atoms: P_21  and  O_23
REMARK    8  A    between atoms: O_23  and  C_24
REMARK    9  A    between atoms: C_24  and  C_25
REMARK   10  A    between atoms: C_24  and  C_26
REMARK   11  A    between atoms: C_29  and  C_30
REMARK                            x       y       z     vdW  Elec       q    Type
REMARK                         _______ _______ _______ _____ _____    ______ ____
ROOT
ATOM      1  C   UNL     1       6.540   3.751  12.389  0.00  0.00    +0.000 A 
ATOM      2  N   UNL     1       7.456   4.685  12.010  0.00  0.00    +0.000 NA
ATOM      3  C   UNL     1       8.000   5.500  12.931  0.00  0.00    +0.000 A 
ATOM      4  N   UNL     1       9.009   6.337  12.498  0.00  0.00    +0.000 N 
ATOM      5  N   UNL     1       7.726   5.531  14.246  0.00  0.00    +0.000 NA
ATOM      6  C   UNL     1       6.861   4.572  14.598  0.00  0.00    +0.000 A 
ATOM      7  C   UNL     1       6.267   3.640  13.767  0.00  0.00    +0.000 A 
ATOM      8  N   UNL     1       5.501   2.761  14.507  0.00  0.00    +0.000 NA
ATOM      9  C   UNL     1       5.633   3.165  15.755  0.00  0.00    +0.000 A 
ATOM     10  N   UNL     1       6.336   4.337  15.840  0.00  0.00    +0.000 N 
ATOM     11  H   UNL     1       9.436   5.937  11.673  0.00  0.00    +0.000 HD
ATOM     12  H   UNL     1       9.626   6.544  13.272  0.00  0.00    +0.000 HD
ENDROOT
BRANCH  10  13
ATOM     13  C   UNL     1       6.500   5.205  16.992  0.00  0.00    +0.000 C 
ATOM     14  O   UNL     1       6.372   4.403  18.225  0.00  0.00    +0.000 OA
ATOM     15  C   UNL     1       5.469   5.126  19.077  0.00  0.00    +0.000 C 
ATOM     16  C   UNL     1       4.724   4.282  20.105  0.00  0.00    +0.000 C 
ATOM     17  O   UNL     1       3.651   5.002  20.706  0.00  0.00    +0.000 OA
ATOM     18  P   UNL     1       2.602   5.793  19.767  0.00  0.00    +0.000 P 
ATOM     19  O   UNL     1       1.588   6.610  20.483  0.00  0.00    +0.000 OA
ATOM     20  O   UNL     1       3.589   6.604  18.766  0.00  0.00    +0.000 OA
ATOM     21  C   UNL     1       4.503   5.760  18.107  0.00  0.00    +0.000 C 
ATOM     22  C   UNL     1       5.476   6.367  17.121  0.00  0.00    +0.000 C 
ATOM     23  C   UNL     1       4.793   6.913  15.882  0.00  0.00    +0.000 C 
ATOM     24  F   UNL     1       6.116   7.418  17.727  0.00  0.00    +0.000 F 
BRANCH  18  25
ATOM     25  O   UNL     1       2.018   4.669  18.778  0.00  0.00    +0.000 OA
BRANCH  25  26
ATOM     26  C   UNL     1       1.912   3.315  19.173  0.00  0.00    +0.000 C 
ATOM     27  C   UNL     1       0.547   3.082  19.795  0.00  0.00    +0.000 C 
ATOM     28  C   UNL     1       2.069   2.494  17.895  0.00  0.00    +0.000 C 
ENDBRANCH  25  26
ENDBRANCH  18  25
ENDBRANCH  10  13
BRANCH   1  29
ATOM     29  N   UNL     1       5.885   2.951  11.451  0.00  0.00    +0.000 N 
ATOM     30  H   UNL     1       6.315   3.045  10.534  0.00  0.00    +0.000 HD
BRANCH  29  31
ATOM     31  C   UNL     1       4.434   2.919  11.488  0.00  0.00    +0.000 C 
BRANCH  31  32
ATOM     32  C   UNL     1       3.858   4.160  10.794  0.00  0.00    +0.000 C 
BRANCH  32  34
ATOM     33  C   UNL     1       2.274   5.061   9.042  0.00  0.00    +0.000 C 
ATOM     34  C   UNL     1       2.938   3.818   9.617  0.00  0.00    +0.000 C 
ENDBRANCH  32  34
ENDBRANCH  31  32
ENDBRANCH  29  31
ENDBRANCH   1  29
TORSDOF 7
ENDMDL
MODEL 5
REMARK VINA RESULT:      -6.5      3.326      5.364
REMARK  Name = 
REMARK  11 active torsions:
REMARK  status: ('A' for Active; 'I' for Inactive)
REMARK    1  A    between atoms: C_1  and  C_2
REMARK    2  A    between atoms: C_2  and  C_3
REMARK    3  A    between atoms: C_3  and  C_4
REMARK    4  A    between atoms: C_4  and  N_5
REMARK    5  A    between atoms: N_5  and  C_6
REMARK    6  A    between atoms: N_15  and  C_16
REMARK    7  A    between atoms: P_21  and  O_23
REMARK    8  A    between atoms: O_23  and  C_24
REMARK    9  A    between atoms: C_24  and  C_25
REMARK   10  A    between atoms: C_24  and  C_26
REMARK   11  A    between atoms: C_29  and  C_30
REMARK                            x       y       z     vdW  Elec       q    Type
REMARK                         _______ _______ _______ _____ _____    ______ ____
ROOT
ATOM      1  C   UNL     1       1.472  10.814  18.581  0.00  0.00    +0.000 A 
ATOM      2  N   UNL     1       2.326  11.853  18.370  0.00  0.00    +0.000 NA
ATOM      3  C   UNL     1       2.312  12.910  19.201  0.00  0.00    +0.000 A 
ATOM      4  N   UNL     1       3.286  13.869  19.000  0.00  0.00    +0.000 N 
ATOM      5  N   UNL     1       1.503  13.098  20.257  0.00  0.00    +0.000 NA
ATOM      6  C   UNL     1       0.709  12.041  20.470  0.00  0.00    +0.000 A 
ATOM      7  C   UNL     1       0.657  10.875  19.729  0.00  0.00    +0.000 A 
ATOM      8  N   UNL     1      -0.225   9.982  20.306  0.00  0.00    +0.000 NA
ATOM      9  C   UNL     1      -0.692  10.606  21.369  0.00  0.00    +0.000 A 
ATOM     10  N   UNL     1      -0.257  11.903  21.431  0.00  0.00    +0.000 N 
ATOM     11  H   UNL     1       4.073  13.443  18.529  0.00  0.00    +0.000 HD
ATOM     12  H   UNL     1       3.481  14.334  19.877  0.00  0.00    +0.000 HD
ENDROOT
BRANCH  10  13
ATOM     13  C   UNL     1      -0.717  12.965  22.307  0.00  0.00    +0.000 C 
ATOM     14  O   UNL     1      -1.450  12.371  23.443  0.00  0.00    +0.000 OA
ATOM     15  C   UNL     1      -2.671  13.120  23.563  0.00  0.00    +0.000 C 
ATOM     16  C   UNL     1      -3.827  12.381  24.225  0.00  0.00    +0.000 C 
ATOM     17  O   UNL     1      -5.065  13.065  24.050  0.00  0.00    +0.000 OA
ATOM     18  P   UNL     1      -5.493  13.563  22.575  0.00  0.00    +0.000 P 
ATOM     19  O   UNL     1      -6.741  14.368  22.505  0.00  0.00    +0.000 OA
ATOM     20  O   UNL     1      -4.142  14.302  22.062  0.00  0.00    +0.000 OA
ATOM     21  C   UNL     1      -3.010  13.468  22.134  0.00  0.00    +0.000 C 
ATOM     22  C   UNL     1      -1.676  14.009  21.668  0.00  0.00    +0.000 C 
ATOM     23  C   UNL     1      -1.633  14.258  20.174  0.00  0.00    +0.000 C 
ATOM     24  F   UNL     1      -1.450  15.211  22.287  0.00  0.00    +0.000 F 
BRANCH  18  25
ATOM     25  O   UNL     1      -5.475  12.231  21.677  0.00  0.00    +0.000 OA
BRANCH  25  26
ATOM     26  C   UNL     1      -6.108  12.179  20.413  0.00  0.00    +0.000 C 
ATOM     27  C   UNL     1      -5.054  12.008  19.333  0.00  0.00    +0.000 C 
ATOM     28  C   UNL     1      -7.034  10.965  20.459  0.00  0.00    +0.000 C 
ENDBRANCH  25  26
ENDBRANCH  18  25
ENDBRANCH  10  13
BRANCH   1  29
ATOM     29  N   UNL     1       1.393   9.743  17.689  0.00  0.00    +0.000 N 
ATOM     30  H   UNL     1       0.465   9.326  17.708  0.00  0.00    +0.000 HD
BRANCH  29  31
ATOM     31  C   UNL     1       2.517   8.824  17.635  0.00  0.00    +0.000 C 
BRANCH  31  32
ATOM     32  C   UNL     1       2.221   7.575  18.474  0.00  0.00    +0.000 C 
BRANCH  32  34
ATOM     33  C   UNL     1       4.340   6.805  17.333  0.00  0.00    +0.000 C 
ATOM     34  C   UNL     1       3.093   6.374  18.091  0.00  0.00    +0.000 C 
ENDBRANCH  32  34
ENDBRANCH  31  32
ENDBRANCH  29  31
ENDBRANCH   1  29
TORSDOF 7
ENDMDL
MODEL 6
REMARK VINA RESULT:      -6.4      6.477      8.630
REMARK  Name = 
REMARK  11 active torsions:
REMARK  status: ('A' for Active; 'I' for Inactive)
REMARK    1  A    between atoms: C_1  and  C_2
REMARK    2  A    between atoms: C_2  and  C_3
REMARK    3  A    between atoms: C_3  and  C_4
REMARK    4  A    between atoms: C_4  and  N_5
REMARK    5  A    between atoms: N_5  and  C_6
REMARK    6  A    between atoms: N_15  and  C_16
REMARK    7  A    between atoms: P_21  and  O_23
REMARK    8  A    between atoms: O_23  and  C_24
REMARK    9  A    between atoms: C_24  and  C_25
REMARK   10  A    between atoms: C_24  and  C_26
REMARK   11  A    between atoms: C_29  and  C_30
REMARK                            x       y       z     vdW  Elec       q    Type
REMARK                         _______ _______ _______ _____ _____    ______ ____
ROOT
ATOM      1  C   UNL     1      -6.172  11.458  18.129  0.00  0.00    +0.000 A 
ATOM      2  N   UNL     1      -6.676  10.254  18.516  0.00  0.00    +0.000 NA
ATOM      3  C   UNL     1      -7.079  10.075  19.786  0.00  0.00    +0.000 A 
ATOM      4  N   UNL     1      -7.693   8.873  20.077  0.00  0.00    +0.000 N 
ATOM      5  N   UNL     1      -7.024  10.971  20.786  0.00  0.00    +0.000 NA
ATOM      6  C   UNL     1      -6.570  12.158  20.367  0.00  0.00    +0.000 A 
ATOM      7  C   UNL     1      -6.172  12.493  19.085  0.00  0.00    +0.000 A 
ATOM      8  N   UNL     1      -5.847  13.834  19.022  0.00  0.00    +0.000 NA
ATOM      9  C   UNL     1      -6.045  14.289  20.244  0.00  0.00    +0.000 A 
ATOM     10  N   UNL     1      -6.351  13.281  21.119  0.00  0.00    +0.000 N 
ATOM     11  H   UNL     1      -8.086   8.491  19.227  0.00  0.00    +0.000 HD
ATOM     12  H   UNL     1      -8.330   9.002  20.852  0.00  0.00    +0.000 HD
ENDROOT
BRANCH  10  13
ATOM     13  C   UNL     1      -6.418  13.339  22.568  0.00  0.00    +0.000 C 
ATOM     14  O   UNL     1      -7.009  14.630  22.974  0.00  0.00    +0.000 OA
ATOM     15  C   UNL     1      -6.151  15.153  24.001  0.00  0.00    +0.000 C 
ATOM     16  C   UNL     1      -6.180  16.668  24.166  0.00  0.00    +0.000 C 
ATOM     17  O   UNL     1      -5.110  17.133  24.986  0.00  0.00    +0.000 OA
ATOM     18  P   UNL     1      -3.605  16.633  24.683  0.00  0.00    +0.000 P 
ATOM     19  O   UNL     1      -2.573  17.076  25.657  0.00  0.00    +0.000 OA
ATOM     20  O   UNL     1      -3.804  15.028  24.540  0.00  0.00    +0.000 OA
ATOM     21  C   UNL     1      -4.778  14.689  23.582  0.00  0.00    +0.000 C 
ATOM     22  C   UNL     1      -5.061  13.226  23.318  0.00  0.00    +0.000 C 
ATOM     23  C   UNL     1      -3.895  12.511  22.665  0.00  0.00    +0.000 C 
ATOM     24  F   UNL     1      -5.301  12.603  24.516  0.00  0.00    +0.000 F 
BRANCH  18  25
ATOM     25  O   UNL     1      -3.340  17.047  23.154  0.00  0.00    +0.000 OA
BRANCH  25  26
ATOM     26  C   UNL     1      -2.064  16.911  22.558  0.00  0.00    +0.000 C 
ATOM     27  C   UNL     1      -2.202  16.154  21.250  0.00  0.00    +0.000 C 
ATOM     28  C   UNL     1      -1.566  18.334  22.308  0.00  0.00    +0.000 C 
ENDBRANCH  25  26
ENDBRANCH  18  25
ENDBRANCH  10  13
BRANCH   1  29
ATOM     29  N   UNL     1      -5.658  11.654  16.845  0.00  0.00    +0.000 N 
ATOM     30  H   UNL     1      -6.402  11.636  16.152  0.00  0.00    +0.000 HD
BRANCH  29  31
ATOM     31  C   UNL     1      -4.430  10.962  16.498  0.00  0.00    +0.000 C 
BRANCH  31  32
ATOM     32  C   UNL     1      -3.436  11.026  17.665  0.00  0.00    +0.000 C 
BRANCH  32  34
ATOM     33  C   UNL     1      -1.038  10.528  18.287  0.00  0.00    +0.000 C 
ATOM     34  C   UNL     1      -2.256  10.062  17.503  0.00  0.00    +0.000 C 
ENDBRANCH  32  34
ENDBRANCH  31  32
ENDBRANCH  29  31
ENDBRANCH   1  29
TORSDOF 7
ENDMDL
MODEL 7
REMARK VINA RESULT:      -6.3      2.253      3.941
REMARK  Name = 
REMARK  11 active torsions:
REMARK  status: ('A' for Active; 'I' for Inactive)
REMARK    1  A    between atoms: C_1  and  C_2
REMARK    2  A    between atoms: C_2  and  C_3
REMARK    3  A    between atoms: C_3  and  C_4
REMARK    4  A    between atoms: C_4  and  N_5
REMARK    5  A    between atoms: N_5  and  C_6
REMARK    6  A    between atoms: N_15  and  C_16
REMARK    7  A    between atoms: P_21  and  O_23
REMARK    8  A    between atoms: O_23  and  C_24
REMARK    9  A    between atoms: C_24  and  C_25
REMARK   10  A    between atoms: C_24  and  C_26
REMARK   11  A    between atoms: C_29  and  C_30
REMARK                            x       y       z     vdW  Elec       q    Type
REMARK                         _______ _______ _______ _____ _____    ______ ____
ROOT
ATOM      1  C   UNL     1       3.831   5.973  18.947  0.00  0.00    +0.000 A 
ATOM      2  N   UNL     1       3.427   5.003  19.814  0.00  0.00    +0.000 NA
ATOM      3  C   UNL     1       2.292   5.163  20.516  0.00  0.00    +0.000 A 
ATOM      4  N   UNL     1       1.880   4.090  21.281  0.00  0.00    +0.000 N 
ATOM      5  N   UNL     1       1.469   6.225  20.492  0.00  0.00    +0.000 NA
ATOM      6  C   UNL     1       1.863   7.141  19.597  0.00  0.00    +0.000 A 
ATOM      7  C   UNL     1       2.975   7.080  18.777  0.00  0.00    +0.000 A 
ATOM      8  N   UNL     1       3.003   8.170  17.930  0.00  0.00    +0.000 NA
ATOM      9  C   UNL     1       1.929   8.868  18.241  0.00  0.00    +0.000 A 
ATOM     10  N   UNL     1       1.286   8.353  19.335  0.00  0.00    +0.000 N 
ATOM     11  H   UNL     1       2.272   3.242  20.894  0.00  0.00    +0.000 HD
ATOM     12  H   UNL     1       0.874   4.118  21.382  0.00  0.00    +0.000 HD
ENDROOT
BRANCH  10  13
ATOM     13  C   UNL     1       0.215   8.952  20.111  0.00  0.00    +0.000 C 
ATOM     14  O   UNL     1      -0.462   9.977  19.293  0.00  0.00    +0.000 OA
ATOM     15  C   UNL     1      -0.572  11.142  20.127  0.00  0.00    +0.000 C 
ATOM     16  C   UNL     1      -0.676  12.469  19.385  0.00  0.00    +0.000 C 
ATOM     17  O   UNL     1      -0.491  13.581  20.256  0.00  0.00    +0.000 OA
ATOM     18  P   UNL     1       0.776  13.600  21.258  0.00  0.00    +0.000 P 
ATOM     19  O   UNL     1       0.825  14.741  22.209  0.00  0.00    +0.000 OA
ATOM     20  O   UNL     1       0.702  12.122  21.925  0.00  0.00    +0.000 OA
ATOM     21  C   UNL     1       0.684  11.096  20.961  0.00  0.00    +0.000 C 
ATOM     22  C   UNL     1       0.640   9.658  21.430  0.00  0.00    +0.000 C 
ATOM     23  C   UNL     1       1.911   9.232  22.138  0.00  0.00    +0.000 C 
ATOM     24  F   UNL     1      -0.390   9.520  22.324  0.00  0.00    +0.000 F 
BRANCH  18  25
ATOM     25  O   UNL     1       2.054  13.441  20.297  0.00  0.00    +0.000 OA
BRANCH  25  26
ATOM     26  C   UNL     1       2.848  14.552  19.927  0.00  0.00    +0.000 C 
ATOM     27  C   UNL     1       4.089  14.591  20.800  0.00  0.00    +0.000 C 
ATOM     28  C   UNL     1       3.225  14.326  18.464  0.00  0.00    +0.000 C 
ENDBRANCH  25  26
ENDBRANCH  18  25
ENDBRANCH  10  13
BRANCH   1  29
ATOM     29  N   UNL     1       5.049   5.885  18.271  0.00  0.00    +0.000 N 
ATOM     30  H   UNL     1       5.177   6.683  17.654  0.00  0.00    +0.000 HD
BRANCH  29  31
ATOM     31  C   UNL     1       5.437   4.588  17.745  0.00  0.00    +0.000 C 
BRANCH  31  32
ATOM     32  C   UNL     1       4.896   4.410  16.320  0.00  0.00    +0.000 C 
BRANCH  32  34
ATOM     33  C   UNL     1       6.949   4.699  14.874  0.00  0.00    +0.000 C 
ATOM     34  C   UNL     1       5.611   5.293  15.292  0.00  0.00    +0.000 C 
ENDBRANCH  32  34
ENDBRANCH  31  32
ENDBRANCH  29  31
ENDBRANCH   1  29
TORSDOF 7
ENDMDL
MODEL 8
REMARK VINA RESULT:      -6.2      4.285      6.318
REMARK  Name = 
REMARK  11 active torsions:
REMARK  status: ('A' for Active; 'I' for Inactive)
REMARK    1  A    between atoms: C_1  and  C_2
REMARK    2  A    between atoms: C_2  and  C_3
REMARK    3  A    between atoms: C_3  and  C_4
REMARK    4  A    between atoms: C_4  and  N_5
REMARK    5  A    between atoms: N_5  and  C_6
REMARK    6  A    between atoms: N_15  and  C_16
REMARK    7  A    between atoms: P_21  and  O_23
REMARK    8  A    between atoms: O_23  and  C_24
REMARK    9  A    between atoms: C_24  and  C_25
REMARK   10  A    between atoms: C_24  and  C_26
REMARK   11  A    between atoms: C_29  and  C_30
REMARK                            x       y       z     vdW  Elec       q    Type
REMARK                         _______ _______ _______ _____ _____    ______ ____
ROOT
ATOM      1  C   UNL     1      -0.606  11.123  18.498  0.00  0.00    +0.000 A 
ATOM      2  N   UNL     1      -0.345  12.092  19.418  0.00  0.00    +0.000 NA
ATOM      3  C   UNL     1      -1.356  12.811  19.937  0.00  0.00    +0.000 A 
ATOM      4  N   UNL     1      -1.034  13.689  20.952  0.00  0.00    +0.000 N 
ATOM      5  N   UNL     1      -2.661  12.709  19.632  0.00  0.00    +0.000 NA
ATOM      6  C   UNL     1      -2.894  11.718  18.763  0.00  0.00    +0.000 A 
ATOM      7  C   UNL     1      -1.959  10.873  18.193  0.00  0.00    +0.000 A 
ATOM      8  N   UNL     1      -2.589   9.923  17.413  0.00  0.00    +0.000 NA
ATOM      9  C   UNL     1      -3.874  10.199  17.514  0.00  0.00    +0.000 A 
ATOM     10  N   UNL     1      -4.093  11.358  18.210  0.00  0.00    +0.000 N 
ATOM     11  H   UNL     1      -0.183  13.375  21.400  0.00  0.00    +0.000 HD
ATOM     12  H   UNL     1      -1.839  13.819  21.550  0.00  0.00    +0.000 HD
ENDROOT
BRANCH  10  13
ATOM     13  C   UNL     1      -5.330  12.106  18.343  0.00  0.00    +0.000 C 
ATOM     14  O   UNL     1      -5.048  13.396  19.002  0.00  0.00    +0.000 OA
ATOM     15  C   UNL     1      -6.033  13.537  20.038  0.00  0.00    +0.000 C 
ATOM     16  C   UNL     1      -5.632  14.434  21.203  0.00  0.00    +0.000 C 
ATOM     17  O   UNL     1      -6.520  14.297  22.309  0.00  0.00    +0.000 OA
ATOM     18  P   UNL     1      -6.896  12.821  22.846  0.00  0.00    +0.000 P 
ATOM     19  O   UNL     1      -7.917  12.770  23.925  0.00  0.00    +0.000 OA
ATOM     20  O   UNL     1      -7.278  12.048  21.470  0.00  0.00    +0.000 OA
ATOM     21  C   UNL     1      -6.252  12.120  20.508  0.00  0.00    +0.000 C 
ATOM     22  C   UNL     1      -6.451  11.426  19.178  0.00  0.00    +0.000 C 
ATOM     23  C   UNL     1      -6.490   9.916  19.304  0.00  0.00    +0.000 C 
ATOM     24  F   UNL     1      -7.655  11.820  18.654  0.00  0.00    +0.000 F 
BRANCH  18  25
ATOM     25  O   UNL     1      -5.481  12.144  23.195  0.00  0.00    +0.000 OA
BRANCH  25  26
ATOM     26  C   UNL     1      -4.452  12.868  23.842  0.00  0.00    +0.000 C 
ATOM     27  C   UNL     1      -4.514  12.597  25.335  0.00  0.00    +0.000 C 
ATOM     28  C   UNL     1      -3.141  12.347  23.254  0.00  0.00    +0.000 C 
ENDBRANCH  25  26
ENDBRANCH  18  25
ENDBRANCH  10  13
BRANCH   1  29
ATOM     29  N   UNL     1       0.423  10.420  17.868  0.00  0.00    +0.000 N 
ATOM     30  H   UNL     1       0.114  10.057  16.969  0.00  0.00    +0.000 HD
BRANCH  29  31
ATOM     31  C   UNL     1       1.231   9.531  18.685  0.00  0.00    +0.000 C 
BRANCH  31  32
ATOM     32  C   UNL     1       2.187   8.720  17.800  0.00  0.00    +0.000 C 
BRANCH  32  34
ATOM     33  C   UNL     1       2.139   7.281  19.877  0.00  0.00    +0.000 C 
ATOM     34  C   UNL     1       2.608   7.390  18.433  0.00  0.00    +0.000 C 
ENDBRANCH  32  34
ENDBRANCH  31  32
ENDBRANCH  29  31
ENDBRANCH   1  29
TORSDOF 7
ENDMDL
MODEL 9
REMARK VINA RESULT:      -6.2      2.236      4.049
REMARK  Name = 
REMARK  11 active torsions:
REMARK  status: ('A' for Active; 'I' for Inactive)
REMARK    1  A    between atoms: C_1  and  C_2
REMARK    2  A    between atoms: C_2  and  C_3
REMARK    3  A    between atoms: C_3  and  C_4
REMARK    4  A    between atoms: C_4  and  N_5
REMARK    5  A    between atoms: N_5  and  C_6
REMARK    6  A    between atoms: N_15  and  C_16
REMARK    7  A    between atoms: P_21  and  O_23
REMARK    8  A    between atoms: O_23  and  C_24
REMARK    9  A    between atoms: C_24  and  C_25
REMARK   10  A    between atoms: C_24  and  C_26
REMARK   11  A    between atoms: C_29  and  C_30
REMARK                            x       y       z     vdW  Elec       q    Type
REMARK                         _______ _______ _______ _____ _____    ______ ____
ROOT
ATOM      1  C   UNL     1       3.724   6.907  18.194  0.00  0.00    +0.000 A 
ATOM      2  N   UNL     1       3.605   5.846  19.039  0.00  0.00    +0.000 NA
ATOM      3  C   UNL     1       2.591   5.803  19.921  0.00  0.00    +0.000 A 
ATOM      4  N   UNL     1       2.461   4.644  20.660  0.00  0.00    +0.000 N 
ATOM      5  N   UNL     1       1.641   6.735  20.106  0.00  0.00    +0.000 NA
ATOM      6  C   UNL     1       1.753   7.742  19.232  0.00  0.00    +0.000 A 
ATOM      7  C   UNL     1       2.711   7.886  18.244  0.00  0.00    +0.000 A 
ATOM      8  N   UNL     1       2.450   9.010  17.486  0.00  0.00    +0.000 NA
ATOM      9  C   UNL     1       1.359   9.529  18.015  0.00  0.00    +0.000 A 
ATOM     10  N   UNL     1       0.982   8.871  19.155  0.00  0.00    +0.000 N 
ATOM     11  H   UNL     1       2.893   3.883  20.153  0.00  0.00    +0.000 HD
ATOM     12  H   UNL     1       1.491   4.521  20.919  0.00  0.00    +0.000 HD
ENDROOT
BRANCH  10  13
ATOM     13  C   UNL     1      -0.015   9.267  20.133  0.00  0.00    +0.000 C 
ATOM     14  O   UNL     1      -0.918  10.265  19.527  0.00  0.00    +0.000 OA
ATOM     15  C   UNL     1      -1.025  11.335  20.480  0.00  0.00    +0.000 C 
ATOM     16  C   UNL     1      -1.387  12.695  19.896  0.00  0.00    +0.000 C 
ATOM     17  O   UNL     1      -1.192  13.746  20.838  0.00  0.00    +0.000 OA
ATOM     18  P   UNL     1       0.204  13.839  21.644  0.00  0.00    +0.000 P 
ATOM     19  O   UNL     1       0.275  14.895  22.688  0.00  0.00    +0.000 OA
ATOM     20  O   UNL     1       0.397  12.313  22.164  0.00  0.00    +0.000 OA
ATOM     21  C   UNL     1       0.343  11.375  21.116  0.00  0.00    +0.000 C 
ATOM     22  C   UNL     1       0.529   9.909  21.440  0.00  0.00    +0.000 C 
ATOM     23  C   UNL     1       1.933   9.586  21.913  0.00  0.00    +0.000 C 
ATOM     24  F   UNL     1      -0.329   9.572  22.455  0.00  0.00    +0.000 F 
BRANCH  18  25
ATOM     25  O   UNL     1       1.329  13.918  20.499  0.00  0.00    +0.000 OA
BRANCH  25  26
ATOM     26  C   UNL     1       2.213  15.018  20.401  0.00  0.00    +0.000 C 
ATOM     27  C   UNL     1       3.608  14.510  20.085  0.00  0.00    +0.000 C 
ATOM     28  C   UNL     1       1.681  15.880  19.257  0.00  0.00    +0.000 C 
ENDBRANCH  25  26
ENDBRANCH  18  25
ENDBRANCH  10  13
BRANCH   1  29
ATOM     29  N   UNL     1       4.814   7.032  17.330  0.00  0.00    +0.000 N 
ATOM     30  H   UNL     1       4.699   7.837  16.719  0.00  0.00    +0.000 HD
BRANCH  29  31
ATOM     31  C   UNL     1       5.330   5.821  16.717  0.00  0.00    +0.000 C 
BRANCH  31  32
ATOM     32  C   UNL     1       6.864   5.848  16.698  0.00  0.00    +0.000 C 
BRANCH  32  34
ATOM     33  C   UNL     1       7.832   5.966  19.029  0.00  0.00    +0.000 C 
ATOM     34  C   UNL     1       7.462   6.753  17.780  0.00  0.00    +0.000 C 
ENDBRANCH  32  34
ENDBRANCH  31  32
ENDBRANCH  29  31
ENDBRANCH   1  29
TORSDOF 7
ENDMDL
