MODEL 1
REMARK VINA RESULT:      -7.8      0.000      0.000
REMARK  Name = 
REMARK  7 active torsions:
REMARK  status: ('A' for Active; 'I' for Inactive)
REMARK    1  A    between atoms: C_1  and  C_2
REMARK    2  A    between atoms: C_2  and  N_3
REMARK    3  A    between atoms: N_3  and  C_4
REMARK    4  A    between atoms: C_4  and  C_5
REMARK    5  A    between atoms: N_8  and  C_9
REMARK    6  A    between atoms: C_9  and  C_10
REMARK    7  A    between atoms: C_18  and  C_20
REMARK                            x       y       z     vdW  Elec       q    Type
REMARK                         _______ _______ _______ _____ _____    ______ ____
ROOT
ATOM      1  N   UNL     1       1.556   9.323  19.357  0.00  0.00    +0.000 N 
ATOM      2  C   UNL     1       2.112   8.775  18.206  0.00  0.00    +0.000 C 
ATOM      3  O   UNL     1       2.215   9.497  17.222  0.00  0.00    +0.000 OA
ENDROOT
BRANCH   2   4
ATOM      4  C   UNL     1       2.550   7.323  18.005  0.00  0.00    +0.000 A 
ATOM      5  C   UNL     1       3.880   7.099  17.567  0.00  0.00    +0.000 A 
ATOM      6  C   UNL     1       4.389   5.809  17.385  0.00  0.00    +0.000 A 
ATOM      7  C   UNL     1       3.594   4.691  17.647  0.00  0.00    +0.000 A 
ATOM      8  C   UNL     1       4.105   3.388  17.511  0.00  0.00    +0.000 A 
ATOM      9  C   UNL     1       3.297   2.282  17.798  0.00  0.00    +0.000 A 
ATOM     10  C   UNL     1       1.974   2.465  18.205  0.00  0.00    +0.000 A 
ATOM     11  C   UNL     1       1.455   3.756  18.339  0.00  0.00    +0.000 A 
ATOM     12  C   UNL     1       2.263   4.877  18.071  0.00  0.00    +0.000 A 
ATOM     13  C   UNL     1       1.756   6.173  18.242  0.00  0.00    +0.000 A 
ENDBRANCH   2   4
BRANCH   1  15
ATOM     14  C   UNL     1       1.261   9.055  21.906  0.00  0.00    +0.000 C 
ATOM     15  C   UNL     1       1.225   8.455  20.499  0.00  0.00    +0.000 C 
ENDBRANCH   1  15
BRANCH   1  16
ATOM     16  C   UNL     1       1.135  10.744  19.340  0.00  0.00    +0.000 C 
BRANCH  16  17
ATOM     17  C   UNL     1      -0.242  11.029  18.631  0.00  0.00    +0.000 C 
ATOM     18  C   UNL     1      -0.554  12.513  18.368  0.00  0.00    +0.000 C 
ATOM     19  C   UNL     1      -0.737  13.297  19.668  0.00  0.00    +0.000 C 
ATOM     20  N   UNL     1      -1.763  12.700  20.556  0.00  0.00    +0.000 NA
ATOM     21  C   UNL     1      -1.573  11.248  20.791  0.00  0.00    +0.000 C 
ATOM     22  C   UNL     1      -1.419  10.477  19.467  0.00  0.00    +0.000 C 
BRANCH  20  23
ATOM     23  C   UNL     1      -1.879  13.448  21.837  0.00  0.00    +0.000 C 
BRANCH  23  24
ATOM     24  C   UNL     1      -3.190  13.208  22.576  0.00  0.00    +0.000 A 
ATOM     25  C   UNL     1      -4.420  13.531  21.972  0.00  0.00    +0.000 A 
ATOM     26  C   UNL     1      -5.622  13.344  22.663  0.00  0.00    +0.000 A 
ATOM     27  C   UNL     1      -5.611  12.827  23.963  0.00  0.00    +0.000 A 
ATOM     28  C   UNL     1      -4.395  12.488  24.566  0.00  0.00    +0.000 A 
ATOM     29  C   UNL     1      -3.194  12.673  23.877  0.00  0.00    +0.000 A 
ENDBRANCH  23  24
ENDBRANCH  20  23
ENDBRANCH  16  17
ENDBRANCH   1  16
TORSDOF 6
ENDMDL
MODEL 2
REMARK VINA RESULT:      -7.7      2.173      4.063
REMARK  Name = 
REMARK  7 active torsions:
REMARK  status: ('A' for Active; 'I' for Inactive)
REMARK    1  A    between atoms: C_1  and  C_2
REMARK    2  A    between atoms: C_2  and  N_3
REMARK    3  A    between atoms: N_3  and  C_4
REMARK    4  A    between atoms: C_4  and  C_5
REMARK    5  A    between atoms: N_8  and  C_9
REMARK    6  A    between atoms: C_9  and  C_10
REMARK    7  A    between atoms: C_18  and  C_20
REMARK                            x       y       z     vdW  Elec       q    Type
REMARK                         _______ _______ _______ _____ _____    ______ ____
ROOT
ATOM      1  N   UNL     1       1.522   9.202  19.517  0.00  0.00    +0.000 N 
ATOM      2  C   UNL     1       1.998   8.684  18.317  0.00  0.00    +0.000 C 
ATOM      3  O   UNL     1       1.983   9.413  17.333  0.00  0.00    +0.000 OA
ENDROOT
BRANCH   2   4
ATOM      4  C   UNL     1       2.478   7.253  18.066  0.00  0.00    +0.000 A 
ATOM      5  C   UNL     1       3.810   7.084  17.609  0.00  0.00    +0.000 A 
ATOM      6  C   UNL     1       4.357   5.817  17.382  0.00  0.00    +0.000 A 
ATOM      7  C   UNL     1       3.600   4.667  17.617  0.00  0.00    +0.000 A 
ATOM      8  C   UNL     1       4.149   3.386  17.436  0.00  0.00    +0.000 A 
ATOM      9  C   UNL     1       3.379   2.247  17.696  0.00  0.00    +0.000 A 
ATOM     10  C   UNL     1       2.056   2.376  18.121  0.00  0.00    +0.000 A 
ATOM     11  C   UNL     1       1.498   3.644  18.300  0.00  0.00    +0.000 A 
ATOM     12  C   UNL     1       2.268   4.797  18.059  0.00  0.00    +0.000 A 
ATOM     13  C   UNL     1       1.723   6.071  18.276  0.00  0.00    +0.000 A 
ENDBRANCH   2   4
BRANCH   1  15
ATOM     14  C   UNL     1       1.273   8.941  22.071  0.00  0.00    +0.000 C 
ATOM     15  C   UNL     1       1.330   8.315  20.676  0.00  0.00    +0.000 C 
ENDBRANCH   1  15
BRANCH   1  16
ATOM     16  C   UNL     1       1.040  10.603  19.547  0.00  0.00    +0.000 C 
BRANCH  16  17
ATOM     17  C   UNL     1      -0.518  10.782  19.409  0.00  0.00    +0.000 C 
ATOM     18  C   UNL     1      -0.977  11.697  18.260  0.00  0.00    +0.000 C 
ATOM     19  C   UNL     1      -0.544  13.148  18.478  0.00  0.00    +0.000 C 
ATOM     20  N   UNL     1      -0.992  13.688  19.784  0.00  0.00    +0.000 NA
ATOM     21  C   UNL     1      -0.655  12.816  20.935  0.00  0.00    +0.000 C 
ATOM     22  C   UNL     1      -1.125  11.368  20.704  0.00  0.00    +0.000 C 
BRANCH  20  23
ATOM     23  C   UNL     1      -0.508  15.079  19.995  0.00  0.00    +0.000 C 
BRANCH  23  24
ATOM     24  C   UNL     1       0.879  15.345  19.420  0.00  0.00    +0.000 A 
ATOM     25  C   UNL     1       1.975  14.550  19.805  0.00  0.00    +0.000 A 
ATOM     26  C   UNL     1       3.256  14.815  19.306  0.00  0.00    +0.000 A 
ATOM     27  C   UNL     1       3.454  15.872  18.411  0.00  0.00    +0.000 A 
ATOM     28  C   UNL     1       2.368  16.658  18.011  0.00  0.00    +0.000 A 
ATOM     29  C   UNL     1       1.089  16.393  18.507  0.00  0.00    +0.000 A 
ENDBRANCH  23  24
ENDBRANCH  20  23
ENDBRANCH  16  17
ENDBRANCH   1  16
TORSDOF 6
ENDMDL
MODEL 3
REMARK VINA RESULT:      -7.5      3.150     10.761
REMARK  Name = 
REMARK  7 active torsions:
REMARK  status: ('A' for Active; 'I' for Inactive)
REMARK    1  A    between atoms: C_1  and  C_2
REMARK    2  A    between atoms: C_2  and  N_3
REMARK    3  A    between atoms: N_3  and  C_4
REMARK    4  A    between atoms: C_4  and  C_5
REMARK    5  A    between atoms: N_8  and  C_9
REMARK    6  A    between atoms: C_9  and  C_10
REMARK    7  A    between atoms: C_18  and  C_20
REMARK                            x       y       z     vdW  Elec       q    Type
REMARK                         _______ _______ _______ _____ _____    ______ ____
ROOT
ATOM      1  N   UNL     1       2.140   7.036  19.059  0.00  0.00    +0.000 N 
ATOM      2  C   UNL     1       1.770   8.290  18.586  0.00  0.00    +0.000 C 
ATOM      3  O   UNL     1       2.235   8.658  17.514  0.00  0.00    +0.000 OA
ENDROOT
BRANCH   2   4
ATOM      4  C   UNL     1       0.889   9.314  19.305  0.00  0.00    +0.000 A 
ATOM      5  C   UNL     1       0.253  10.299  18.507  0.00  0.00    +0.000 A 
ATOM      6  C   UNL     1      -0.600  11.259  19.062  0.00  0.00    +0.000 A 
ATOM      7  C   UNL     1      -0.862  11.266  20.434  0.00  0.00    +0.000 A 
ATOM      8  C   UNL     1      -1.751  12.196  20.999  0.00  0.00    +0.000 A 
ATOM      9  C   UNL     1      -2.015  12.172  22.373  0.00  0.00    +0.000 A 
ATOM     10  C   UNL     1      -1.384  11.234  23.193  0.00  0.00    +0.000 A 
ATOM     11  C   UNL     1      -0.496  10.306  22.642  0.00  0.00    +0.000 A 
ATOM     12  C   UNL     1      -0.237  10.309  21.258  0.00  0.00    +0.000 A 
ATOM     13  C   UNL     1       0.624   9.355  20.697  0.00  0.00    +0.000 A 
ENDBRANCH   2   4
BRANCH   1  15
ATOM     14  C   UNL     1       1.886   5.148  20.798  0.00  0.00    +0.000 C 
ATOM     15  C   UNL     1       1.774   6.627  20.425  0.00  0.00    +0.000 C 
ENDBRANCH   1  15
BRANCH   1  16
ATOM     16  C   UNL     1       3.057   6.207  18.240  0.00  0.00    +0.000 C 
BRANCH  16  17
ATOM     17  C   UNL     1       4.584   6.572  18.363  0.00  0.00    +0.000 C 
ATOM     18  C   UNL     1       5.264   7.013  17.055  0.00  0.00    +0.000 C 
ATOM     19  C   UNL     1       5.326   5.877  16.033  0.00  0.00    +0.000 C 
ATOM     20  N   UNL     1       5.975   4.658  16.572  0.00  0.00    +0.000 NA
ATOM     21  C   UNL     1       5.425   4.218  17.877  0.00  0.00    +0.000 C 
ATOM     22  C   UNL     1       5.398   5.372  18.896  0.00  0.00    +0.000 C 
BRANCH  20  23
ATOM     23  C   UNL     1       5.970   3.551  15.577  0.00  0.00    +0.000 C 
BRANCH  23  24
ATOM     24  C   UNL     1       6.469   3.960  14.196  0.00  0.00    +0.000 A 
ATOM     25  C   UNL     1       5.981   3.317  13.042  0.00  0.00    +0.000 A 
ATOM     26  C   UNL     1       6.465   3.667  11.776  0.00  0.00    +0.000 A 
ATOM     27  C   UNL     1       7.437   4.665  11.647  0.00  0.00    +0.000 A 
ATOM     28  C   UNL     1       7.916   5.319  12.787  0.00  0.00    +0.000 A 
ATOM     29  C   UNL     1       7.433   4.973  14.051  0.00  0.00    +0.000 A 
ENDBRANCH  23  24
ENDBRANCH  20  23
ENDBRANCH  16  17
ENDBRANCH   1  16
TORSDOF 6
ENDMDL
MODEL 4
REMARK VINA RESULT:      -7.5      2.736      4.447
REMARK  Name = 
REMARK  7 active torsions:
REMARK  status: ('A' for Active; 'I' for Inactive)
REMARK    1  A    between atoms: C_1  and  C_2
REMARK    2  A    between atoms: C_2  and  N_3
REMARK    3  A    between atoms: N_3  and  C_4
REMARK    4  A    between atoms: C_4  and  C_5
REMARK    5  A    between atoms: N_8  and  C_9
REMARK    6  A    between atoms: C_9  and  C_10
REMARK    7  A    between atoms: C_18  and  C_20
REMARK                            x       y       z     vdW  Elec       q    Type
REMARK                         _______ _______ _______ _____ _____    ______ ____
ROOT
ATOM      1  N   UNL     1       1.014   9.582  20.487  0.00  0.00    +0.000 N 
ATOM      2  C   UNL     1       1.660   8.914  19.453  0.00  0.00    +0.000 C 
ATOM      3  O   UNL     1       2.038   9.574  18.493  0.00  0.00    +0.000 OA
ENDROOT
BRANCH   2   4
ATOM      4  C   UNL     1       1.889   7.405  19.342  0.00  0.00    +0.000 A 
ATOM      5  C   UNL     1       2.375   6.910  18.106  0.00  0.00    +0.000 A 
ATOM      6  C   UNL     1       2.650   5.552  17.912  0.00  0.00    +0.000 A 
ATOM      7  C   UNL     1       2.464   4.637  18.951  0.00  0.00    +0.000 A 
ATOM      8  C   UNL     1       2.778   3.277  18.785  0.00  0.00    +0.000 A 
ATOM      9  C   UNL     1       2.603   2.380  19.845  0.00  0.00    +0.000 A 
ATOM     10  C   UNL     1       2.099   2.828  21.068  0.00  0.00    +0.000 A 
ATOM     11  C   UNL     1       1.781   4.178  21.242  0.00  0.00    +0.000 A 
ATOM     12  C   UNL     1       1.970   5.092  20.189  0.00  0.00    +0.000 A 
ATOM     13  C   UNL     1       1.687   6.453  20.373  0.00  0.00    +0.000 A 
ENDBRANCH   2   4
BRANCH   1  15
ATOM     14  C   UNL     1       0.069   9.528  22.887  0.00  0.00    +0.000 C 
ATOM     15  C   UNL     1       0.364   8.818  21.565  0.00  0.00    +0.000 C 
ENDBRANCH   1  15
BRANCH   1  16
ATOM     16  C   UNL     1       0.833  11.050  20.385  0.00  0.00    +0.000 C 
BRANCH  16  17
ATOM     17  C   UNL     1      -0.528  11.516  19.742  0.00  0.00    +0.000 C 
ATOM     18  C   UNL     1      -0.397  12.345  18.452  0.00  0.00    +0.000 C 
ATOM     19  C   UNL     1       0.273  13.696  18.707  0.00  0.00    +0.000 C 
ATOM     20  N   UNL     1      -0.408  14.482  19.764  0.00  0.00    +0.000 NA
ATOM     21  C   UNL     1      -0.641  13.720  21.014  0.00  0.00    +0.000 C 
ATOM     22  C   UNL     1      -1.342  12.377  20.734  0.00  0.00    +0.000 C 
BRANCH  20  23
ATOM     23  C   UNL     1       0.299  15.764  20.031  0.00  0.00    +0.000 C 
BRANCH  23  24
ATOM     24  C   UNL     1       0.333  16.711  18.837  0.00  0.00    +0.000 A 
ATOM     25  C   UNL     1       1.556  17.032  18.217  0.00  0.00    +0.000 A 
ATOM     26  C   UNL     1       1.594  17.929  17.143  0.00  0.00    +0.000 A 
ATOM     27  C   UNL     1       0.411  18.510  16.672  0.00  0.00    +0.000 A 
ATOM     28  C   UNL     1      -0.810  18.185  17.272  0.00  0.00    +0.000 A 
ATOM     29  C   UNL     1      -0.850  17.288  18.343  0.00  0.00    +0.000 A 
ENDBRANCH  23  24
ENDBRANCH  20  23
ENDBRANCH  16  17
ENDBRANCH   1  16
TORSDOF 6
ENDMDL
MODEL 5
REMARK VINA RESULT:      -7.5      3.162     10.823
REMARK  Name = 
REMARK  7 active torsions:
REMARK  status: ('A' for Active; 'I' for Inactive)
REMARK    1  A    between atoms: C_1  and  C_2
REMARK    2  A    between atoms: C_2  and  N_3
REMARK    3  A    between atoms: N_3  and  C_4
REMARK    4  A    between atoms: C_4  and  C_5
REMARK    5  A    between atoms: N_8  and  C_9
REMARK    6  A    between atoms: C_9  and  C_10
REMARK    7  A    between atoms: C_18  and  C_20
REMARK                            x       y       z     vdW  Elec       q    Type
REMARK                         _______ _______ _______ _____ _____    ______ ____
ROOT
ATOM      1  N   UNL     1       2.169   6.600  19.543  0.00  0.00    +0.000 N 
ATOM      2  C   UNL     1       1.832   7.934  19.348  0.00  0.00    +0.000 C 
ATOM      3  O   UNL     1       2.286   8.501  18.362  0.00  0.00    +0.000 OA
ENDROOT
BRANCH   2   4
ATOM      4  C   UNL     1       1.003   8.814  20.286  0.00  0.00    +0.000 A 
ATOM      5  C   UNL     1       1.131   8.581  21.679  0.00  0.00    +0.000 A 
ATOM      6  C   UNL     1       0.443   9.352  22.622  0.00  0.00    +0.000 A 
ATOM      7  C   UNL     1      -0.390  10.395  22.212  0.00  0.00    +0.000 A 
ATOM      8  C   UNL     1      -1.053  11.207  23.148  0.00  0.00    +0.000 A 
ATOM      9  C   UNL     1      -1.867  12.260  22.716  0.00  0.00    +0.000 A 
ATOM     10  C   UNL     1      -2.038  12.500  21.351  0.00  0.00    +0.000 A 
ATOM     11  C   UNL     1      -1.387  11.697  20.411  0.00  0.00    +0.000 A 
ATOM     12  C   UNL     1      -0.551  10.646  20.834  0.00  0.00    +0.000 A 
ATOM     13  C   UNL     1       0.134   9.863  19.894  0.00  0.00    +0.000 A 
ENDBRANCH   2   4
BRANCH   1  15
ATOM     14  C   UNL     1       1.893   4.402  20.866  0.00  0.00    +0.000 C 
ATOM     15  C   UNL     1       1.820   5.929  20.807  0.00  0.00    +0.000 C 
ENDBRANCH   1  15
BRANCH   1  16
ATOM     16  C   UNL     1       3.039   5.931  18.547  0.00  0.00    +0.000 C 
BRANCH  16  17
ATOM     17  C   UNL     1       4.550   6.375  18.567  0.00  0.00    +0.000 C 
ATOM     18  C   UNL     1       5.100   6.902  17.230  0.00  0.00    +0.000 C 
ATOM     19  C   UNL     1       5.141   5.810  16.160  0.00  0.00    +0.000 C 
ATOM     20  N   UNL     1       5.894   4.609  16.596  0.00  0.00    +0.000 NA
ATOM     21  C   UNL     1       5.472   4.091  17.920  0.00  0.00    +0.000 C 
ATOM     22  C   UNL     1       5.466   5.203  18.985  0.00  0.00    +0.000 C 
BRANCH  20  23
ATOM     23  C   UNL     1       5.869   3.542  15.560  0.00  0.00    +0.000 C 
BRANCH  23  24
ATOM     24  C   UNL     1       6.434   3.976  14.212  0.00  0.00    +0.000 A 
ATOM     25  C   UNL     1       5.971   3.384  13.021  0.00  0.00    +0.000 A 
ATOM     26  C   UNL     1       6.515   3.756  11.785  0.00  0.00    +0.000 A 
ATOM     27  C   UNL     1       7.521   4.727  11.725  0.00  0.00    +0.000 A 
ATOM     28  C   UNL     1       7.975   5.331  12.902  0.00  0.00    +0.000 A 
ATOM     29  C   UNL     1       7.433   4.962  14.136  0.00  0.00    +0.000 A 
ENDBRANCH  23  24
ENDBRANCH  20  23
ENDBRANCH  16  17
ENDBRANCH   1  16
TORSDOF 6
ENDMDL
MODEL 6
REMARK VINA RESULT:      -7.5      2.180      4.000
REMARK  Name = 
REMARK  7 active torsions:
REMARK  status: ('A' for Active; 'I' for Inactive)
REMARK    1  A    between atoms: C_1  and  C_2
REMARK    2  A    between atoms: C_2  and  N_3
REMARK    3  A    between atoms: N_3  and  C_4
REMARK    4  A    between atoms: C_4  and  C_5
REMARK    5  A    between atoms: N_8  and  C_9
REMARK    6  A    between atoms: C_9  and  C_10
REMARK    7  A    between atoms: C_18  and  C_20
REMARK                            x       y       z     vdW  Elec       q    Type
REMARK                         _______ _______ _______ _____ _____    ______ ____
ROOT
ATOM      1  N   UNL     1       1.551   9.445  19.636  0.00  0.00    +0.000 N 
ATOM      2  C   UNL     1       1.998   8.954  18.415  0.00  0.00    +0.000 C 
ATOM      3  O   UNL     1       1.979   9.711  17.452  0.00  0.00    +0.000 OA
ENDROOT
BRANCH   2   4
ATOM      4  C   UNL     1       2.450   7.523  18.115  0.00  0.00    +0.000 A 
ATOM      5  C   UNL     1       3.771   7.346  17.632  0.00  0.00    +0.000 A 
ATOM      6  C   UNL     1       4.293   6.077  17.360  0.00  0.00    +0.000 A 
ATOM      7  C   UNL     1       3.520   4.933  17.573  0.00  0.00    +0.000 A 
ATOM      8  C   UNL     1       4.045   3.649  17.347  0.00  0.00    +0.000 A 
ATOM      9  C   UNL     1       3.260   2.516  17.587  0.00  0.00    +0.000 A 
ATOM     10  C   UNL     1       1.946   2.654  18.037  0.00  0.00    +0.000 A 
ATOM     11  C   UNL     1       1.413   3.926  18.261  0.00  0.00    +0.000 A 
ATOM     12  C   UNL     1       2.198   5.073  18.041  0.00  0.00    +0.000 A 
ATOM     13  C   UNL     1       1.678   6.349  18.302  0.00  0.00    +0.000 A 
ENDBRANCH   2   4
BRANCH   1  15
ATOM     14  C   UNL     1      -0.041   8.366  21.355  0.00  0.00    +0.000 C 
ATOM     15  C   UNL     1       1.365   8.529  20.774  0.00  0.00    +0.000 C 
ENDBRANCH   1  15
BRANCH   1  16
ATOM     16  C   UNL     1       1.094  10.853  19.715  0.00  0.00    +0.000 C 
BRANCH  16  17
ATOM     17  C   UNL     1      -0.374  11.113  19.208  0.00  0.00    +0.000 C 
ATOM     18  C   UNL     1      -0.511  12.164  18.093  0.00  0.00    +0.000 C 
ATOM     19  C   UNL     1      -0.127  13.563  18.578  0.00  0.00    +0.000 C 
ATOM     20  N   UNL     1      -0.886  13.980  19.781  0.00  0.00    +0.000 NA
ATOM     21  C   UNL     1      -0.868  12.977  20.873  0.00  0.00    +0.000 C 
ATOM     22  C   UNL     1      -1.284  11.583  20.366  0.00  0.00    +0.000 C 
BRANCH  20  23
ATOM     23  C   UNL     1      -0.453  15.319  20.264  0.00  0.00    +0.000 C 
BRANCH  23  24
ATOM     24  C   UNL     1       0.012  16.255  19.155  0.00  0.00    +0.000 A 
ATOM     25  C   UNL     1       1.383  16.380  18.854  0.00  0.00    +0.000 A 
ATOM     26  C   UNL     1       1.814  17.267  17.860  0.00  0.00    +0.000 A 
ATOM     27  C   UNL     1       0.882  18.032  17.151  0.00  0.00    +0.000 A 
ATOM     28  C   UNL     1      -0.482  17.902  17.431  0.00  0.00    +0.000 A 
ATOM     29  C   UNL     1      -0.915  17.017  18.422  0.00  0.00    +0.000 A 
ENDBRANCH  23  24
ENDBRANCH  20  23
ENDBRANCH  16  17
ENDBRANCH   1  16
TORSDOF 6
ENDMDL
MODEL 7
REMARK VINA RESULT:      -7.5      3.045      9.900
REMARK  Name = 
REMARK  7 active torsions:
REMARK  status: ('A' for Active; 'I' for Inactive)
REMARK    1  A    between atoms: C_1  and  C_2
REMARK    2  A    between atoms: C_2  and  N_3
REMARK    3  A    between atoms: N_3  and  C_4
REMARK    4  A    between atoms: C_4  and  C_5
REMARK    5  A    between atoms: N_8  and  C_9
REMARK    6  A    between atoms: C_9  and  C_10
REMARK    7  A    between atoms: C_18  and  C_20
REMARK                            x       y       z     vdW  Elec       q    Type
REMARK                         _______ _______ _______ _____ _____    ______ ____
ROOT
ATOM      1  N   UNL     1       2.382   5.106  19.830  0.00  0.00    +0.000 N 
ATOM      2  C   UNL     1       2.719   6.439  19.621  0.00  0.00    +0.000 C 
ATOM      3  O   UNL     1       3.809   6.682  19.117  0.00  0.00    +0.000 OA
ENDROOT
BRANCH   2   4
ATOM      4  C   UNL     1       1.896   7.664  20.025  0.00  0.00    +0.000 A 
ATOM      5  C   UNL     1       1.609   8.617  19.015  0.00  0.00    +0.000 A 
ATOM      6  C   UNL     1       0.836   9.754  19.273  0.00  0.00    +0.000 A 
ATOM      7  C   UNL     1       0.306   9.977  20.546  0.00  0.00    +0.000 A 
ATOM      8  C   UNL     1      -0.509  11.091  20.810  0.00  0.00    +0.000 A 
ATOM      9  C   UNL     1      -1.045  11.284  22.088  0.00  0.00    +0.000 A 
ATOM     10  C   UNL     1      -0.760  10.381  23.113  0.00  0.00    +0.000 A 
ATOM     11  C   UNL     1       0.052   9.272  22.863  0.00  0.00    +0.000 A 
ATOM     12  C   UNL     1       0.583   9.057  21.577  0.00  0.00    +0.000 A 
ATOM     13  C   UNL     1       1.366   7.924  21.314  0.00  0.00    +0.000 A 
ENDBRANCH   2   4
BRANCH   1  15
ATOM     14  C   UNL     1       1.065   3.354  21.190  0.00  0.00    +0.000 C 
ATOM     15  C   UNL     1       1.181   4.765  20.610  0.00  0.00    +0.000 C 
ENDBRANCH   1  15
BRANCH   1  16
ATOM     16  C   UNL     1       3.344   4.055  19.422  0.00  0.00    +0.000 C 
BRANCH  16  17
ATOM     17  C   UNL     1       2.919   3.207  18.164  0.00  0.00    +0.000 C 
ATOM     18  C   UNL     1       3.895   2.085  17.766  0.00  0.00    +0.000 C 
ATOM     19  C   UNL     1       5.239   2.640  17.292  0.00  0.00    +0.000 C 
ATOM     20  N   UNL     1       5.096   3.622  16.190  0.00  0.00    +0.000 NA
ATOM     21  C   UNL     1       4.108   4.691  16.471  0.00  0.00    +0.000 C 
ATOM     22  C   UNL     1       2.755   4.107  16.919  0.00  0.00    +0.000 C 
BRANCH  20  23
ATOM     23  C   UNL     1       6.412   4.188  15.788  0.00  0.00    +0.000 C 
BRANCH  23  24
ATOM     24  C   UNL     1       6.994   5.173  16.795  0.00  0.00    +0.000 A 
ATOM     25  C   UNL     1       7.502   4.718  18.027  0.00  0.00    +0.000 A 
ATOM     26  C   UNL     1       8.004   5.626  18.967  0.00  0.00    +0.000 A 
ATOM     27  C   UNL     1       8.010   6.996  18.685  0.00  0.00    +0.000 A 
ATOM     28  C   UNL     1       7.522   7.456  17.458  0.00  0.00    +0.000 A 
ATOM     29  C   UNL     1       7.022   6.551  16.518  0.00  0.00    +0.000 A 
ENDBRANCH  23  24
ENDBRANCH  20  23
ENDBRANCH  16  17
ENDBRANCH   1  16
TORSDOF 6
ENDMDL
MODEL 8
REMARK VINA RESULT:      -7.4      2.527      3.503
REMARK  Name = 
REMARK  7 active torsions:
REMARK  status: ('A' for Active; 'I' for Inactive)
REMARK    1  A    between atoms: C_1  and  C_2
REMARK    2  A    between atoms: C_2  and  N_3
REMARK    3  A    between atoms: N_3  and  C_4
REMARK    4  A    between atoms: C_4  and  C_5
REMARK    5  A    between atoms: N_8  and  C_9
REMARK    6  A    between atoms: C_9  and  C_10
REMARK    7  A    between atoms: C_18  and  C_20
REMARK                            x       y       z     vdW  Elec       q    Type
REMARK                         _______ _______ _______ _____ _____    ______ ____
ROOT
ATOM      1  N   UNL     1       1.446   9.202  19.041  0.00  0.00    +0.000 N 
ATOM      2  C   UNL     1       2.208   8.576  18.060  0.00  0.00    +0.000 C 
ATOM      3  O   UNL     1       2.550   9.241  17.090  0.00  0.00    +0.000 OA
ENDROOT
BRANCH   2   4
ATOM      4  C   UNL     1       2.612   7.100  18.020  0.00  0.00    +0.000 A 
ATOM      5  C   UNL     1       3.967   6.805  17.725  0.00  0.00    +0.000 A 
ATOM      6  C   UNL     1       4.446   5.491  17.697  0.00  0.00    +0.000 A 
ATOM      7  C   UNL     1       3.594   4.420  17.978  0.00  0.00    +0.000 A 
ATOM      8  C   UNL     1       4.070   3.098  17.997  0.00  0.00    +0.000 A 
ATOM      9  C   UNL     1       3.203   2.043  18.300  0.00  0.00    +0.000 A 
ATOM     10  C   UNL     1       1.856   2.295  18.568  0.00  0.00    +0.000 A 
ATOM     11  C   UNL     1       1.371   3.605  18.548  0.00  0.00    +0.000 A 
ATOM     12  C   UNL     1       2.237   4.677  18.262  0.00  0.00    +0.000 A 
ATOM     13  C   UNL     1       1.762   5.996  18.279  0.00  0.00    +0.000 A 
ENDBRANCH   2   4
BRANCH   1  15
ATOM     14  C   UNL     1       1.546   8.365  21.479  0.00  0.00    +0.000 C 
ATOM     15  C   UNL     1       0.841   8.406  20.122  0.00  0.00    +0.000 C 
ENDBRANCH   1  15
BRANCH   1  16
ATOM     16  C   UNL     1       1.103  10.634  18.872  0.00  0.00    +0.000 C 
BRANCH  16  17
ATOM     17  C   UNL     1      -0.329  11.047  19.379  0.00  0.00    +0.000 C 
ATOM     18  C   UNL     1      -1.136  11.941  18.421  0.00  0.00    +0.000 C 
ATOM     19  C   UNL     1      -0.490  13.317  18.245  0.00  0.00    +0.000 C 
ATOM     20  N   UNL     1      -0.261  14.010  19.535  0.00  0.00    +0.000 NA
ATOM     21  C   UNL     1       0.442  13.178  20.541  0.00  0.00    +0.000 C 
ATOM     22  C   UNL     1      -0.242  11.810  20.720  0.00  0.00    +0.000 C 
BRANCH  20  23
ATOM     23  C   UNL     1       0.420  15.319  19.338  0.00  0.00    +0.000 C 
BRANCH  23  24
ATOM     24  C   UNL     1      -0.529  16.466  19.013  0.00  0.00    +0.000 A 
ATOM     25  C   UNL     1      -0.300  17.287  17.892  0.00  0.00    +0.000 A 
ATOM     26  C   UNL     1      -1.150  18.363  17.613  0.00  0.00    +0.000 A 
ATOM     27  C   UNL     1      -2.243  18.628  18.445  0.00  0.00    +0.000 A 
ATOM     28  C   UNL     1      -2.488  17.809  19.553  0.00  0.00    +0.000 A 
ATOM     29  C   UNL     1      -1.641  16.733  19.832  0.00  0.00    +0.000 A 
ENDBRANCH  23  24
ENDBRANCH  20  23
ENDBRANCH  16  17
ENDBRANCH   1  16
TORSDOF 6
ENDMDL
MODEL 9
REMARK VINA RESULT:      -7.4      2.372      9.957
REMARK  Name = 
REMARK  7 active torsions:
REMARK  status: ('A' for Active; 'I' for Inactive)
REMARK    1  A    between atoms: C_1  and  C_2
REMARK    2  A    between atoms: C_2  and  N_3
REMARK    3  A    between atoms: N_3  and  C_4
REMARK    4  A    between atoms: C_4  and  C_5
REMARK    5  A    between atoms: N_8  and  C_9
REMARK    6  A    between atoms: C_9  and  C_10
REMARK    7  A    between atoms: C_18  and  C_20
REMARK                            x       y       z     vdW  Elec       q    Type
REMARK                         _______ _______ _______ _____ _____    ______ ____
ROOT
ATOM      1  N   UNL     1       1.629   8.419  19.451  0.00  0.00    +0.000 N 
ATOM      2  C   UNL     1       1.214   9.500  18.681  0.00  0.00    +0.000 C 
ATOM      3  O   UNL     1       1.574   9.540  17.510  0.00  0.00    +0.000 OA
ENDROOT
BRANCH   2   4
ATOM      4  C   UNL     1       0.406  10.707  19.160  0.00  0.00    +0.000 A 
ATOM      5  C   UNL     1      -0.990  10.697  18.909  0.00  0.00    +0.000 A 
ATOM      6  C   UNL     1      -1.824  11.735  19.336  0.00  0.00    +0.000 A 
ATOM      7  C   UNL     1      -1.299  12.820  20.043  0.00  0.00    +0.000 A 
ATOM      8  C   UNL     1      -2.130  13.849  20.518  0.00  0.00    +0.000 A 
ATOM      9  C   UNL     1      -1.586  14.916  21.241  0.00  0.00    +0.000 A 
ATOM     10  C   UNL     1      -0.212  14.973  21.482  0.00  0.00    +0.000 A 
ATOM     11  C   UNL     1       0.624  13.957  21.012  0.00  0.00    +0.000 A 
ATOM     12  C   UNL     1       0.087  12.869  20.299  0.00  0.00    +0.000 A 
ATOM     13  C   UNL     1       0.918  11.829  19.859  0.00  0.00    +0.000 A 
ENDBRANCH   2   4
BRANCH   1  15
ATOM     14  C   UNL     1      -0.009   8.098  21.419  0.00  0.00    +0.000 C 
ATOM     15  C   UNL     1       1.396   8.420  20.905  0.00  0.00    +0.000 C 
ENDBRANCH   1  15
BRANCH   1  16
ATOM     16  C   UNL     1       2.463   7.370  18.819  0.00  0.00    +0.000 C 
BRANCH  16  17
ATOM     17  C   UNL     1       2.063   5.888  19.172  0.00  0.00    +0.000 C 
ATOM     18  C   UNL     1       2.969   5.188  20.199  0.00  0.00    +0.000 C 
ATOM     19  C   UNL     1       4.385   4.978  19.662  0.00  0.00    +0.000 C 
ATOM     20  N   UNL     1       4.405   4.251  18.370  0.00  0.00    +0.000 NA
ATOM     21  C   UNL     1       3.491   4.823  17.352  0.00  0.00    +0.000 C 
ATOM     22  C   UNL     1       2.066   4.999  17.908  0.00  0.00    +0.000 C 
BRANCH  20  23
ATOM     23  C   UNL     1       5.789   4.112  17.842  0.00  0.00    +0.000 C 
BRANCH  23  24
ATOM     24  C   UNL     1       6.610   5.394  17.916  0.00  0.00    +0.000 A 
ATOM     25  C   UNL     1       7.550   5.582  18.948  0.00  0.00    +0.000 A 
ATOM     26  C   UNL     1       8.279   6.774  19.037  0.00  0.00    +0.000 A 
ATOM     27  C   UNL     1       8.082   7.788  18.094  0.00  0.00    +0.000 A 
ATOM     28  C   UNL     1       7.162   7.605  17.057  0.00  0.00    +0.000 A 
ATOM     29  C   UNL     1       6.435   6.415  16.965  0.00  0.00    +0.000 A 
ENDBRANCH  23  24
ENDBRANCH  20  23
ENDBRANCH  16  17
ENDBRANCH   1  16
TORSDOF 6
ENDMDL
