MODEL 1
REMARK VINA RESULT:      -7.4      0.000      0.000
REMARK  Name = 
REMARK  7 active torsions:
REMARK  status: ('A' for Active; 'I' for Inactive)
REMARK    1  A    between atoms: C_1  and  C_2
REMARK    2  A    between atoms: C_2  and  C_4
REMARK    3  A    between atoms: C_5  and  C_6
REMARK    4  A    between atoms: C_11  and  C_12
REMARK    5  A    between atoms: C_18  and  O_19
REMARK    6  A    between atoms: O_19  and  C_20
REMARK    7  A    between atoms: C_20  and  C_21
REMARK                            x       y       z     vdW  Elec       q    Type
REMARK                         _______ _______ _______ _____ _____    ______ ____
ROOT
ATOM      1  C   UNL     1       3.119   3.772  19.463  0.00  0.00    +0.000 C 
ATOM      2  C   UNL     1       3.983   2.840  18.983  0.00  0.00    +0.000 C 
ATOM      3  C   UNL     1       3.717   1.423  18.528  0.00  0.00    +0.000 C 
ATOM      4  N   UNL     1       5.312   3.177  18.887  0.00  0.00    +0.000 N 
ATOM      5  C   UNL     1       5.837   4.416  19.081  0.00  0.00    +0.000 C 
ATOM      6  O   UNL     1       7.036   4.636  18.971  0.00  0.00    +0.000 OA
ATOM      7  N   UNL     1       4.951   5.405  19.348  0.00  0.00    +0.000 N 
ATOM      8  C   UNL     1       3.617   5.177  19.857  0.00  0.00    +0.000 C 
ATOM      9  H   UNL     1       5.993   2.483  18.597  0.00  0.00    +0.000 HD
ATOM     10  H   UNL     1       5.394   6.285  19.563  0.00  0.00    +0.000 HD
ENDROOT
BRANCH   8  11
ATOM     11  C   UNL     1       2.733   6.393  19.517  0.00  0.00    +0.000 A 
ATOM     12  C   UNL     1       1.902   6.952  20.508  0.00  0.00    +0.000 A 
ATOM     13  C   UNL     1       1.376   8.233  20.353  0.00  0.00    +0.000 A 
ATOM     14 BR   UNL     1       0.501   9.069  21.804  0.00  0.00    +0.000 Br
ATOM     15  C   UNL     1       1.575   8.936  19.175  0.00  0.00    +0.000 A 
ATOM     16  C   UNL     1       2.261   8.333  18.124  0.00  0.00    +0.000 A 
ATOM     17  C   UNL     1       2.812   7.047  18.259  0.00  0.00    +0.000 A 
BRANCH  17  18
ATOM     18  O   UNL     1       3.433   6.411  17.201  0.00  0.00    +0.000 OA
BRANCH  18  19
ATOM     19  C   UNL     1       4.548   7.135  16.604  0.00  0.00    +0.000 C 
BRANCH  19  20
ATOM     20  C   UNL     1       5.440   6.214  15.786  0.00  0.00    +0.000 C 
ATOM     21  N   UNL     1       6.178   5.450  15.108  0.00  0.00    +0.000 NA
ENDBRANCH  19  20
ENDBRANCH  18  19
ENDBRANCH  17  18
ENDBRANCH   8  11
BRANCH   1  23
ATOM     22  C   UNL     1       1.166   2.964  21.019  0.00  0.00    +0.000 C 
ATOM     23  C   UNL     1       1.667   3.406  19.659  0.00  0.00    +0.000 C 
ATOM     24  O   UNL     1       0.864   3.452  18.726  0.00  0.00    +0.000 OA
ENDBRANCH   1  23
TORSDOF 5
ENDMDL
MODEL 2
REMARK VINA RESULT:      -6.9      3.372      5.167
REMARK  Name = 
REMARK  7 active torsions:
REMARK  status: ('A' for Active; 'I' for Inactive)
REMARK    1  A    between atoms: C_1  and  C_2
REMARK    2  A    between atoms: C_2  and  C_4
REMARK    3  A    between atoms: C_5  and  C_6
REMARK    4  A    between atoms: C_11  and  C_12
REMARK    5  A    between atoms: C_18  and  O_19
REMARK    6  A    between atoms: O_19  and  C_20
REMARK    7  A    between atoms: C_20  and  C_21
REMARK                            x       y       z     vdW  Elec       q    Type
REMARK                         _______ _______ _______ _____ _____    ______ ____
ROOT
ATOM      1  C   UNL     1       3.274   4.310  18.745  0.00  0.00    +0.000 C 
ATOM      2  C   UNL     1       2.737   4.990  19.792  0.00  0.00    +0.000 C 
ATOM      3  C   UNL     1       2.337   4.492  21.162  0.00  0.00    +0.000 C 
ATOM      4  N   UNL     1       2.483   6.332  19.631  0.00  0.00    +0.000 N 
ATOM      5  C   UNL     1       2.863   7.094  18.572  0.00  0.00    +0.000 C 
ATOM      6  O   UNL     1       2.602   8.289  18.507  0.00  0.00    +0.000 OA
ATOM      7  N   UNL     1       3.594   6.471  17.618  0.00  0.00    +0.000 N 
ATOM      8  C   UNL     1       3.619   5.037  17.430  0.00  0.00    +0.000 C 
ATOM      9  H   UNL     1       2.020   6.853  20.367  0.00  0.00    +0.000 HD
ATOM     10  H   UNL     1       3.783   7.055  16.818  0.00  0.00    +0.000 HD
ENDROOT
BRANCH   8  11
ATOM     11  C   UNL     1       4.916   4.648  16.692  0.00  0.00    +0.000 A 
ATOM     12  C   UNL     1       4.844   4.077  15.406  0.00  0.00    +0.000 A 
ATOM     13  C   UNL     1       5.965   4.045  14.579  0.00  0.00    +0.000 A 
ATOM     14 BR   UNL     1       5.782   3.535  12.769  0.00  0.00    +0.000 Br
ATOM     15  C   UNL     1       7.195   4.479  15.048  0.00  0.00    +0.000 A 
ATOM     16  C   UNL     1       7.316   4.898  16.371  0.00  0.00    +0.000 A 
ATOM     17  C   UNL     1       6.198   4.951  17.221  0.00  0.00    +0.000 A 
BRANCH  17  18
ATOM     18  O   UNL     1       6.318   5.298  18.554  0.00  0.00    +0.000 OA
BRANCH  18  19
ATOM     19  C   UNL     1       7.533   6.022  18.904  0.00  0.00    +0.000 C 
BRANCH  19  20
ATOM     20  C   UNL     1       7.669   7.307  18.103  0.00  0.00    +0.000 C 
ATOM     21  N   UNL     1       7.782   8.372  17.439  0.00  0.00    +0.000 NA
ENDBRANCH  19  20
ENDBRANCH  18  19
ENDBRANCH  17  18
ENDBRANCH   8  11
BRANCH   1  23
ATOM     22  C   UNL     1       2.547   1.857  18.165  0.00  0.00    +0.000 C 
ATOM     23  C   UNL     1       3.488   2.820  18.860  0.00  0.00    +0.000 C 
ATOM     24  O   UNL     1       4.418   2.356  19.521  0.00  0.00    +0.000 OA
ENDBRANCH   1  23
TORSDOF 5
ENDMDL
MODEL 3
REMARK VINA RESULT:      -6.8      3.374      5.318
REMARK  Name = 
REMARK  7 active torsions:
REMARK  status: ('A' for Active; 'I' for Inactive)
REMARK    1  A    between atoms: C_1  and  C_2
REMARK    2  A    between atoms: C_2  and  C_4
REMARK    3  A    between atoms: C_5  and  C_6
REMARK    4  A    between atoms: C_11  and  C_12
REMARK    5  A    between atoms: C_18  and  O_19
REMARK    6  A    between atoms: O_19  and  C_20
REMARK    7  A    between atoms: C_20  and  C_21
REMARK                            x       y       z     vdW  Elec       q    Type
REMARK                         _______ _______ _______ _____ _____    ______ ____
ROOT
ATOM      1  C   UNL     1       3.428   4.399  18.665  0.00  0.00    +0.000 C 
ATOM      2  C   UNL     1       2.865   5.019  19.735  0.00  0.00    +0.000 C 
ATOM      3  C   UNL     1       2.590   4.487  21.123  0.00  0.00    +0.000 C 
ATOM      4  N   UNL     1       2.452   6.322  19.585  0.00  0.00    +0.000 N 
ATOM      5  C   UNL     1       2.692   7.116  18.509  0.00  0.00    +0.000 C 
ATOM      6  O   UNL     1       2.293   8.273  18.455  0.00  0.00    +0.000 OA
ATOM      7  N   UNL     1       3.445   6.575  17.522  0.00  0.00    +0.000 N 
ATOM      8  C   UNL     1       3.626   5.152  17.334  0.00  0.00    +0.000 C 
ATOM      9  H   UNL     1       1.967   6.791  20.342  0.00  0.00    +0.000 HD
ATOM     10  H   UNL     1       3.527   7.172  16.714  0.00  0.00    +0.000 HD
ENDROOT
BRANCH   8  11
ATOM     11  C   UNL     1       4.923   4.910  16.537  0.00  0.00    +0.000 A 
ATOM     12  C   UNL     1       4.883   4.146  15.353  0.00  0.00    +0.000 A 
ATOM     13  C   UNL     1       5.931   4.203  14.436  0.00  0.00    +0.000 A 
ATOM     14 BR   UNL     1       5.736   3.396  12.739  0.00  0.00    +0.000 Br
ATOM     15  C   UNL     1       7.075   4.930  14.722  0.00  0.00    +0.000 A 
ATOM     16  C   UNL     1       7.195   5.562  15.957  0.00  0.00    +0.000 A 
ATOM     17  C   UNL     1       6.149   5.531  16.895  0.00  0.00    +0.000 A 
BRANCH  17  18
ATOM     18  O   UNL     1       6.283   6.093  18.150  0.00  0.00    +0.000 OA
BRANCH  18  19
ATOM     19  C   UNL     1       7.646   6.435  18.538  0.00  0.00    +0.000 C 
BRANCH  19  20
ATOM     20  C   UNL     1       8.051   5.740  19.828  0.00  0.00    +0.000 C 
ATOM     21  N   UNL     1       8.388   5.164  20.898  0.00  0.00    +0.000 NA
ENDBRANCH  19  20
ENDBRANCH  18  19
ENDBRANCH  17  18
ENDBRANCH   8  11
BRANCH   1  23
ATOM     22  C   UNL     1       3.013   1.883  18.046  0.00  0.00    +0.000 C 
ATOM     23  C   UNL     1       3.817   2.944  18.770  0.00  0.00    +0.000 C 
ATOM     24  O   UNL     1       4.782   2.587  19.447  0.00  0.00    +0.000 OA
ENDBRANCH   1  23
TORSDOF 5
ENDMDL
MODEL 4
REMARK VINA RESULT:      -6.5      2.120      4.658
REMARK  Name = 
REMARK  7 active torsions:
REMARK  status: ('A' for Active; 'I' for Inactive)
REMARK    1  A    between atoms: C_1  and  C_2
REMARK    2  A    between atoms: C_2  and  C_4
REMARK    3  A    between atoms: C_5  and  C_6
REMARK    4  A    between atoms: C_11  and  C_12
REMARK    5  A    between atoms: C_18  and  O_19
REMARK    6  A    between atoms: O_19  and  C_20
REMARK    7  A    between atoms: C_20  and  C_21
REMARK                            x       y       z     vdW  Elec       q    Type
REMARK                         _______ _______ _______ _____ _____    ______ ____
ROOT
ATOM      1  C   UNL     1       6.094   6.086  17.685  0.00  0.00    +0.000 C 
ATOM      2  C   UNL     1       7.249   6.762  17.922  0.00  0.00    +0.000 C 
ATOM      3  C   UNL     1       7.846   7.939  17.184  0.00  0.00    +0.000 C 
ATOM      4  N   UNL     1       8.039   6.349  18.968  0.00  0.00    +0.000 N 
ATOM      5  C   UNL     1       7.706   5.417  19.899  0.00  0.00    +0.000 C 
ATOM      6  O   UNL     1       8.467   5.106  20.807  0.00  0.00    +0.000 OA
ATOM      7  N   UNL     1       6.462   4.890  19.800  0.00  0.00    +0.000 N 
ATOM      8  C   UNL     1       5.673   4.910  18.588  0.00  0.00    +0.000 C 
ATOM      9  H   UNL     1       8.940   6.787  19.129  0.00  0.00    +0.000 HD
ATOM     10  H   UNL     1       6.292   4.149  20.462  0.00  0.00    +0.000 HD
ENDROOT
BRANCH   8  11
ATOM     11  C   UNL     1       4.183   4.762  18.955  0.00  0.00    +0.000 A 
ATOM     12  C   UNL     1       3.568   5.721  19.784  0.00  0.00    +0.000 A 
ATOM     13  C   UNL     1       2.179   5.822  19.845  0.00  0.00    +0.000 A 
ATOM     14 BR   UNL     1       1.383   7.284  20.739  0.00  0.00    +0.000 Br
ATOM     15  C   UNL     1       1.380   4.912  19.172  0.00  0.00    +0.000 A 
ATOM     16  C   UNL     1       1.972   3.861  18.476  0.00  0.00    +0.000 A 
ATOM     17  C   UNL     1       3.370   3.744  18.389  0.00  0.00    +0.000 A 
BRANCH  17  18
ATOM     18  O   UNL     1       3.969   2.668  17.762  0.00  0.00    +0.000 OA
BRANCH  18  19
ATOM     19  C   UNL     1       3.932   1.413  18.503  0.00  0.00    +0.000 C 
BRANCH  19  20
ATOM     20  C   UNL     1       4.588   1.549  19.868  0.00  0.00    +0.000 C 
ATOM     21  N   UNL     1       5.131   1.662  21.000  0.00  0.00    +0.000 NA
ENDBRANCH  19  20
ENDBRANCH  18  19
ENDBRANCH  17  18
ENDBRANCH   8  11
BRANCH   1  23
ATOM     22  C   UNL     1       5.401   5.725  15.180  0.00  0.00    +0.000 C 
ATOM     23  C   UNL     1       5.245   6.463  16.494  0.00  0.00    +0.000 C 
ATOM     24  O   UNL     1       4.419   7.374  16.560  0.00  0.00    +0.000 OA
ENDBRANCH   1  23
TORSDOF 5
ENDMDL
MODEL 5
REMARK VINA RESULT:      -6.3      2.195      4.410
REMARK  Name = 
REMARK  7 active torsions:
REMARK  status: ('A' for Active; 'I' for Inactive)
REMARK    1  A    between atoms: C_1  and  C_2
REMARK    2  A    between atoms: C_2  and  C_4
REMARK    3  A    between atoms: C_5  and  C_6
REMARK    4  A    between atoms: C_11  and  C_12
REMARK    5  A    between atoms: C_18  and  O_19
REMARK    6  A    between atoms: O_19  and  C_20
REMARK    7  A    between atoms: C_20  and  C_21
REMARK                            x       y       z     vdW  Elec       q    Type
REMARK                         _______ _______ _______ _____ _____    ______ ____
ROOT
ATOM      1  C   UNL     1       4.783   5.307  16.872  0.00  0.00    +0.000 C 
ATOM      2  C   UNL     1       5.515   4.180  16.670  0.00  0.00    +0.000 C 
ATOM      3  C   UNL     1       6.917   4.025  16.125  0.00  0.00    +0.000 C 
ATOM      4  N   UNL     1       4.940   2.969  16.978  0.00  0.00    +0.000 N 
ATOM      5  C   UNL     1       3.754   2.790  17.617  0.00  0.00    +0.000 C 
ATOM      6  O   UNL     1       3.311   1.674  17.860  0.00  0.00    +0.000 OA
ATOM      7  N   UNL     1       3.116   3.914  18.020  0.00  0.00    +0.000 N 
ATOM      8  C   UNL     1       3.361   5.225  17.461  0.00  0.00    +0.000 C 
ATOM      9  H   UNL     1       5.433   2.106  16.775  0.00  0.00    +0.000 HD
ATOM     10  H   UNL     1       2.206   3.732  18.416  0.00  0.00    +0.000 HD
ENDROOT
BRANCH   8  11
ATOM     11  C   UNL     1       2.923   6.296  18.478  0.00  0.00    +0.000 A 
ATOM     12  C   UNL     1       2.671   7.613  18.043  0.00  0.00    +0.000 A 
ATOM     13  C   UNL     1       1.947   8.498  18.839  0.00  0.00    +0.000 A 
ATOM     14 BR   UNL     1       1.383  10.154  18.125  0.00  0.00    +0.000 Br
ATOM     15  C   UNL     1       1.553   8.132  20.116  0.00  0.00    +0.000 A 
ATOM     16  C   UNL     1       1.931   6.891  20.621  0.00  0.00    +0.000 A 
ATOM     17  C   UNL     1       2.652   5.975  19.835  0.00  0.00    +0.000 A 
BRANCH  17  18
ATOM     18  O   UNL     1       3.094   4.770  20.348  0.00  0.00    +0.000 OA
BRANCH  18  19
ATOM     19  C   UNL     1       2.119   4.035  21.144  0.00  0.00    +0.000 C 
BRANCH  19  20
ATOM     20  C   UNL     1       1.157   3.250  20.267  0.00  0.00    +0.000 C 
ATOM     21  N   UNL     1       0.358   2.600  19.541  0.00  0.00    +0.000 NA
ENDBRANCH  19  20
ENDBRANCH  18  19
ENDBRANCH  17  18
ENDBRANCH   8  11
BRANCH   1  23
ATOM     22  C   UNL     1       6.352   7.352  17.362  0.00  0.00    +0.000 C 
ATOM     23  C   UNL     1       5.354   6.644  16.467  0.00  0.00    +0.000 C 
ATOM     24  O   UNL     1       5.021   7.191  15.415  0.00  0.00    +0.000 OA
ENDBRANCH   1  23
TORSDOF 5
ENDMDL
MODEL 6
REMARK VINA RESULT:      -6.0      3.306      4.727
REMARK  Name = 
REMARK  7 active torsions:
REMARK  status: ('A' for Active; 'I' for Inactive)
REMARK    1  A    between atoms: C_1  and  C_2
REMARK    2  A    between atoms: C_2  and  C_4
REMARK    3  A    between atoms: C_5  and  C_6
REMARK    4  A    between atoms: C_11  and  C_12
REMARK    5  A    between atoms: C_18  and  O_19
REMARK    6  A    between atoms: O_19  and  C_20
REMARK    7  A    between atoms: C_20  and  C_21
REMARK                            x       y       z     vdW  Elec       q    Type
REMARK                         _______ _______ _______ _____ _____    ______ ____
ROOT
ATOM      1  C   UNL     1       3.216   4.180  18.849  0.00  0.00    +0.000 C 
ATOM      2  C   UNL     1       2.564   3.205  19.536  0.00  0.00    +0.000 C 
ATOM      3  C   UNL     1       1.081   2.945  19.667  0.00  0.00    +0.000 C 
ATOM      4  N   UNL     1       3.315   2.300  20.248  0.00  0.00    +0.000 N 
ATOM      5  C   UNL     1       4.669   2.184  20.211  0.00  0.00    +0.000 C 
ATOM      6  O   UNL     1       5.266   1.345  20.874  0.00  0.00    +0.000 OA
ATOM      7  N   UNL     1       5.318   3.012  19.358  0.00  0.00    +0.000 N 
ATOM      8  C   UNL     1       4.756   4.242  18.846  0.00  0.00    +0.000 C 
ATOM      9  H   UNL     1       2.859   1.603  20.826  0.00  0.00    +0.000 HD
ATOM     10  H   UNL     1       6.321   2.943  19.426  0.00  0.00    +0.000 HD
ENDROOT
BRANCH   8  11
ATOM     11  C   UNL     1       5.475   4.617  17.535  0.00  0.00    +0.000 A 
ATOM     12  C   UNL     1       5.250   3.854  16.372  0.00  0.00    +0.000 A 
ATOM     13  C   UNL     1       5.586   4.357  15.116  0.00  0.00    +0.000 A 
ATOM     14 BR   UNL     1       5.024   3.444  13.560  0.00  0.00    +0.000 Br
ATOM     15  C   UNL     1       6.243   5.571  15.000  0.00  0.00    +0.000 A 
ATOM     16  C   UNL     1       6.614   6.263  16.150  0.00  0.00    +0.000 A 
ATOM     17  C   UNL     1       6.277   5.784  17.427  0.00  0.00    +0.000 A 
BRANCH  17  18
ATOM     18  O   UNL     1       6.700   6.424  18.576  0.00  0.00    +0.000 OA
BRANCH  18  19
ATOM     19  C   UNL     1       8.100   6.831  18.585  0.00  0.00    +0.000 C 
BRANCH  19  20
ATOM     20  C   UNL     1       8.254   8.317  18.306  0.00  0.00    +0.000 C 
ATOM     21  N   UNL     1       8.380   9.550  18.075  0.00  0.00    +0.000 NA
ENDBRANCH  19  20
ENDBRANCH  18  19
ENDBRANCH  17  18
ENDBRANCH   8  11
BRANCH   1  23
ATOM     22  C   UNL     1       2.682   6.706  18.386  0.00  0.00    +0.000 C 
ATOM     23  C   UNL     1       2.418   5.237  18.126  0.00  0.00    +0.000 C 
ATOM     24  O   UNL     1       1.537   4.935  17.320  0.00  0.00    +0.000 OA
ENDBRANCH   1  23
TORSDOF 5
ENDMDL
MODEL 7
REMARK VINA RESULT:      -6.0      2.901      4.494
REMARK  Name = 
REMARK  7 active torsions:
REMARK  status: ('A' for Active; 'I' for Inactive)
REMARK    1  A    between atoms: C_1  and  C_2
REMARK    2  A    between atoms: C_2  and  C_4
REMARK    3  A    between atoms: C_5  and  C_6
REMARK    4  A    between atoms: C_11  and  C_12
REMARK    5  A    between atoms: C_18  and  O_19
REMARK    6  A    between atoms: O_19  and  C_20
REMARK    7  A    between atoms: C_20  and  C_21
REMARK                            x       y       z     vdW  Elec       q    Type
REMARK                         _______ _______ _______ _____ _____    ______ ____
ROOT
ATOM      1  C   UNL     1       3.398   4.880  19.813  0.00  0.00    +0.000 C 
ATOM      2  C   UNL     1       2.640   3.867  20.310  0.00  0.00    +0.000 C 
ATOM      3  C   UNL     1       1.155   3.823  20.591  0.00  0.00    +0.000 C 
ATOM      4  N   UNL     1       3.267   2.688  20.636  0.00  0.00    +0.000 N 
ATOM      5  C   UNL     1       4.561   2.372  20.366  0.00  0.00    +0.000 C 
ATOM      6  O   UNL     1       5.045   1.293  20.687  0.00  0.00    +0.000 OA
ATOM      7  N   UNL     1       5.269   3.294  19.672  0.00  0.00    +0.000 N 
ATOM      8  C   UNL     1       4.912   4.693  19.593  0.00  0.00    +0.000 C 
ATOM      9  H   UNL     1       2.743   1.938  21.073  0.00  0.00    +0.000 HD
ATOM     10  H   UNL     1       6.242   3.048  19.567  0.00  0.00    +0.000 HD
ENDROOT
BRANCH   8  11
ATOM     11  C   UNL     1       5.554   5.306  18.333  0.00  0.00    +0.000 A 
ATOM     12  C   UNL     1       6.148   6.582  18.401  0.00  0.00    +0.000 A 
ATOM     13  C   UNL     1       7.031   7.008  17.411  0.00  0.00    +0.000 A 
ATOM     14 BR   UNL     1       8.026   8.596  17.661  0.00  0.00    +0.000 Br
ATOM     15  C   UNL     1       7.258   6.227  16.289  0.00  0.00    +0.000 A 
ATOM     16  C   UNL     1       6.556   5.035  16.131  0.00  0.00    +0.000 A 
ATOM     17  C   UNL     1       5.669   4.576  17.120  0.00  0.00    +0.000 A 
BRANCH  17  18
ATOM     18  O   UNL     1       4.915   3.432  16.943  0.00  0.00    +0.000 OA
BRANCH  18  19
ATOM     19  C   UNL     1       3.559   3.647  16.453  0.00  0.00    +0.000 C 
BRANCH  19  20
ATOM     20  C   UNL     1       2.561   2.736  17.149  0.00  0.00    +0.000 C 
ATOM     21  N   UNL     1       1.733   1.981  17.727  0.00  0.00    +0.000 NA
ENDBRANCH  19  20
ENDBRANCH  18  19
ENDBRANCH  17  18
ENDBRANCH   8  11
BRANCH   1  23
ATOM     22  C   UNL     1       2.449   6.622  18.095  0.00  0.00    +0.000 C 
ATOM     23  C   UNL     1       2.754   6.214  19.522  0.00  0.00    +0.000 C 
ATOM     24  O   UNL     1       2.471   7.000  20.428  0.00  0.00    +0.000 OA
ENDBRANCH   1  23
TORSDOF 5
ENDMDL
MODEL 8
REMARK VINA RESULT:      -5.9      3.167      4.758
REMARK  Name = 
REMARK  7 active torsions:
REMARK  status: ('A' for Active; 'I' for Inactive)
REMARK    1  A    between atoms: C_1  and  C_2
REMARK    2  A    between atoms: C_2  and  C_4
REMARK    3  A    between atoms: C_5  and  C_6
REMARK    4  A    between atoms: C_11  and  C_12
REMARK    5  A    between atoms: C_18  and  O_19
REMARK    6  A    between atoms: O_19  and  C_20
REMARK    7  A    between atoms: C_20  and  C_21
REMARK                            x       y       z     vdW  Elec       q    Type
REMARK                         _______ _______ _______ _____ _____    ______ ____
ROOT
ATOM      1  C   UNL     1       3.061   3.998  18.620  0.00  0.00    +0.000 C 
ATOM      2  C   UNL     1       2.496   2.985  19.327  0.00  0.00    +0.000 C 
ATOM      3  C   UNL     1       1.040   2.600  19.464  0.00  0.00    +0.000 C 
ATOM      4  N   UNL     1       3.322   2.164  20.057  0.00  0.00    +0.000 N 
ATOM      5  C   UNL     1       4.681   2.166  20.022  0.00  0.00    +0.000 C 
ATOM      6  O   UNL     1       5.348   1.395  20.703  0.00  0.00    +0.000 OA
ATOM      7  N   UNL     1       5.256   3.029  19.152  0.00  0.00    +0.000 N 
ATOM      8  C   UNL     1       4.590   4.195  18.615  0.00  0.00    +0.000 C 
ATOM      9  H   UNL     1       2.927   1.442  20.650  0.00  0.00    +0.000 HD
ATOM     10  H   UNL     1       6.262   3.050  19.221  0.00  0.00    +0.000 HD
ENDROOT
BRANCH   8  11
ATOM     11  C   UNL     1       5.275   4.603  17.296  0.00  0.00    +0.000 A 
ATOM     12  C   UNL     1       5.133   3.791  16.153  0.00  0.00    +0.000 A 
ATOM     13  C   UNL     1       5.424   4.291  14.885  0.00  0.00    +0.000 A 
ATOM     14 BR   UNL     1       4.964   3.285  13.353  0.00  0.00    +0.000 Br
ATOM     15  C   UNL     1       5.958   5.560  14.738  0.00  0.00    +0.000 A 
ATOM     16  C   UNL     1       6.252   6.317  15.869  0.00  0.00    +0.000 A 
ATOM     17  C   UNL     1       5.958   5.841  17.158  0.00  0.00    +0.000 A 
BRANCH  17  18
ATOM     18  O   UNL     1       6.310   6.551  18.290  0.00  0.00    +0.000 OA
BRANCH  18  19
ATOM     19  C   UNL     1       7.738   6.592  18.583  0.00  0.00    +0.000 C 
BRANCH  19  20
ATOM     20  C   UNL     1       8.076   5.794  19.833  0.00  0.00    +0.000 C 
ATOM     21  N   UNL     1       8.357   5.133  20.868  0.00  0.00    +0.000 NA
ENDBRANCH  19  20
ENDBRANCH  18  19
ENDBRANCH  17  18
ENDBRANCH   8  11
BRANCH   1  23
ATOM     22  C   UNL     1       2.370   6.461  18.036  0.00  0.00    +0.000 C 
ATOM     23  C   UNL     1       2.175   4.967  17.875  0.00  0.00    +0.000 C 
ATOM     24  O   UNL     1       1.277   4.571  17.131  0.00  0.00    +0.000 OA
ENDBRANCH   1  23
TORSDOF 5
ENDMDL
MODEL 9
REMARK VINA RESULT:      -5.9      3.110      5.367
REMARK  Name = 
REMARK  7 active torsions:
REMARK  status: ('A' for Active; 'I' for Inactive)
REMARK    1  A    between atoms: C_1  and  C_2
REMARK    2  A    between atoms: C_2  and  C_4
REMARK    3  A    between atoms: C_5  and  C_6
REMARK    4  A    between atoms: C_11  and  C_12
REMARK    5  A    between atoms: C_18  and  O_19
REMARK    6  A    between atoms: O_19  and  C_20
REMARK    7  A    between atoms: C_20  and  C_21
REMARK                            x       y       z     vdW  Elec       q    Type
REMARK                         _______ _______ _______ _____ _____    ______ ____
ROOT
ATOM      1  C   UNL     1       2.256   6.808  19.442  0.00  0.00    +0.000 C 
ATOM      2  C   UNL     1       1.666   7.863  20.063  0.00  0.00    +0.000 C 
ATOM      3  C   UNL     1       1.194   7.998  21.493  0.00  0.00    +0.000 C 
ATOM      4  N   UNL     1       1.426   8.998  19.326  0.00  0.00    +0.000 N 
ATOM      5  C   UNL     1       1.863   9.235  18.061  0.00  0.00    +0.000 C 
ATOM      6  O   UNL     1       1.610  10.279  17.473  0.00  0.00    +0.000 OA
ATOM      7  N   UNL     1       2.641   8.275  17.508  0.00  0.00    +0.000 N 
ATOM      8  C   UNL     1       2.672   6.901  17.960  0.00  0.00    +0.000 C 
ATOM      9  H   UNL     1       0.926   9.777  19.741  0.00  0.00    +0.000 HD
ATOM     10  H   UNL     1       2.873   8.460  16.544  0.00  0.00    +0.000 HD
ENDROOT
BRANCH   8  11
ATOM     11  C   UNL     1       4.004   6.257  17.528  0.00  0.00    +0.000 A 
ATOM     12  C   UNL     1       5.179   7.034  17.498  0.00  0.00    +0.000 A 
ATOM     13  C   UNL     1       6.432   6.425  17.464  0.00  0.00    +0.000 A 
ATOM     14 BR   UNL     1       7.989   7.469  17.707  0.00  0.00    +0.000 Br
ATOM     15  C   UNL     1       6.540   5.049  17.352  0.00  0.00    +0.000 A 
ATOM     16  C   UNL     1       5.388   4.278  17.220  0.00  0.00    +0.000 A 
ATOM     17  C   UNL     1       4.112   4.866  17.263  0.00  0.00    +0.000 A 
BRANCH  17  18
ATOM     18  O   UNL     1       2.964   4.123  17.062  0.00  0.00    +0.000 OA
BRANCH  18  19
ATOM     19  C   UNL     1       2.965   2.797  17.668  0.00  0.00    +0.000 C 
BRANCH  19  20
ATOM     20  C   UNL     1       1.580   2.405  18.159  0.00  0.00    +0.000 C 
ATOM     21  N   UNL     1       0.433   2.080  18.567  0.00  0.00    +0.000 NA
ENDBRANCH  19  20
ENDBRANCH  18  19
ENDBRANCH  17  18
ENDBRANCH   8  11
BRANCH   1  23
ATOM     22  C   UNL     1       1.265   4.724  20.691  0.00  0.00    +0.000 C 
ATOM     23  C   UNL     1       2.458   5.518  20.200  0.00  0.00    +0.000 C 
ATOM     24  O   UNL     1       3.587   5.089  20.443  0.00  0.00    +0.000 OA
ENDBRANCH   1  23
TORSDOF 5
ENDMDL
