MODEL 1
REMARK VINA RESULT:      -5.5      0.000      0.000
REMARK  Name = 
REMARK  5 active torsions:
REMARK  status: ('A' for Active; 'I' for Inactive)
REMARK    1  A    between atoms: N_1  and  C_2
REMARK    2  A    between atoms: C_2  and  C_3
REMARK    3  A    between atoms: C_3  and  O_5
REMARK    4  A    between atoms: CA_8  and  C_9
REMARK    5  A    between atoms: C_9  and  OXT_11
REMARK                            x       y       z     vdW  Elec       q    Type
REMARK                         _______ _______ _______ _____ _____    ______ ____
ROOT
ATOM      1  C   UNL     1       6.953   6.278  17.545  0.00  0.00    +0.000 C 
ATOM      2  C   UNL     1       7.661   6.085  18.890  0.00  0.00    +0.000 C 
ATOM      3  N   UNL     1       6.870   5.031  19.570  0.00  0.00    +0.000 NA
ATOM      4  CA  UNL     1       5.444   5.377  19.244  0.00  0.00    +0.000 C 
ATOM      5  C   UNL     1       5.472   6.094  17.892  0.00  0.00    +0.000 C 
ATOM      6  H   UNL     1       7.007   5.156  20.582  0.00  0.00    +0.000 HD
ENDROOT
BRANCH   1   7
ATOM      7  N   UNL     1       7.157   7.618  16.963  0.00  0.00    +0.000 NA
ATOM      8  H   UNL     1       6.378   8.225  17.237  0.00  0.00    +0.000 HD
ATOM      9  H   UNL     1       7.187   7.599  15.947  0.00  0.00    +0.000 HD
ENDBRANCH   1   7
BRANCH   1  10
ATOM     10  C   UNL     1       7.457   5.209  16.529  0.00  0.00    +0.000 C 
ATOM     11  O   UNL     1       7.492   5.381  15.314  0.00  0.00    +0.000 OA
BRANCH  10  12
ATOM     12  O   UNL     1       7.925   4.068  17.086  0.00  0.00    +0.000 OA
ATOM     13  H   UNL     1       8.448   4.230  17.895  0.00  0.00    +0.000 HD
ENDBRANCH  10  12
ENDBRANCH   1  10
BRANCH   4  14
ATOM     14  C   UNL     1       4.594   4.103  19.199  0.00  0.00    +0.000 C 
ATOM     15  O   UNL     1       3.568   3.929  19.833  0.00  0.00    +0.000 OA
BRANCH  14  16
ATOM     16  OXT UNL     1       5.110   3.176  18.354  0.00  0.00    +0.000 OA
ATOM     17  HXT UNL     1       5.528   2.460  18.884  0.00  0.00    +0.000 HD
ENDBRANCH  14  16
ENDBRANCH   4  14
TORSDOF 5
ENDMDL
MODEL 2
REMARK VINA RESULT:      -5.5      1.229      1.436
REMARK  Name = 
REMARK  5 active torsions:
REMARK  status: ('A' for Active; 'I' for Inactive)
REMARK    1  A    between atoms: N_1  and  C_2
REMARK    2  A    between atoms: C_2  and  C_3
REMARK    3  A    between atoms: C_3  and  O_5
REMARK    4  A    between atoms: CA_8  and  C_9
REMARK    5  A    between atoms: C_9  and  OXT_11
REMARK                            x       y       z     vdW  Elec       q    Type
REMARK                         _______ _______ _______ _____ _____    ______ ____
ROOT
ATOM      1  C   UNL     1       6.917   5.673  16.877  0.00  0.00    +0.000 C 
ATOM      2  C   UNL     1       7.592   4.891  18.009  0.00  0.00    +0.000 C 
ATOM      3  N   UNL     1       6.526   3.993  18.516  0.00  0.00    +0.000 NA
ATOM      4  CA  UNL     1       5.292   4.850  18.506  0.00  0.00    +0.000 C 
ATOM      5  C   UNL     1       5.486   5.875  17.387  0.00  0.00    +0.000 C 
ATOM      6  H   UNL     1       6.756   3.774  19.495  0.00  0.00    +0.000 HD
ENDROOT
BRANCH   1   7
ATOM      7  N   UNL     1       7.537   6.987  16.624  0.00  0.00    +0.000 NA
ATOM      8  H   UNL     1       6.801   7.679  16.457  0.00  0.00    +0.000 HD
ATOM      9  H   UNL     1       8.141   6.980  15.806  0.00  0.00    +0.000 HD
ENDBRANCH   1   7
BRANCH   1  10
ATOM     10  C   UNL     1       6.961   4.837  15.563  0.00  0.00    +0.000 C 
ATOM     11  O   UNL     1       6.341   3.792  15.394  0.00  0.00    +0.000 OA
BRANCH  10  12
ATOM     12  O   UNL     1       7.697   5.381  14.565  0.00  0.00    +0.000 OA
ATOM     13  H   UNL     1       8.547   4.921  14.430  0.00  0.00    +0.000 HD
ENDBRANCH  10  12
ENDBRANCH   1  10
BRANCH   4  14
ATOM     14  C   UNL     1       4.052   3.978  18.274  0.00  0.00    +0.000 C 
ATOM     15  O   UNL     1       2.937   4.228  18.696  0.00  0.00    +0.000 OA
BRANCH  14  16
ATOM     16  OXT UNL     1       4.334   2.883  17.524  0.00  0.00    +0.000 OA
ATOM     17  HXT UNL     1       4.741   2.199  18.102  0.00  0.00    +0.000 HD
ENDBRANCH  14  16
ENDBRANCH   4  14
TORSDOF 5
ENDMDL
MODEL 3
REMARK VINA RESULT:      -5.5      1.737      2.009
REMARK  Name = 
REMARK  5 active torsions:
REMARK  status: ('A' for Active; 'I' for Inactive)
REMARK    1  A    between atoms: N_1  and  C_2
REMARK    2  A    between atoms: C_2  and  C_3
REMARK    3  A    between atoms: C_3  and  O_5
REMARK    4  A    between atoms: CA_8  and  C_9
REMARK    5  A    between atoms: C_9  and  OXT_11
REMARK                            x       y       z     vdW  Elec       q    Type
REMARK                         _______ _______ _______ _____ _____    ______ ____
ROOT
ATOM      1  C   UNL     1       5.571   5.198  16.716  0.00  0.00    +0.000 C 
ATOM      2  C   UNL     1       5.201   6.071  17.920  0.00  0.00    +0.000 C 
ATOM      3  N   UNL     1       4.704   5.105  18.930  0.00  0.00    +0.000 NA
ATOM      4  CA  UNL     1       3.889   4.127  18.130  0.00  0.00    +0.000 C 
ATOM      5  C   UNL     1       4.500   4.102  16.727  0.00  0.00    +0.000 C 
ATOM      6  H   UNL     1       4.066   5.619  19.552  0.00  0.00    +0.000 HD
ENDROOT
BRANCH   1   7
ATOM      7  N   UNL     1       5.519   5.921  15.432  0.00  0.00    +0.000 NA
ATOM      8  H   UNL     1       5.975   6.832  15.540  0.00  0.00    +0.000 HD
ATOM      9  H   UNL     1       4.565   6.092  15.122  0.00  0.00    +0.000 HD
ENDBRANCH   1   7
BRANCH   1  10
ATOM     10  C   UNL     1       7.006   4.620  16.908  0.00  0.00    +0.000 C 
ATOM     11  O   UNL     1       7.849   4.571  16.019  0.00  0.00    +0.000 OA
BRANCH  10  12
ATOM     12  O   UNL     1       7.296   4.221  18.168  0.00  0.00    +0.000 OA
ATOM     13  H   UNL     1       8.256   4.149  18.330  0.00  0.00    +0.000 HD
ENDBRANCH  10  12
ENDBRANCH   1  10
BRANCH   4  14
ATOM     14  C   UNL     1       3.928   2.747  18.796  0.00  0.00    +0.000 C 
ATOM     15  O   UNL     1       3.032   1.922  18.739  0.00  0.00    +0.000 OA
BRANCH  14  16
ATOM     16  OXT UNL     1       5.092   2.533  19.458  0.00  0.00    +0.000 OA
ATOM     17  HXT UNL     1       5.329   1.582  19.386  0.00  0.00    +0.000 HD
ENDBRANCH  14  16
ENDBRANCH   4  14
TORSDOF 5
ENDMDL
MODEL 4
REMARK VINA RESULT:      -5.5      2.295      4.259
REMARK  Name = 
REMARK  5 active torsions:
REMARK  status: ('A' for Active; 'I' for Inactive)
REMARK    1  A    between atoms: N_1  and  C_2
REMARK    2  A    between atoms: C_2  and  C_3
REMARK    3  A    between atoms: C_3  and  O_5
REMARK    4  A    between atoms: CA_8  and  C_9
REMARK    5  A    between atoms: C_9  and  OXT_11
REMARK                            x       y       z     vdW  Elec       q    Type
REMARK                         _______ _______ _______ _____ _____    ______ ____
ROOT
ATOM      1  C   UNL     1       4.173   4.867  17.703  0.00  0.00    +0.000 C 
ATOM      2  C   UNL     1       4.159   3.409  17.232  0.00  0.00    +0.000 C 
ATOM      3  N   UNL     1       5.463   3.235  16.548  0.00  0.00    +0.000 NA
ATOM      4  CA  UNL     1       5.650   4.518  15.787  0.00  0.00    +0.000 C 
ATOM      5  C   UNL     1       4.907   5.600  16.574  0.00  0.00    +0.000 C 
ATOM      6  H   UNL     1       5.348   2.473  15.867  0.00  0.00    +0.000 HD
ENDROOT
BRANCH   1   7
ATOM      7  N   UNL     1       2.825   5.443  17.865  0.00  0.00    +0.000 NA
ATOM      8  H   UNL     1       2.586   5.981  17.026  0.00  0.00    +0.000 HD
ATOM      9  H   UNL     1       2.765   6.074  18.660  0.00  0.00    +0.000 HD
ENDBRANCH   1   7
BRANCH   1  10
ATOM     10  C   UNL     1       4.929   4.973  19.062  0.00  0.00    +0.000 C 
ATOM     11  O   UNL     1       6.084   4.597  19.235  0.00  0.00    +0.000 OA
BRANCH  10  12
ATOM     12  O   UNL     1       4.236   5.580  20.054  0.00  0.00    +0.000 OA
ATOM     13  H   UNL     1       4.667   5.489  20.925  0.00  0.00    +0.000 HD
ENDBRANCH  10  12
ENDBRANCH   1  10
BRANCH   4  14
ATOM     14  C   UNL     1       7.144   4.833  15.653  0.00  0.00    +0.000 C 
ATOM     15  O   UNL     1       7.657   5.377  14.689  0.00  0.00    +0.000 OA
BRANCH  14  16
ATOM     16  OXT UNL     1       7.847   4.445  16.746  0.00  0.00    +0.000 OA
ATOM     17  HXT UNL     1       8.177   5.245  17.212  0.00  0.00    +0.000 HD
ENDBRANCH  14  16
ENDBRANCH   4  14
TORSDOF 5
ENDMDL
MODEL 5
REMARK VINA RESULT:      -5.3      1.893      4.225
REMARK  Name = 
REMARK  5 active torsions:
REMARK  status: ('A' for Active; 'I' for Inactive)
REMARK    1  A    between atoms: N_1  and  C_2
REMARK    2  A    between atoms: C_2  and  C_3
REMARK    3  A    between atoms: C_3  and  O_5
REMARK    4  A    between atoms: CA_8  and  C_9
REMARK    5  A    between atoms: C_9  and  OXT_11
REMARK                            x       y       z     vdW  Elec       q    Type
REMARK                         _______ _______ _______ _____ _____    ______ ____
ROOT
ATOM      1  C   UNL     1       4.085   4.829  19.095  0.00  0.00    +0.000 C 
ATOM      2  C   UNL     1       3.472   4.906  17.692  0.00  0.00    +0.000 C 
ATOM      3  N   UNL     1       4.617   4.664  16.782  0.00  0.00    +0.000 NA
ATOM      4  CA  UNL     1       5.751   5.426  17.409  0.00  0.00    +0.000 C 
ATOM      5  C   UNL     1       5.472   5.454  18.914  0.00  0.00    +0.000 C 
ATOM      6  H   UNL     1       4.389   5.111  15.883  0.00  0.00    +0.000 HD
ENDROOT
BRANCH   1   7
ATOM      7  N   UNL     1       3.331   5.594  20.105  0.00  0.00    +0.000 NA
ATOM      8  H   UNL     1       2.662   4.972  20.569  0.00  0.00    +0.000 HD
ATOM      9  H   UNL     1       2.801   6.360  19.696  0.00  0.00    +0.000 HD
ENDBRANCH   1   7
BRANCH   1  10
ATOM     10  C   UNL     1       4.165   3.340  19.551  0.00  0.00    +0.000 C 
ATOM     11  O   UNL     1       3.220   2.716  20.024  0.00  0.00    +0.000 OA
BRANCH  10  12
ATOM     12  O   UNL     1       5.358   2.740  19.331  0.00  0.00    +0.000 OA
ATOM     13  H   UNL     1       6.093   3.177  19.803  0.00  0.00    +0.000 HD
ENDBRANCH  10  12
ENDBRANCH   1  10
BRANCH   4  14
ATOM     14  C   UNL     1       7.083   4.740  17.087  0.00  0.00    +0.000 C 
ATOM     15  O   UNL     1       7.586   4.683  15.978  0.00  0.00    +0.000 OA
BRANCH  14  16
ATOM     16  OXT UNL     1       7.660   4.203  18.191  0.00  0.00    +0.000 OA
ATOM     17  HXT UNL     1       7.669   3.224  18.100  0.00  0.00    +0.000 HD
ENDBRANCH  14  16
ENDBRANCH   4  14
TORSDOF 5
ENDMDL
MODEL 6
REMARK VINA RESULT:      -5.3      1.180      1.451
REMARK  Name = 
REMARK  5 active torsions:
REMARK  status: ('A' for Active; 'I' for Inactive)
REMARK    1  A    between atoms: N_1  and  C_2
REMARK    2  A    between atoms: C_2  and  C_3
REMARK    3  A    between atoms: C_3  and  O_5
REMARK    4  A    between atoms: CA_8  and  C_9
REMARK    5  A    between atoms: C_9  and  OXT_11
REMARK                            x       y       z     vdW  Elec       q    Type
REMARK                         _______ _______ _______ _____ _____    ______ ____
ROOT
ATOM      1  C   UNL     1       6.926   5.733  16.983  0.00  0.00    +0.000 C 
ATOM      2  C   UNL     1       7.540   4.940  18.142  0.00  0.00    +0.000 C 
ATOM      3  N   UNL     1       6.422   4.104  18.642  0.00  0.00    +0.000 NA
ATOM      4  CA  UNL     1       5.230   5.019  18.592  0.00  0.00    +0.000 C 
ATOM      5  C   UNL     1       5.496   6.013  17.459  0.00  0.00    +0.000 C 
ATOM      6  H   UNL     1       6.621   3.892  19.629  0.00  0.00    +0.000 HD
ENDROOT
BRANCH   1   7
ATOM      7  N   UNL     1       7.614   7.011  16.720  0.00  0.00    +0.000 NA
ATOM      8  H   UNL     1       7.391   7.673  17.470  0.00  0.00    +0.000 HD
ATOM      9  H   UNL     1       7.322   7.435  15.843  0.00  0.00    +0.000 HD
ENDBRANCH   1   7
BRANCH   1  10
ATOM     10  C   UNL     1       6.956   4.872  15.684  0.00  0.00    +0.000 C 
ATOM     11  O   UNL     1       7.528   5.207  14.652  0.00  0.00    +0.000 OA
BRANCH  10  12
ATOM     12  O   UNL     1       6.346   3.668  15.785  0.00  0.00    +0.000 OA
ATOM     13  H   UNL     1       6.978   2.935  15.915  0.00  0.00    +0.000 HD
ENDBRANCH  10  12
ENDBRANCH   1  10
BRANCH   4  14
ATOM     14  C   UNL     1       3.955   4.203  18.348  0.00  0.00    +0.000 C 
ATOM     15  O   UNL     1       3.658   3.676  17.290  0.00  0.00    +0.000 OA
BRANCH  14  16
ATOM     16  OXT UNL     1       3.184   4.120  19.461  0.00  0.00    +0.000 OA
ATOM     17  HXT UNL     1       3.733   4.342  20.246  0.00  0.00    +0.000 HD
ENDBRANCH  14  16
ENDBRANCH   4  14
TORSDOF 5
ENDMDL
MODEL 7
REMARK VINA RESULT:      -5.3      3.208      5.563
REMARK  Name = 
REMARK  5 active torsions:
REMARK  status: ('A' for Active; 'I' for Inactive)
REMARK    1  A    between atoms: N_1  and  C_2
REMARK    2  A    between atoms: C_2  and  C_3
REMARK    3  A    between atoms: C_3  and  O_5
REMARK    4  A    between atoms: CA_8  and  C_9
REMARK    5  A    between atoms: C_9  and  OXT_11
REMARK                            x       y       z     vdW  Elec       q    Type
REMARK                         _______ _______ _______ _____ _____    ______ ____
ROOT
ATOM      1  C   UNL     1       2.499   2.535  19.050  0.00  0.00    +0.000 C 
ATOM      2  C   UNL     1       3.721   1.610  19.063  0.00  0.00    +0.000 C 
ATOM      3  N   UNL     1       4.849   2.504  19.418  0.00  0.00    +0.000 NA
ATOM      4  CA  UNL     1       4.572   3.765  18.648  0.00  0.00    +0.000 C 
ATOM      5  C   UNL     1       3.053   3.850  18.490  0.00  0.00    +0.000 C 
ATOM      6  H   UNL     1       5.705   2.077  19.036  0.00  0.00    +0.000 HD
ENDROOT
BRANCH   1   7
ATOM      7  N   UNL     1       1.409   2.053  18.180  0.00  0.00    +0.000 NA
ATOM      8  H   UNL     1       1.794   1.401  17.490  0.00  0.00    +0.000 HD
ATOM      9  H   UNL     1       0.958   2.807  17.669  0.00  0.00    +0.000 HD
ENDBRANCH   1   7
BRANCH   1  10
ATOM     10  C   UNL     1       1.948   2.698  20.499  0.00  0.00    +0.000 C 
ATOM     11  O   UNL     1       2.641   2.623  21.508  0.00  0.00    +0.000 OA
BRANCH  10  12
ATOM     12  O   UNL     1       0.630   2.998  20.577  0.00  0.00    +0.000 OA
ATOM     13  H   UNL     1       0.374   3.730  19.984  0.00  0.00    +0.000 HD
ENDBRANCH  10  12
ENDBRANCH   1  10
BRANCH   4  14
ATOM     14  C   UNL     1       5.137   4.973  19.404  0.00  0.00    +0.000 C 
ATOM     15  O   UNL     1       6.321   5.168  19.618  0.00  0.00    +0.000 OA
BRANCH  14  16
ATOM     16  OXT UNL     1       4.161   5.824  19.806  0.00  0.00    +0.000 OA
ATOM     17  HXT UNL     1       4.499   6.746  19.749  0.00  0.00    +0.000 HD
ENDBRANCH  14  16
ENDBRANCH   4  14
TORSDOF 5
ENDMDL
MODEL 8
REMARK VINA RESULT:      -5.3      1.265      1.377
REMARK  Name = 
REMARK  5 active torsions:
REMARK  status: ('A' for Active; 'I' for Inactive)
REMARK    1  A    between atoms: N_1  and  C_2
REMARK    2  A    between atoms: C_2  and  C_3
REMARK    3  A    between atoms: C_3  and  O_5
REMARK    4  A    between atoms: CA_8  and  C_9
REMARK    5  A    between atoms: C_9  and  OXT_11
REMARK                            x       y       z     vdW  Elec       q    Type
REMARK                         _______ _______ _______ _____ _____    ______ ____
ROOT
ATOM      1  C   UNL     1       6.419   5.725  17.494  0.00  0.00    +0.000 C 
ATOM      2  C   UNL     1       6.482   5.498  19.008  0.00  0.00    +0.000 C 
ATOM      3  N   UNL     1       5.563   4.358  19.243  0.00  0.00    +0.000 NA
ATOM      4  CA  UNL     1       4.400   4.633  18.332  0.00  0.00    +0.000 C 
ATOM      5  C   UNL     1       4.956   5.427  17.149  0.00  0.00    +0.000 C 
ATOM      6  H   UNL     1       5.233   4.431  20.215  0.00  0.00    +0.000 HD
ENDROOT
BRANCH   1   7
ATOM      7  N   UNL     1       6.745   7.107  17.095  0.00  0.00    +0.000 NA
ATOM      8  H   UNL     1       7.540   7.092  16.449  0.00  0.00    +0.000 HD
ATOM      9  H   UNL     1       7.008   7.687  17.888  0.00  0.00    +0.000 HD
ENDBRANCH   1   7
BRANCH   1  10
ATOM     10  C   UNL     1       7.402   4.751  16.776  0.00  0.00    +0.000 C 
ATOM     11  O   UNL     1       7.517   4.668  15.557  0.00  0.00    +0.000 OA
BRANCH  10  12
ATOM     12  O   UNL     1       8.191   4.026  17.602  0.00  0.00    +0.000 OA
ATOM     13  H   UNL     1       8.862   4.570  18.058  0.00  0.00    +0.000 HD
ENDBRANCH  10  12
ENDBRANCH   1  10
BRANCH   4  14
ATOM     14  C   UNL     1       3.763   3.312  17.885  0.00  0.00    +0.000 C 
ATOM     15  O   UNL     1       2.802   3.220  17.139  0.00  0.00    +0.000 OA
BRANCH  14  16
ATOM     16  OXT UNL     1       4.400   2.236  18.409  0.00  0.00    +0.000 OA
ATOM     17  HXT UNL     1       4.114   2.121  19.343  0.00  0.00    +0.000 HD
ENDBRANCH  14  16
ENDBRANCH   4  14
TORSDOF 5
ENDMDL
MODEL 9
REMARK VINA RESULT:      -5.2      3.811      4.899
REMARK  Name = 
REMARK  5 active torsions:
REMARK  status: ('A' for Active; 'I' for Inactive)
REMARK    1  A    between atoms: N_1  and  C_2
REMARK    2  A    between atoms: C_2  and  C_3
REMARK    3  A    between atoms: C_3  and  O_5
REMARK    4  A    between atoms: CA_8  and  C_9
REMARK    5  A    between atoms: C_9  and  OXT_11
REMARK                            x       y       z     vdW  Elec       q    Type
REMARK                         _______ _______ _______ _____ _____    ______ ____
ROOT
ATOM      1  C   UNL     1       3.669   3.384  18.268  0.00  0.00    +0.000 C 
ATOM      2  C   UNL     1       2.948   2.135  17.749  0.00  0.00    +0.000 C 
ATOM      3  N   UNL     1       1.849   1.919  18.721  0.00  0.00    +0.000 NA
ATOM      4  CA  UNL     1       2.477   2.216  20.054  0.00  0.00    +0.000 C 
ATOM      5  C   UNL     1       3.587   3.237  19.791  0.00  0.00    +0.000 C 
ATOM      6  H   UNL     1       1.614   0.918  18.694  0.00  0.00    +0.000 HD
ENDROOT
BRANCH   1   7
ATOM      7  N   UNL     1       5.084   3.456  17.858  0.00  0.00    +0.000 NA
ATOM      8  H   UNL     1       5.450   2.506  17.748  0.00  0.00    +0.000 HD
ATOM      9  H   UNL     1       5.663   3.930  18.546  0.00  0.00    +0.000 HD
ENDBRANCH   1   7
BRANCH   1  10
ATOM     10  C   UNL     1       2.935   4.662  17.760  0.00  0.00    +0.000 C 
ATOM     11  O   UNL     1       3.507   5.694  17.424  0.00  0.00    +0.000 OA
BRANCH  10  12
ATOM     12  O   UNL     1       1.591   4.542  17.650  0.00  0.00    +0.000 OA
ATOM     13  H   UNL     1       1.129   5.400  17.709  0.00  0.00    +0.000 HD
ENDBRANCH  10  12
ENDBRANCH   1  10
BRANCH   4  14
ATOM     14  C   UNL     1       1.419   2.760  21.020  0.00  0.00    +0.000 C 
ATOM     15  O   UNL     1       1.401   2.550  22.221  0.00  0.00    +0.000 OA
BRANCH  14  16
ATOM     16  OXT UNL     1       0.493   3.522  20.386  0.00  0.00    +0.000 OA
ATOM     17  HXT UNL     1       0.698   3.536  19.425  0.00  0.00    +0.000 HD
ENDBRANCH  14  16
ENDBRANCH   4  14
TORSDOF 5
ENDMDL
