MODEL 1
REMARK VINA RESULT:      -8.0      0.000      0.000
REMARK  Name = 
REMARK  11 active torsions:
REMARK  status: ('A' for Active; 'I' for Inactive)
REMARK    1  A    between atoms: C_1  and  C_2
REMARK    2  A    between atoms: C_2  and  O_3
REMARK    3  A    between atoms: O_3  and  C_4
REMARK    4  A    between atoms: C_4  and  N_5
REMARK    5  A    between atoms: C_9  and  C_10
REMARK    6  A    between atoms: C_17  and  C_18
REMARK    7  A    between atoms: C_22  and  O_23
REMARK    8  A    between atoms: O_23  and  C_24
REMARK    9  A    between atoms: C_28  and  N_29
REMARK   10  A    between atoms: N_29  and  C_30
REMARK   11  A    between atoms: N_29  and  C_31
REMARK                            x       y       z     vdW  Elec       q    Type
REMARK                         _______ _______ _______ _____ _____    ______ ____
ROOT
ATOM      1  N   UNL     1       2.705   4.096  17.525  0.00  0.00    +0.000 N 
ATOM      2  O   UNL     1       3.504   3.288  16.711  0.00  0.00    +0.000 OA
ATOM      3  C   UNL     1       4.777   3.851  16.737  0.00  0.00    +0.000 A 
ATOM      4  O   UNL     1       5.753   3.418  16.158  0.00  0.00    +0.000 OA
ATOM      5  C   UNL     1       4.707   5.091  17.549  0.00  0.00    +0.000 A 
ATOM      6  C   UNL     1       3.428   5.177  17.934  0.00  0.00    +0.000 A 
ENDROOT
BRANCH   5   7
ATOM      7  C   UNL     1       5.775   6.017  17.896  0.00  0.00    +0.000 A 
ATOM      8  C   UNL     1       5.908   7.209  17.169  0.00  0.00    +0.000 A 
ATOM      9  C   UNL     1       7.030   8.019  17.347  0.00  0.00    +0.000 A 
ATOM     10  C   UNL     1       8.015   7.636  18.249  0.00  0.00    +0.000 A 
ATOM     11  F   UNL     1       9.107   8.397  18.395  0.00  0.00    +0.000 F 
ATOM     12  C   UNL     1       7.895   6.463  18.986  0.00  0.00    +0.000 A 
ATOM     13  C   UNL     1       6.771   5.650  18.811  0.00  0.00    +0.000 A 
ENDBRANCH   5   7
BRANCH   6  14
ATOM     14  C   UNL     1       2.847   6.259  18.714  0.00  0.00    +0.000 A 
ATOM     15  C   UNL     1       2.548   6.060  20.049  0.00  0.00    +0.000 A 
ATOM     16  C   UNL     1       1.950   7.117  20.681  0.00  0.00    +0.000 A 
ATOM     17  N   UNL     1       1.666   8.270  20.061  0.00  0.00    +0.000 NA
ATOM     18  C   UNL     1       2.047   8.382  18.773  0.00  0.00    +0.000 A 
ATOM     19  N   UNL     1       2.623   7.410  18.055  0.00  0.00    +0.000 NA
BRANCH  18  20
ATOM     20  O   UNL     1       1.860   9.585  18.102  0.00  0.00    +0.000 OA
BRANCH  20  21
ATOM     21  C   UNL     1       0.767  10.343  18.457  0.00  0.00    +0.000 A 
ATOM     22  C   UNL     1       0.963  11.339  19.404  0.00  0.00    +0.000 A 
ATOM     23  C   UNL     1      -0.115  12.133  19.783  0.00  0.00    +0.000 A 
ATOM     24  C   UNL     1      -1.378  11.936  19.202  0.00  0.00    +0.000 A 
ATOM     25  C   UNL     1      -1.617  10.921  18.262  0.00  0.00    +0.000 A 
ATOM     26  C   UNL     1      -0.520  10.108  17.950  0.00  0.00    +0.000 A 
BRANCH  25  27
ATOM     27  N   UNL     1      -2.851  10.711  17.674  0.00  0.00    +0.000 N 
ATOM     28  C   UNL     1      -2.996   9.913  16.457  0.00  0.00    +0.000 C 
ATOM     29  C   UNL     1      -4.062  11.370  18.140  0.00  0.00    +0.000 C 
ENDBRANCH  25  27
ENDBRANCH  20  21
ENDBRANCH  18  20
ENDBRANCH   6  14
BRANCH   1  30
ATOM     30  C   UNL     1       1.273   3.917  17.463  0.00  0.00    +0.000 C 
BRANCH  30  31
ATOM     31  O   UNL     1       0.858   2.650  17.979  0.00  0.00    +0.000 OA
BRANCH  31  33
ATOM     32  C   UNL     1       0.718   3.201  20.304  0.00  0.00    +0.000 C 
ATOM     33  C   UNL     1       1.423   2.365  19.256  0.00  0.00    +0.000 C 
ENDBRANCH  31  33
ENDBRANCH  30  31
ENDBRANCH   1  30
TORSDOF 8
ENDMDL
MODEL 2
REMARK VINA RESULT:      -7.9      0.984      1.822
REMARK  Name = 
REMARK  11 active torsions:
REMARK  status: ('A' for Active; 'I' for Inactive)
REMARK    1  A    between atoms: C_1  and  C_2
REMARK    2  A    between atoms: C_2  and  O_3
REMARK    3  A    between atoms: O_3  and  C_4
REMARK    4  A    between atoms: C_4  and  N_5
REMARK    5  A    between atoms: C_9  and  C_10
REMARK    6  A    between atoms: C_17  and  C_18
REMARK    7  A    between atoms: C_22  and  O_23
REMARK    8  A    between atoms: O_23  and  C_24
REMARK    9  A    between atoms: C_28  and  N_29
REMARK   10  A    between atoms: N_29  and  C_30
REMARK   11  A    between atoms: N_29  and  C_31
REMARK                            x       y       z     vdW  Elec       q    Type
REMARK                         _______ _______ _______ _____ _____    ______ ____
ROOT
ATOM      1  N   UNL     1       2.613   4.033  17.654  0.00  0.00    +0.000 N 
ATOM      2  O   UNL     1       3.384   3.215  16.823  0.00  0.00    +0.000 OA
ATOM      3  C   UNL     1       4.665   3.759  16.824  0.00  0.00    +0.000 A 
ATOM      4  O   UNL     1       5.623   3.313  16.225  0.00  0.00    +0.000 OA
ATOM      5  C   UNL     1       4.629   4.999  17.639  0.00  0.00    +0.000 A 
ATOM      6  C   UNL     1       3.361   5.103  18.049  0.00  0.00    +0.000 A 
ENDROOT
BRANCH   5   7
ATOM      7  C   UNL     1       5.718   5.909  17.965  0.00  0.00    +0.000 A 
ATOM      8  C   UNL     1       5.926   7.040  17.162  0.00  0.00    +0.000 A 
ATOM      9  C   UNL     1       7.071   7.821  17.331  0.00  0.00    +0.000 A 
ATOM     10  C   UNL     1       8.003   7.468  18.299  0.00  0.00    +0.000 A 
ATOM     11  F   UNL     1       9.117   8.198  18.438  0.00  0.00    +0.000 F 
ATOM     12  C   UNL     1       7.808   6.356  19.111  0.00  0.00    +0.000 A 
ATOM     13  C   UNL     1       6.662   5.574  18.946  0.00  0.00    +0.000 A 
ENDBRANCH   5   7
BRANCH   6  14
ATOM     14  C   UNL     1       2.811   6.192  18.842  0.00  0.00    +0.000 A 
ATOM     15  C   UNL     1       2.540   5.998  20.184  0.00  0.00    +0.000 A 
ATOM     16  C   UNL     1       1.970   7.061  20.829  0.00  0.00    +0.000 A 
ATOM     17  N   UNL     1       1.687   8.218  20.215  0.00  0.00    +0.000 NA
ATOM     18  C   UNL     1       2.040   8.326  18.919  0.00  0.00    +0.000 A 
ATOM     19  N   UNL     1       2.586   7.347  18.188  0.00  0.00    +0.000 NA
BRANCH  18  20
ATOM     20  O   UNL     1       1.854   9.531  18.252  0.00  0.00    +0.000 OA
BRANCH  20  21
ATOM     21  C   UNL     1       0.680  10.210  18.492  0.00  0.00    +0.000 A 
ATOM     22  C   UNL     1      -0.471   9.728  17.883  0.00  0.00    +0.000 A 
ATOM     23  C   UNL     1      -1.679  10.381  18.107  0.00  0.00    +0.000 A 
ATOM     24  C   UNL     1      -1.731  11.502  18.950  0.00  0.00    +0.000 A 
ATOM     25  C   UNL     1      -0.583  12.032  19.560  0.00  0.00    +0.000 A 
ATOM     26  C   UNL     1       0.621  11.381  19.264  0.00  0.00    +0.000 A 
BRANCH  25  27
ATOM     27  N   UNL     1      -0.611  13.133  20.397  0.00  0.00    +0.000 N 
ATOM     28  C   UNL     1       0.553  14.001  20.563  0.00  0.00    +0.000 C 
ATOM     29  C   UNL     1      -1.741  13.426  21.265  0.00  0.00    +0.000 C 
ENDBRANCH  25  27
ENDBRANCH  20  21
ENDBRANCH  18  20
ENDBRANCH   6  14
BRANCH   1  30
ATOM     30  C   UNL     1       1.178   3.876  17.620  0.00  0.00    +0.000 C 
BRANCH  30  31
ATOM     31  O   UNL     1       0.733   2.761  18.398  0.00  0.00    +0.000 OA
BRANCH  31  33
ATOM     32  C   UNL     1       1.109   2.948  20.754  0.00  0.00    +0.000 C 
ATOM     33  C   UNL     1       1.644   2.419  19.439  0.00  0.00    +0.000 C 
ENDBRANCH  31  33
ENDBRANCH  30  31
ENDBRANCH   1  30
TORSDOF 8
ENDMDL
MODEL 3
REMARK VINA RESULT:      -7.5      1.208      2.227
REMARK  Name = 
REMARK  11 active torsions:
REMARK  status: ('A' for Active; 'I' for Inactive)
REMARK    1  A    between atoms: C_1  and  C_2
REMARK    2  A    between atoms: C_2  and  O_3
REMARK    3  A    between atoms: O_3  and  C_4
REMARK    4  A    between atoms: C_4  and  N_5
REMARK    5  A    between atoms: C_9  and  C_10
REMARK    6  A    between atoms: C_17  and  C_18
REMARK    7  A    between atoms: C_22  and  O_23
REMARK    8  A    between atoms: O_23  and  C_24
REMARK    9  A    between atoms: C_28  and  N_29
REMARK   10  A    between atoms: N_29  and  C_30
REMARK   11  A    between atoms: N_29  and  C_31
REMARK                            x       y       z     vdW  Elec       q    Type
REMARK                         _______ _______ _______ _____ _____    ______ ____
ROOT
ATOM      1  N   UNL     1       2.798   3.787  17.551  0.00  0.00    +0.000 N 
ATOM      2  O   UNL     1       3.526   2.888  16.768  0.00  0.00    +0.000 OA
ATOM      3  C   UNL     1       4.812   3.412  16.670  0.00  0.00    +0.000 A 
ATOM      4  O   UNL     1       5.741   2.900  16.077  0.00  0.00    +0.000 OA
ATOM      5  C   UNL     1       4.822   4.720  17.370  0.00  0.00    +0.000 A 
ATOM      6  C   UNL     1       3.571   4.878  17.819  0.00  0.00    +0.000 A 
ENDROOT
BRANCH   5   7
ATOM      7  C   UNL     1       5.932   5.640  17.570  0.00  0.00    +0.000 A 
ATOM      8  C   UNL     1       6.881   5.361  18.565  0.00  0.00    +0.000 A 
ATOM      9  C   UNL     1       7.840   6.314  18.909  0.00  0.00    +0.000 A 
ATOM     10  C   UNL     1       7.848   7.542  18.260  0.00  0.00    +0.000 A 
ATOM     11  F   UNL     1       8.747   8.469  18.613  0.00  0.00    +0.000 F 
ATOM     12  C   UNL     1       6.922   7.833  17.263  0.00  0.00    +0.000 A 
ATOM     13  C   UNL     1       5.961   6.880  16.915  0.00  0.00    +0.000 A 
ENDBRANCH   5   7
BRANCH   6  14
ATOM     14  C   UNL     1       3.065   6.042  18.531  0.00  0.00    +0.000 A 
ATOM     15  C   UNL     1       2.897   5.990  19.902  0.00  0.00    +0.000 A 
ATOM     16  C   UNL     1       2.360   7.111  20.472  0.00  0.00    +0.000 A 
ATOM     17  N   UNL     1       2.014   8.194  19.762  0.00  0.00    +0.000 NA
ATOM     18  C   UNL     1       2.269   8.165  18.439  0.00  0.00    +0.000 A 
ATOM     19  N   UNL     1       2.775   7.118  17.777  0.00  0.00    +0.000 NA
BRANCH  18  20
ATOM     20  O   UNL     1       2.014   9.291  17.664  0.00  0.00    +0.000 OA
BRANCH  20  21
ATOM     21  C   UNL     1       1.051  10.164  18.116  0.00  0.00    +0.000 A 
ATOM     22  C   UNL     1      -0.276   9.807  17.917  0.00  0.00    +0.000 A 
ATOM     23  C   UNL     1      -1.281  10.659  18.367  0.00  0.00    +0.000 A 
ATOM     24  C   UNL     1      -0.952  11.853  19.027  0.00  0.00    +0.000 A 
ATOM     25  C   UNL     1       0.378  12.257  19.222  0.00  0.00    +0.000 A 
ATOM     26  C   UNL     1       1.358  11.401  18.704  0.00  0.00    +0.000 A 
BRANCH  25  27
ATOM     27  N   UNL     1       0.726  13.428  19.873  0.00  0.00    +0.000 N 
ATOM     28  C   UNL     1       1.986  13.555  20.603  0.00  0.00    +0.000 C 
ATOM     29  C   UNL     1      -0.185  14.556  19.990  0.00  0.00    +0.000 C 
ENDBRANCH  25  27
ENDBRANCH  20  21
ENDBRANCH  18  20
ENDBRANCH   6  14
BRANCH   1  30
ATOM     30  C   UNL     1       1.362   3.647  17.588  0.00  0.00    +0.000 C 
BRANCH  30  31
ATOM     31  O   UNL     1       0.933   2.670  18.539  0.00  0.00    +0.000 OA
BRANCH  31  33
ATOM     32  C   UNL     1       1.588   2.599  20.840  0.00  0.00    +0.000 C 
ATOM     33  C   UNL     1       0.663   3.231  19.820  0.00  0.00    +0.000 C 
ENDBRANCH  31  33
ENDBRANCH  30  31
ENDBRANCH   1  30
TORSDOF 8
ENDMDL
MODEL 4
REMARK VINA RESULT:      -7.5      1.519      2.362
REMARK  Name = 
REMARK  11 active torsions:
REMARK  status: ('A' for Active; 'I' for Inactive)
REMARK    1  A    between atoms: C_1  and  C_2
REMARK    2  A    between atoms: C_2  and  O_3
REMARK    3  A    between atoms: O_3  and  C_4
REMARK    4  A    between atoms: C_4  and  N_5
REMARK    5  A    between atoms: C_9  and  C_10
REMARK    6  A    between atoms: C_17  and  C_18
REMARK    7  A    between atoms: C_22  and  O_23
REMARK    8  A    between atoms: O_23  and  C_24
REMARK    9  A    between atoms: C_28  and  N_29
REMARK   10  A    between atoms: N_29  and  C_30
REMARK   11  A    between atoms: N_29  and  C_31
REMARK                            x       y       z     vdW  Elec       q    Type
REMARK                         _______ _______ _______ _____ _____    ______ ____
ROOT
ATOM      1  N   UNL     1       4.183   4.106  17.008  0.00  0.00    +0.000 N 
ATOM      2  O   UNL     1       5.229   3.511  16.298  0.00  0.00    +0.000 OA
ATOM      3  C   UNL     1       6.344   4.319  16.498  0.00  0.00    +0.000 A 
ATOM      4  O   UNL     1       7.454   4.116  16.049  0.00  0.00    +0.000 OA
ATOM      5  C   UNL     1       5.916   5.486  17.310  0.00  0.00    +0.000 A 
ATOM      6  C   UNL     1       4.609   5.295  17.522  0.00  0.00    +0.000 A 
ENDROOT
BRANCH   5   7
ATOM      7  C   UNL     1       6.716   6.596  17.806  0.00  0.00    +0.000 A 
ATOM      8  C   UNL     1       6.694   7.817  17.116  0.00  0.00    +0.000 A 
ATOM      9  C   UNL     1       7.592   8.830  17.451  0.00  0.00    +0.000 A 
ATOM     10  C   UNL     1       8.510   8.621  18.473  0.00  0.00    +0.000 A 
ATOM     11  F   UNL     1       9.394   9.582  18.773  0.00  0.00    +0.000 F 
ATOM     12  C   UNL     1       8.539   7.421  19.176  0.00  0.00    +0.000 A 
ATOM     13  C   UNL     1       7.640   6.405  18.843  0.00  0.00    +0.000 A 
ENDBRANCH   5   7
BRANCH   6  14
ATOM     14  C   UNL     1       3.722   6.204  18.231  0.00  0.00    +0.000 A 
ATOM     15  C   UNL     1       3.308   5.900  19.515  0.00  0.00    +0.000 A 
ATOM     16  C   UNL     1       2.428   6.786  20.074  0.00  0.00    +0.000 A 
ATOM     17  N   UNL     1       1.988   7.878  19.434  0.00  0.00    +0.000 NA
ATOM     18  C   UNL     1       2.495   8.114  18.207  0.00  0.00    +0.000 A 
ATOM     19  N   UNL     1       3.345   7.308  17.560  0.00  0.00    +0.000 NA
BRANCH  18  20
ATOM     20  O   UNL     1       2.145   9.276  17.530  0.00  0.00    +0.000 OA
BRANCH  20  21
ATOM     21  C   UNL     1       1.197  10.086  18.113  0.00  0.00    +0.000 A 
ATOM     22  C   UNL     1      -0.131   9.697  17.996  0.00  0.00    +0.000 A 
ATOM     23  C   UNL     1      -1.120  10.484  18.579  0.00  0.00    +0.000 A 
ATOM     24  C   UNL     1      -0.773  11.645  19.288  0.00  0.00    +0.000 A 
ATOM     25  C   UNL     1       0.556  12.081  19.403  0.00  0.00    +0.000 A 
ATOM     26  C   UNL     1       1.515  11.293  18.754  0.00  0.00    +0.000 A 
BRANCH  25  27
ATOM     27  N   UNL     1       0.921  13.220  20.099  0.00  0.00    +0.000 N 
ATOM     28  C   UNL     1       0.055  14.396  20.156  0.00  0.00    +0.000 C 
ATOM     29  C   UNL     1       2.234  13.377  20.705  0.00  0.00    +0.000 C 
ENDBRANCH  25  27
ENDBRANCH  20  21
ENDBRANCH  18  20
ENDBRANCH   6  14
BRANCH   1  30
ATOM     30  C   UNL     1       2.839   3.642  16.754  0.00  0.00    +0.000 C 
BRANCH  30  31
ATOM     31  O   UNL     1       2.592   2.350  17.315  0.00  0.00    +0.000 OA
BRANCH  31  33
ATOM     32  C   UNL     1       0.898   2.541  18.995  0.00  0.00    +0.000 C 
ATOM     33  C   UNL     1       2.381   2.394  18.724  0.00  0.00    +0.000 C 
ENDBRANCH  31  33
ENDBRANCH  30  31
ENDBRANCH   1  30
TORSDOF 8
ENDMDL
MODEL 5
REMARK VINA RESULT:      -7.4      0.966      1.439
REMARK  Name = 
REMARK  11 active torsions:
REMARK  status: ('A' for Active; 'I' for Inactive)
REMARK    1  A    between atoms: C_1  and  C_2
REMARK    2  A    between atoms: C_2  and  O_3
REMARK    3  A    between atoms: O_3  and  C_4
REMARK    4  A    between atoms: C_4  and  N_5
REMARK    5  A    between atoms: C_9  and  C_10
REMARK    6  A    between atoms: C_17  and  C_18
REMARK    7  A    between atoms: C_22  and  O_23
REMARK    8  A    between atoms: O_23  and  C_24
REMARK    9  A    between atoms: C_28  and  N_29
REMARK   10  A    between atoms: N_29  and  C_30
REMARK   11  A    between atoms: N_29  and  C_31
REMARK                            x       y       z     vdW  Elec       q    Type
REMARK                         _______ _______ _______ _____ _____    ______ ____
ROOT
ATOM      1  N   UNL     1       2.439   3.672  18.033  0.00  0.00    +0.000 N 
ATOM      2  O   UNL     1       3.109   2.671  17.325  0.00  0.00    +0.000 OA
ATOM      3  C   UNL     1       4.395   3.150  17.096  0.00  0.00    +0.000 A 
ATOM      4  O   UNL     1       5.281   2.552  16.520  0.00  0.00    +0.000 OA
ATOM      5  C   UNL     1       4.465   4.531  17.636  0.00  0.00    +0.000 A 
ATOM      6  C   UNL     1       3.244   4.769  18.129  0.00  0.00    +0.000 A 
ENDROOT
BRANCH   5   7
ATOM      7  C   UNL     1       5.599   5.443  17.667  0.00  0.00    +0.000 A 
ATOM      8  C   UNL     1       6.594   5.265  18.640  0.00  0.00    +0.000 A 
ATOM      9  C   UNL     1       7.585   6.230  18.817  0.00  0.00    +0.000 A 
ATOM     10  C   UNL     1       7.581   7.370  18.022  0.00  0.00    +0.000 A 
ATOM     11  F   UNL     1       8.513   8.312  18.214  0.00  0.00    +0.000 F 
ATOM     12  C   UNL     1       6.609   7.558  17.045  0.00  0.00    +0.000 A 
ATOM     13  C   UNL     1       5.616   6.592  16.864  0.00  0.00    +0.000 A 
ENDBRANCH   5   7
BRANCH   6  14
ATOM     14  C   UNL     1       2.797   6.019  18.725  0.00  0.00    +0.000 A 
ATOM     15  C   UNL     1       2.593   6.096  20.090  0.00  0.00    +0.000 A 
ATOM     16  C   UNL     1       2.116   7.294  20.546  0.00  0.00    +0.000 A 
ATOM     17  N   UNL     1       1.859   8.331  19.738  0.00  0.00    +0.000 NA
ATOM     18  C   UNL     1       2.144   8.172  18.430  0.00  0.00    +0.000 A 
ATOM     19  N   UNL     1       2.597   7.042  17.874  0.00  0.00    +0.000 NA
BRANCH  18  20
ATOM     20  O   UNL     1       1.983   9.241  17.555  0.00  0.00    +0.000 OA
BRANCH  20  21
ATOM     21  C   UNL     1       1.409  10.387  18.058  0.00  0.00    +0.000 A 
ATOM     22  C   UNL     1       2.247  11.470  18.288  0.00  0.00    +0.000 A 
ATOM     23  C   UNL     1       1.705  12.651  18.787  0.00  0.00    +0.000 A 
ATOM     24  C   UNL     1       0.327  12.745  19.038  0.00  0.00    +0.000 A 
ATOM     25  C   UNL     1      -0.544  11.662  18.843  0.00  0.00    +0.000 A 
ATOM     26  C   UNL     1       0.050  10.475  18.394  0.00  0.00    +0.000 A 
BRANCH  25  27
ATOM     27  N   UNL     1      -1.905  11.733  19.080  0.00  0.00    +0.000 N 
ATOM     28  C   UNL     1      -2.880  11.218  18.120  0.00  0.00    +0.000 C 
ATOM     29  C   UNL     1      -2.463  12.438  20.224  0.00  0.00    +0.000 C 
ENDBRANCH  25  27
ENDBRANCH  20  21
ENDBRANCH  18  20
ENDBRANCH   6  14
BRANCH   1  30
ATOM     30  C   UNL     1       1.005   3.570  18.163  0.00  0.00    +0.000 C 
BRANCH  30  31
ATOM     31  O   UNL     1       0.602   3.182  19.479  0.00  0.00    +0.000 OA
BRANCH  31  33
ATOM     32  C   UNL     1       1.521   2.722  21.641  0.00  0.00    +0.000 C 
ATOM     33  C   UNL     1       1.600   2.423  20.157  0.00  0.00    +0.000 C 
ENDBRANCH  31  33
ENDBRANCH  30  31
ENDBRANCH   1  30
TORSDOF 8
ENDMDL
MODEL 6
REMARK VINA RESULT:      -7.2      2.311      4.366
REMARK  Name = 
REMARK  11 active torsions:
REMARK  status: ('A' for Active; 'I' for Inactive)
REMARK    1  A    between atoms: C_1  and  C_2
REMARK    2  A    between atoms: C_2  and  O_3
REMARK    3  A    between atoms: O_3  and  C_4
REMARK    4  A    between atoms: C_4  and  N_5
REMARK    5  A    between atoms: C_9  and  C_10
REMARK    6  A    between atoms: C_17  and  C_18
REMARK    7  A    between atoms: C_22  and  O_23
REMARK    8  A    between atoms: O_23  and  C_24
REMARK    9  A    between atoms: C_28  and  N_29
REMARK   10  A    between atoms: N_29  and  C_30
REMARK   11  A    between atoms: N_29  and  C_31
REMARK                            x       y       z     vdW  Elec       q    Type
REMARK                         _______ _______ _______ _____ _____    ______ ____
ROOT
ATOM      1  N   UNL     1       4.351   5.768  16.784  0.00  0.00    +0.000 N 
ATOM      2  O   UNL     1       4.953   4.587  16.343  0.00  0.00    +0.000 OA
ATOM      3  C   UNL     1       4.459   3.571  17.157  0.00  0.00    +0.000 A 
ATOM      4  O   UNL     1       4.741   2.393  17.068  0.00  0.00    +0.000 OA
ATOM      5  C   UNL     1       3.575   4.197  18.172  0.00  0.00    +0.000 A 
ATOM      6  C   UNL     1       3.611   5.506  17.899  0.00  0.00    +0.000 A 
ENDROOT
BRANCH   5   7
ATOM      7  C   UNL     1       2.803   3.557  19.228  0.00  0.00    +0.000 A 
ATOM      8  C   UNL     1       1.401   3.604  19.172  0.00  0.00    +0.000 A 
ATOM      9  C   UNL     1       0.641   3.173  20.260  0.00  0.00    +0.000 A 
ATOM     10  C   UNL     1       1.281   2.699  21.398  0.00  0.00    +0.000 A 
ATOM     11  F   UNL     1       0.551   2.317  22.454  0.00  0.00    +0.000 F 
ATOM     12  C   UNL     1       2.668   2.635  21.466  0.00  0.00    +0.000 A 
ATOM     13  C   UNL     1       3.433   3.064  20.379  0.00  0.00    +0.000 A 
ENDBRANCH   5   7
BRANCH   6  14
ATOM     14  C   UNL     1       2.940   6.550  18.657  0.00  0.00    +0.000 A 
ATOM     15  C   UNL     1       2.698   6.374  20.007  0.00  0.00    +0.000 A 
ATOM     16  C   UNL     1       2.008   7.385  20.618  0.00  0.00    +0.000 A 
ATOM     17  N   UNL     1       1.589   8.478  19.966  0.00  0.00    +0.000 NA
ATOM     18  C   UNL     1       1.923   8.580  18.664  0.00  0.00    +0.000 A 
ATOM     19  N   UNL     1       2.578   7.646  17.965  0.00  0.00    +0.000 NA
BRANCH  18  20
ATOM     20  O   UNL     1       1.593   9.730  17.957  0.00  0.00    +0.000 OA
BRANCH  20  21
ATOM     21  C   UNL     1       0.416  10.361  18.290  0.00  0.00    +0.000 A 
ATOM     22  C   UNL     1       0.461  11.288  19.323  0.00  0.00    +0.000 A 
ATOM     23  C   UNL     1      -0.706  11.954  19.685  0.00  0.00    +0.000 A 
ATOM     24  C   UNL     1      -1.906  11.701  19.003  0.00  0.00    +0.000 A 
ATOM     25  C   UNL     1      -1.993  10.751  17.973  0.00  0.00    +0.000 A 
ATOM     26  C   UNL     1      -0.810  10.061  17.677  0.00  0.00    +0.000 A 
BRANCH  25  27
ATOM     27  N   UNL     1      -3.164  10.487  17.284  0.00  0.00    +0.000 N 
ATOM     28  C   UNL     1      -4.476  10.678  17.899  0.00  0.00    +0.000 C 
ATOM     29  C   UNL     1      -3.172   9.880  15.962  0.00  0.00    +0.000 C 
ENDBRANCH  25  27
ENDBRANCH  20  21
ENDBRANCH  18  20
ENDBRANCH   6  14
BRANCH   1  30
ATOM     30  C   UNL     1       4.886   7.022  16.309  0.00  0.00    +0.000 C 
BRANCH  30  31
ATOM     31  O   UNL     1       6.313   7.007  16.221  0.00  0.00    +0.000 OA
BRANCH  31  33
ATOM     32  C   UNL     1       7.490   6.362  18.203  0.00  0.00    +0.000 C 
ATOM     33  C   UNL     1       6.941   7.519  17.393  0.00  0.00    +0.000 C 
ENDBRANCH  31  33
ENDBRANCH  30  31
ENDBRANCH   1  30
TORSDOF 8
ENDMDL
MODEL 7
REMARK VINA RESULT:      -7.2      4.402      8.185
REMARK  Name = 
REMARK  11 active torsions:
REMARK  status: ('A' for Active; 'I' for Inactive)
REMARK    1  A    between atoms: C_1  and  C_2
REMARK    2  A    between atoms: C_2  and  O_3
REMARK    3  A    between atoms: O_3  and  C_4
REMARK    4  A    between atoms: C_4  and  N_5
REMARK    5  A    between atoms: C_9  and  C_10
REMARK    6  A    between atoms: C_17  and  C_18
REMARK    7  A    between atoms: C_22  and  O_23
REMARK    8  A    between atoms: O_23  and  C_24
REMARK    9  A    between atoms: C_28  and  N_29
REMARK   10  A    between atoms: N_29  and  C_30
REMARK   11  A    between atoms: N_29  and  C_31
REMARK                            x       y       z     vdW  Elec       q    Type
REMARK                         _______ _______ _______ _____ _____    ______ ____
ROOT
ATOM      1  N   UNL     1       0.713   9.290  20.900  0.00  0.00    +0.000 N 
ATOM      2  O   UNL     1       1.014   8.826  22.183  0.00  0.00    +0.000 OA
ATOM      3  C   UNL     1       0.343   9.665  23.068  0.00  0.00    +0.000 A 
ATOM      4  O   UNL     1       0.350   9.568  24.278  0.00  0.00    +0.000 OA
ATOM      5  C   UNL     1      -0.330  10.719  22.268  0.00  0.00    +0.000 A 
ATOM      6  C   UNL     1      -0.013  10.440  20.998  0.00  0.00    +0.000 A 
ENDROOT
BRANCH   5   7
ATOM      7  C   UNL     1      -1.176  11.811  22.725  0.00  0.00    +0.000 A 
ATOM      8  C   UNL     1      -0.636  13.104  22.812  0.00  0.00    +0.000 A 
ATOM      9  C   UNL     1      -1.359  14.127  23.426  0.00  0.00    +0.000 A 
ATOM     10  C   UNL     1      -2.616  13.857  23.952  0.00  0.00    +0.000 A 
ATOM     11  F   UNL     1      -3.295  14.832  24.570  0.00  0.00    +0.000 F 
ATOM     12  C   UNL     1      -3.172  12.585  23.865  0.00  0.00    +0.000 A 
ATOM     13  C   UNL     1      -2.451  11.558  23.249  0.00  0.00    +0.000 A 
ENDBRANCH   5   7
BRANCH   6  14
ATOM     14  C   UNL     1      -0.398  11.225  19.835  0.00  0.00    +0.000 A 
ATOM     15  C   UNL     1       0.399  12.276  19.420  0.00  0.00    +0.000 A 
ATOM     16  C   UNL     1      -0.077  12.990  18.355  0.00  0.00    +0.000 A 
ATOM     17  N   UNL     1      -1.235  12.703  17.745  0.00  0.00    +0.000 NA
ATOM     18  C   UNL     1      -1.911  11.625  18.191  0.00  0.00    +0.000 A 
ATOM     19  N   UNL     1      -1.547  10.868  19.232  0.00  0.00    +0.000 NA
BRANCH  18  20
ATOM     20  O   UNL     1      -3.073  11.225  17.542  0.00  0.00    +0.000 OA
BRANCH  20  21
ATOM     21  C   UNL     1      -4.272  11.584  18.116  0.00  0.00    +0.000 A 
ATOM     22  C   UNL     1      -5.433  11.220  17.446  0.00  0.00    +0.000 A 
ATOM     23  C   UNL     1      -6.666  11.557  17.997  0.00  0.00    +0.000 A 
ATOM     24  C   UNL     1      -6.730  12.241  19.221  0.00  0.00    +0.000 A 
ATOM     25  C   UNL     1      -5.577  12.648  19.910  0.00  0.00    +0.000 A 
ATOM     26  C   UNL     1      -4.357  12.341  19.295  0.00  0.00    +0.000 A 
BRANCH  25  27
ATOM     27  N   UNL     1      -5.616  13.320  21.119  0.00  0.00    +0.000 N 
ATOM     28  C   UNL     1      -6.390  12.817  22.253  0.00  0.00    +0.000 C 
ATOM     29  C   UNL     1      -5.008  14.629  21.305  0.00  0.00    +0.000 C 
ENDBRANCH  25  27
ENDBRANCH  20  21
ENDBRANCH  18  20
ENDBRANCH   6  14
BRANCH   1  30
ATOM     30  C   UNL     1       1.493   8.787  19.795  0.00  0.00    +0.000 C 
BRANCH  30  31
ATOM     31  O   UNL     1       1.945   7.448  20.011  0.00  0.00    +0.000 OA
BRANCH  31  33
ATOM     32  C   UNL     1       2.783   8.002  17.837  0.00  0.00    +0.000 C 
ATOM     33  C   UNL     1       2.672   6.928  18.901  0.00  0.00    +0.000 C 
ENDBRANCH  31  33
ENDBRANCH  30  31
ENDBRANCH   1  30
TORSDOF 8
ENDMDL
MODEL 8
REMARK VINA RESULT:      -7.2      1.669      2.463
REMARK  Name = 
REMARK  11 active torsions:
REMARK  status: ('A' for Active; 'I' for Inactive)
REMARK    1  A    between atoms: C_1  and  C_2
REMARK    2  A    between atoms: C_2  and  O_3
REMARK    3  A    between atoms: O_3  and  C_4
REMARK    4  A    between atoms: C_4  and  N_5
REMARK    5  A    between atoms: C_9  and  C_10
REMARK    6  A    between atoms: C_17  and  C_18
REMARK    7  A    between atoms: C_22  and  O_23
REMARK    8  A    between atoms: O_23  and  C_24
REMARK    9  A    between atoms: C_28  and  N_29
REMARK   10  A    between atoms: N_29  and  C_30
REMARK   11  A    between atoms: N_29  and  C_31
REMARK                            x       y       z     vdW  Elec       q    Type
REMARK                         _______ _______ _______ _____ _____    ______ ____
ROOT
ATOM      1  N   UNL     1       4.469   3.932  16.881  0.00  0.00    +0.000 N 
ATOM      2  O   UNL     1       5.513   3.495  16.061  0.00  0.00    +0.000 OA
ATOM      3  C   UNL     1       6.568   4.379  16.272  0.00  0.00    +0.000 A 
ATOM      4  O   UNL     1       7.660   4.316  15.744  0.00  0.00    +0.000 OA
ATOM      5  C   UNL     1       6.097   5.429  17.210  0.00  0.00    +0.000 A 
ATOM      6  C   UNL     1       4.827   5.105  17.477  0.00  0.00    +0.000 A 
ENDROOT
BRANCH   5   7
ATOM      7  C   UNL     1       6.832   6.558  17.760  0.00  0.00    +0.000 A 
ATOM      8  C   UNL     1       6.713   7.815  17.148  0.00  0.00    +0.000 A 
ATOM      9  C   UNL     1       7.548   8.865  17.530  0.00  0.00    +0.000 A 
ATOM     10  C   UNL     1       8.501   8.656  18.520  0.00  0.00    +0.000 A 
ATOM     11  F   UNL     1       9.325   9.655  18.862  0.00  0.00    +0.000 F 
ATOM     12  C   UNL     1       8.626   7.421  19.145  0.00  0.00    +0.000 A 
ATOM     13  C   UNL     1       7.790   6.367  18.766  0.00  0.00    +0.000 A 
ENDBRANCH   5   7
BRANCH   6  14
ATOM     14  C   UNL     1       3.914   5.867  18.316  0.00  0.00    +0.000 A 
ATOM     15  C   UNL     1       3.680   5.467  19.618  0.00  0.00    +0.000 A 
ATOM     16  C   UNL     1       2.762   6.213  20.306  0.00  0.00    +0.000 A 
ATOM     17  N   UNL     1       2.125   7.261  19.768  0.00  0.00    +0.000 NA
ATOM     18  C   UNL     1       2.465   7.603  18.509  0.00  0.00    +0.000 A 
ATOM     19  N   UNL     1       3.335   6.937  17.741  0.00  0.00    +0.000 NA
BRANCH  18  20
ATOM     20  O   UNL     1       1.904   8.734  17.928  0.00  0.00    +0.000 OA
BRANCH  20  21
ATOM     21  C   UNL     1       0.927   9.392  18.640  0.00  0.00    +0.000 A 
ATOM     22  C   UNL     1      -0.094   9.993  17.916  0.00  0.00    +0.000 A 
ATOM     23  C   UNL     1      -1.106  10.661  18.600  0.00  0.00    +0.000 A 
ATOM     24  C   UNL     1      -1.098  10.710  20.002  0.00  0.00    +0.000 A 
ATOM     25  C   UNL     1      -0.069  10.136  20.764  0.00  0.00    +0.000 A 
ATOM     26  C   UNL     1       0.960   9.524  20.037  0.00  0.00    +0.000 A 
BRANCH  25  27
ATOM     27  N   UNL     1      -0.043  10.169  22.147  0.00  0.00    +0.000 N 
ATOM     28  C   UNL     1       0.944   9.410  22.915  0.00  0.00    +0.000 C 
ATOM     29  C   UNL     1      -1.065  10.844  22.932  0.00  0.00    +0.000 C 
ENDBRANCH  25  27
ENDBRANCH  20  21
ENDBRANCH  18  20
ENDBRANCH   6  14
BRANCH   1  30
ATOM     30  C   UNL     1       3.155   3.375  16.662  0.00  0.00    +0.000 C 
BRANCH  30  31
ATOM     31  O   UNL     1       2.964   2.139  17.356  0.00  0.00    +0.000 OA
BRANCH  31  33
ATOM     32  C   UNL     1       1.101   2.345  18.846  0.00  0.00    +0.000 C 
ATOM     33  C   UNL     1       2.612   2.326  18.724  0.00  0.00    +0.000 C 
ENDBRANCH  31  33
ENDBRANCH  30  31
ENDBRANCH   1  30
TORSDOF 8
ENDMDL
MODEL 9
REMARK VINA RESULT:      -7.2      2.785      5.124
REMARK  Name = 
REMARK  11 active torsions:
REMARK  status: ('A' for Active; 'I' for Inactive)
REMARK    1  A    between atoms: C_1  and  C_2
REMARK    2  A    between atoms: C_2  and  O_3
REMARK    3  A    between atoms: O_3  and  C_4
REMARK    4  A    between atoms: C_4  and  N_5
REMARK    5  A    between atoms: C_9  and  C_10
REMARK    6  A    between atoms: C_17  and  C_18
REMARK    7  A    between atoms: C_22  and  O_23
REMARK    8  A    between atoms: O_23  and  C_24
REMARK    9  A    between atoms: C_28  and  N_29
REMARK   10  A    between atoms: N_29  and  C_30
REMARK   11  A    between atoms: N_29  and  C_31
REMARK                            x       y       z     vdW  Elec       q    Type
REMARK                         _______ _______ _______ _____ _____    ______ ____
ROOT
ATOM      1  N   UNL     1       5.650   6.520  16.716  0.00  0.00    +0.000 N 
ATOM      2  O   UNL     1       6.411   5.516  16.111  0.00  0.00    +0.000 OA
ATOM      3  C   UNL     1       5.684   4.338  16.255  0.00  0.00    +0.000 A 
ATOM      4  O   UNL     1       6.017   3.246  15.839  0.00  0.00    +0.000 OA
ATOM      5  C   UNL     1       4.468   4.652  17.045  0.00  0.00    +0.000 A 
ATOM      6  C   UNL     1       4.560   5.960  17.312  0.00  0.00    +0.000 A 
ENDROOT
BRANCH   5   7
ATOM      7  C   UNL     1       3.380   3.767  17.438  0.00  0.00    +0.000 A 
ATOM      8  C   UNL     1       2.059   4.230  17.356  0.00  0.00    +0.000 A 
ATOM      9  C   UNL     1       1.016   3.481  17.903  0.00  0.00    +0.000 A 
ATOM     10  C   UNL     1       1.297   2.274  18.531  0.00  0.00    +0.000 A 
ATOM     11  F   UNL     1       0.300   1.572  19.085  0.00  0.00    +0.000 F 
ATOM     12  C   UNL     1       2.600   1.794  18.612  0.00  0.00    +0.000 A 
ATOM     13  C   UNL     1       3.646   2.541  18.063  0.00  0.00    +0.000 A 
ENDBRANCH   5   7
BRANCH   6  14
ATOM     14  C   UNL     1       3.622   6.731  18.113  0.00  0.00    +0.000 A 
ATOM     15  C   UNL     1       3.364   6.358  19.419  0.00  0.00    +0.000 A 
ATOM     16  C   UNL     1       2.424   7.109  20.070  0.00  0.00    +0.000 A 
ATOM     17  N   UNL     1       1.788   8.139  19.495  0.00  0.00    +0.000 NA
ATOM     18  C   UNL     1       2.152   8.456  18.236  0.00  0.00    +0.000 A 
ATOM     19  N   UNL     1       3.044   7.782  17.502  0.00  0.00    +0.000 NA
BRANCH  18  20
ATOM     20  O   UNL     1       1.592   9.568  17.618  0.00  0.00    +0.000 OA
BRANCH  20  21
ATOM     21  C   UNL     1       0.815  10.398  18.393  0.00  0.00    +0.000 A 
ATOM     22  C   UNL     1      -0.561  10.211  18.345  0.00  0.00    +0.000 A 
ATOM     23  C   UNL     1      -1.381  11.024  19.121  0.00  0.00    +0.000 A 
ATOM     24  C   UNL     1      -0.821  12.007  19.952  0.00  0.00    +0.000 A 
ATOM     25  C   UNL     1       0.562  12.241  20.005  0.00  0.00    +0.000 A 
ATOM     26  C   UNL     1       1.349  11.440  19.166  0.00  0.00    +0.000 A 
BRANCH  25  27
ATOM     27  N   UNL     1       1.137  13.201  20.818  0.00  0.00    +0.000 N 
ATOM     28  C   UNL     1       0.337  14.005  21.741  0.00  0.00    +0.000 C 
ATOM     29  C   UNL     1       2.541  13.570  20.719  0.00  0.00    +0.000 C 
ENDBRANCH  25  27
ENDBRANCH  20  21
ENDBRANCH  18  20
ENDBRANCH   6  14
BRANCH   1  30
ATOM     30  C   UNL     1       6.282   7.794  16.966  0.00  0.00    +0.000 C 
BRANCH  30  31
ATOM     31  O   UNL     1       7.709   7.700  16.991  0.00  0.00    +0.000 OA
BRANCH  31  33
ATOM     32  C   UNL     1       8.507   9.593  18.220  0.00  0.00    +0.000 C 
ATOM     33  C   UNL     1       8.265   8.097  18.241  0.00  0.00    +0.000 C 
ENDBRANCH  31  33
ENDBRANCH  30  31
ENDBRANCH   1  30
TORSDOF 8
ENDMDL
