MODEL 1
REMARK VINA RESULT:      -8.6      0.000      0.000
REMARK  Name = 
REMARK  8 active torsions:
REMARK  status: ('A' for Active; 'I' for Inactive)
REMARK    1  A    between atoms: C_6  and  C_7
REMARK    2  A    between atoms: C_8  and  C_9
REMARK    3  A    between atoms: C_16  and  N_17
REMARK    4  A    between atoms: N_17  and  C_18
REMARK    5  A    between atoms: C_20  and  C_21
REMARK    6  A    between atoms: C_21  and  O_22
REMARK    7  A    between atoms: C_23  and  O_24
REMARK    8  A    between atoms: C_25  and  O_26
REMARK                            x       y       z     vdW  Elec       q    Type
REMARK                         _______ _______ _______ _____ _____    ______ ____
ROOT
ATOM      1  N   UNL     1       4.998   1.353  19.935  0.00  0.00    +0.000 N 
ATOM      2  C   UNL     1       4.429   2.600  19.810  0.00  0.00    +0.000 A 
ATOM      3  N   UNL     1       3.121   2.676  20.007  0.00  0.00    +0.000 NA
ATOM      4  C   UNL     1       2.580   3.889  19.826  0.00  0.00    +0.000 A 
ATOM      5 CL   UNL     1       0.863   3.866  20.039  0.00  0.00    +0.000 Cl
ATOM      6  C   UNL     1       3.269   5.035  19.467  0.00  0.00    +0.000 A 
ATOM      7  C   UNL     1       4.653   4.843  19.321  0.00  0.00    +0.000 A 
ATOM      8  N   UNL     1       5.214   3.630  19.455  0.00  0.00    +0.000 NA
ATOM      9  H   UNL     1       4.289   0.637  19.830  0.00  0.00    +0.000 HD
ATOM     10  H   UNL     1       5.825   1.262  19.359  0.00  0.00    +0.000 HD
ENDROOT
BRANCH   6  11
ATOM     11  C   UNL     1       2.577   6.305  19.164  0.00  0.00    +0.000 C 
ATOM     12  C   UNL     1       2.246   7.230  20.079  0.00  0.00    +0.000 C 
BRANCH  12  13
ATOM     13  C   UNL     1       1.496   8.457  19.742  0.00  0.00    +0.000 A 
ATOM     14  C   UNL     1       1.320   8.786  18.387  0.00  0.00    +0.000 A 
ATOM     15  C   UNL     1       0.552   9.896  18.010  0.00  0.00    +0.000 A 
ATOM     16  C   UNL     1      -0.051  10.691  18.982  0.00  0.00    +0.000 A 
ATOM     17  C   UNL     1       0.135  10.395  20.329  0.00  0.00    +0.000 A 
ATOM     18  C   UNL     1       0.912   9.290  20.711  0.00  0.00    +0.000 A 
ATOM     19 CL   UNL     1       1.113   8.993  22.403  0.00  0.00    +0.000 Cl
ENDBRANCH  12  13
ENDBRANCH   6  11
BRANCH   7  20
ATOM     20  N   UNL     1       5.450   5.918  18.952  0.00  0.00    +0.000 N 
ATOM     21  H   UNL     1       6.048   6.271  19.694  0.00  0.00    +0.000 HD
BRANCH  20  22
ATOM     22  C   UNL     1       5.821   6.359  17.609  0.00  0.00    +0.000 C 
ATOM     23  C   UNL     1       4.850   5.786  16.574  0.00  0.00    +0.000 C 
ATOM     24  C   UNL     1       5.693   5.342  15.379  0.00  0.00    +0.000 C 
ATOM     25  C   UNL     1       7.081   5.061  15.949  0.00  0.00    +0.000 C 
ATOM     26  C   UNL     1       7.246   6.084  17.084  0.00  0.00    +0.000 C 
BRANCH  25  27
ATOM     27  O   UNL     1       8.049   5.250  14.913  0.00  0.00    +0.000 OA
ATOM     28  H   UNL     1       7.737   4.749  14.134  0.00  0.00    +0.000 HD
ENDBRANCH  25  27
BRANCH  26  29
ATOM     29  O   UNL     1       7.810   7.298  16.529  0.00  0.00    +0.000 OA
ATOM     30  H   UNL     1       7.506   8.048  17.075  0.00  0.00    +0.000 HD
ENDBRANCH  26  29
BRANCH  24  31
ATOM     31  C   UNL     1       5.089   4.132  14.676  0.00  0.00    +0.000 C 
BRANCH  31  32
ATOM     32  O   UNL     1       6.087   3.471  13.903  0.00  0.00    +0.000 OA
ATOM     33  H   UNL     1       5.659   3.141  13.094  0.00  0.00    +0.000 HD
ENDBRANCH  31  32
ENDBRANCH  24  31
ENDBRANCH  20  22
ENDBRANCH   7  20
TORSDOF 8
ENDMDL
MODEL 2
REMARK VINA RESULT:      -8.5      1.308      1.659
REMARK  Name = 
REMARK  8 active torsions:
REMARK  status: ('A' for Active; 'I' for Inactive)
REMARK    1  A    between atoms: C_6  and  C_7
REMARK    2  A    between atoms: C_8  and  C_9
REMARK    3  A    between atoms: C_16  and  N_17
REMARK    4  A    between atoms: N_17  and  C_18
REMARK    5  A    between atoms: C_20  and  C_21
REMARK    6  A    between atoms: C_21  and  O_22
REMARK    7  A    between atoms: C_23  and  O_24
REMARK    8  A    between atoms: C_25  and  O_26
REMARK                            x       y       z     vdW  Elec       q    Type
REMARK                         _______ _______ _______ _____ _____    ______ ____
ROOT
ATOM      1  N   UNL     1       4.154   0.878  18.205  0.00  0.00    +0.000 N 
ATOM      2  C   UNL     1       3.787   2.069  18.789  0.00  0.00    +0.000 A 
ATOM      3  N   UNL     1       2.625   2.082  19.426  0.00  0.00    +0.000 NA
ATOM      4  C   UNL     1       2.262   3.267  19.938  0.00  0.00    +0.000 A 
ATOM      5 CL   UNL     1       0.703   3.194  20.686  0.00  0.00    +0.000 Cl
ATOM      6  C   UNL     1       2.994   4.438  19.861  0.00  0.00    +0.000 A 
ATOM      7  C   UNL     1       4.223   4.297  19.196  0.00  0.00    +0.000 A 
ATOM      8  N   UNL     1       4.592   3.133  18.636  0.00  0.00    +0.000 NA
ATOM      9  H   UNL     1       3.337   0.294  18.067  0.00  0.00    +0.000 HD
ATOM     10  H   UNL     1       4.749   1.026  17.402  0.00  0.00    +0.000 HD
ENDROOT
BRANCH   6  11
ATOM     11  C   UNL     1       2.463   5.731  20.342  0.00  0.00    +0.000 C 
ATOM     12  C   UNL     1       2.043   6.727  19.546  0.00  0.00    +0.000 C 
BRANCH  12  13
ATOM     13  C   UNL     1       1.580   8.029  20.069  0.00  0.00    +0.000 A 
ATOM     14  C   UNL     1       1.372   8.162  21.452  0.00  0.00    +0.000 A 
ATOM     15  C   UNL     1       1.008   9.395  22.009  0.00  0.00    +0.000 A 
ATOM     16  C   UNL     1       0.847  10.512  21.191  0.00  0.00    +0.000 A 
ATOM     17  C   UNL     1       1.023  10.391  19.816  0.00  0.00    +0.000 A 
ATOM     18  C   UNL     1       1.379   9.155  19.253  0.00  0.00    +0.000 A 
ATOM     19 CL   UNL     1       1.563   9.076  17.535  0.00  0.00    +0.000 Cl
ENDBRANCH  12  13
ENDBRANCH   6  11
BRANCH   7  20
ATOM     20  N   UNL     1       5.043   5.407  19.044  0.00  0.00    +0.000 N 
ATOM     21  H   UNL     1       5.651   5.591  19.837  0.00  0.00    +0.000 HD
BRANCH  20  22
ATOM     22  C   UNL     1       5.420   6.101  17.814  0.00  0.00    +0.000 C 
ATOM     23  C   UNL     1       4.579   5.595  16.639  0.00  0.00    +0.000 C 
ATOM     24  C   UNL     1       5.529   5.453  15.449  0.00  0.00    +0.000 C 
ATOM     25  C   UNL     1       6.912   5.247  16.061  0.00  0.00    +0.000 C 
ATOM     26  C   UNL     1       6.891   6.083  17.351  0.00  0.00    +0.000 C 
BRANCH  25  27
ATOM     27  O   UNL     1       7.897   5.713  15.136  0.00  0.00    +0.000 OA
ATOM     28  H   UNL     1       7.856   6.691  15.142  0.00  0.00    +0.000 HD
ENDBRANCH  25  27
BRANCH  26  29
ATOM     29  O   UNL     1       7.325   7.429  17.031  0.00  0.00    +0.000 OA
ATOM     30  H   UNL     1       8.300   7.449  17.078  0.00  0.00    +0.000 HD
ENDBRANCH  26  29
BRANCH  24  31
ATOM     31  C   UNL     1       5.116   4.311  14.527  0.00  0.00    +0.000 C 
BRANCH  31  32
ATOM     32  O   UNL     1       6.263   3.557  14.146  0.00  0.00    +0.000 OA
ATOM     33  H   UNL     1       5.996   2.966  13.421  0.00  0.00    +0.000 HD
ENDBRANCH  31  32
ENDBRANCH  24  31
ENDBRANCH  20  22
ENDBRANCH   7  20
TORSDOF 8
ENDMDL
MODEL 3
REMARK VINA RESULT:      -8.3      3.760      6.580
REMARK  Name = 
REMARK  8 active torsions:
REMARK  status: ('A' for Active; 'I' for Inactive)
REMARK    1  A    between atoms: C_6  and  C_7
REMARK    2  A    between atoms: C_8  and  C_9
REMARK    3  A    between atoms: C_16  and  N_17
REMARK    4  A    between atoms: N_17  and  C_18
REMARK    5  A    between atoms: C_20  and  C_21
REMARK    6  A    between atoms: C_21  and  O_22
REMARK    7  A    between atoms: C_23  and  O_24
REMARK    8  A    between atoms: C_25  and  O_26
REMARK                            x       y       z     vdW  Elec       q    Type
REMARK                         _______ _______ _______ _____ _____    ______ ____
ROOT
ATOM      1  N   UNL     1      -0.099   9.207  21.775  0.00  0.00    +0.000 N 
ATOM      2  C   UNL     1       0.777   8.569  20.927  0.00  0.00    +0.000 A 
ATOM      3  N   UNL     1       1.014   9.160  19.765  0.00  0.00    +0.000 NA
ATOM      4  C   UNL     1       1.826   8.492  18.933  0.00  0.00    +0.000 A 
ATOM      5 CL   UNL     1       2.015   9.313  17.422  0.00  0.00    +0.000 Cl
ATOM      6  C   UNL     1       2.424   7.272  19.195  0.00  0.00    +0.000 A 
ATOM      7  C   UNL     1       2.131   6.758  20.469  0.00  0.00    +0.000 A 
ATOM      8  N   UNL     1       1.287   7.385  21.305  0.00  0.00    +0.000 NA
ATOM      9  H   UNL     1      -0.679   9.853  21.251  0.00  0.00    +0.000 HD
ATOM     10  H   UNL     1      -0.577   8.552  22.377  0.00  0.00    +0.000 HD
ENDROOT
BRANCH   6  11
ATOM     11  C   UNL     1       3.204   6.544  18.173  0.00  0.00    +0.000 C 
ATOM     12  C   UNL     1       4.494   6.194  18.304  0.00  0.00    +0.000 C 
BRANCH  12  13
ATOM     13  C   UNL     1       5.255   5.524  17.230  0.00  0.00    +0.000 A 
ATOM     14  C   UNL     1       4.675   4.420  16.583  0.00  0.00    +0.000 A 
ATOM     15  C   UNL     1       5.320   3.796  15.507  0.00  0.00    +0.000 A 
ATOM     16  C   UNL     1       6.554   4.267  15.063  0.00  0.00    +0.000 A 
ATOM     17  C   UNL     1       7.155   5.342  15.710  0.00  0.00    +0.000 A 
ATOM     18  C   UNL     1       6.516   5.964  16.795  0.00  0.00    +0.000 A 
ATOM     19 CL   UNL     1       7.332   7.283  17.561  0.00  0.00    +0.000 Cl
ENDBRANCH  12  13
ENDBRANCH   6  11
BRANCH   7  20
ATOM     20  N   UNL     1       2.665   5.532  20.844  0.00  0.00    +0.000 N 
ATOM     21  H   UNL     1       3.411   5.592  21.531  0.00  0.00    +0.000 HD
BRANCH  20  22
ATOM     22  C   UNL     1       2.084   4.199  20.690  0.00  0.00    +0.000 C 
ATOM     23  C   UNL     1       3.185   3.136  20.697  0.00  0.00    +0.000 C 
ATOM     24  C   UNL     1       2.827   2.126  19.607  0.00  0.00    +0.000 C 
ATOM     25  C   UNL     1       1.964   2.898  18.612  0.00  0.00    +0.000 C 
ATOM     26  C   UNL     1       1.181   3.899  19.477  0.00  0.00    +0.000 C 
BRANCH  25  27
ATOM     27  O   UNL     1       1.099   1.976  17.944  0.00  0.00    +0.000 OA
ATOM     28  H   UNL     1       0.228   2.412  17.855  0.00  0.00    +0.000 HD
ENDBRANCH  25  27
BRANCH  26  29
ATOM     29  O   UNL     1      -0.044   3.263  19.918  0.00  0.00    +0.000 OA
ATOM     30  H   UNL     1      -0.381   2.716  19.182  0.00  0.00    +0.000 HD
ENDBRANCH  26  29
BRANCH  24  31
ATOM     31  C   UNL     1       4.069   1.519  18.964  0.00  0.00    +0.000 C 
BRANCH  31  32
ATOM     32  O   UNL     1       5.167   1.592  19.867  0.00  0.00    +0.000 OA
ATOM     33  H   UNL     1       5.983   1.586  19.337  0.00  0.00    +0.000 HD
ENDBRANCH  31  32
ENDBRANCH  24  31
ENDBRANCH  20  22
ENDBRANCH   7  20
TORSDOF 8
ENDMDL
MODEL 4
REMARK VINA RESULT:      -8.1      1.661      2.501
REMARK  Name = 
REMARK  8 active torsions:
REMARK  status: ('A' for Active; 'I' for Inactive)
REMARK    1  A    between atoms: C_6  and  C_7
REMARK    2  A    between atoms: C_8  and  C_9
REMARK    3  A    between atoms: C_16  and  N_17
REMARK    4  A    between atoms: N_17  and  C_18
REMARK    5  A    between atoms: C_20  and  C_21
REMARK    6  A    between atoms: C_21  and  O_22
REMARK    7  A    between atoms: C_23  and  O_24
REMARK    8  A    between atoms: C_25  and  O_26
REMARK                            x       y       z     vdW  Elec       q    Type
REMARK                         _______ _______ _______ _____ _____    ______ ____
ROOT
ATOM      1  N   UNL     1       3.707   0.295  18.645  0.00  0.00    +0.000 N 
ATOM      2  C   UNL     1       3.422   1.641  18.615  0.00  0.00    +0.000 A 
ATOM      3  N   UNL     1       2.452   2.059  19.416  0.00  0.00    +0.000 NA
ATOM      4  C   UNL     1       2.154   3.363  19.328  0.00  0.00    +0.000 A 
ATOM      5 CL   UNL     1       0.832   3.791  20.360  0.00  0.00    +0.000 Cl
ATOM      6  C   UNL     1       2.773   4.279  18.495  0.00  0.00    +0.000 A 
ATOM      7  C   UNL     1       3.809   3.732  17.720  0.00  0.00    +0.000 A 
ATOM      8  N   UNL     1       4.099   2.421  17.756  0.00  0.00    +0.000 NA
ATOM      9  H   UNL     1       2.918  -0.217  19.022  0.00  0.00    +0.000 HD
ATOM     10  H   UNL     1       4.077  -0.026  17.761  0.00  0.00    +0.000 HD
ENDROOT
BRANCH   6  11
ATOM     11  C   UNL     1       2.298   5.672  18.369  0.00  0.00    +0.000 C 
ATOM     12  C   UNL     1       2.598   6.661  19.227  0.00  0.00    +0.000 C 
BRANCH  12  13
ATOM     13  C   UNL     1       2.048   8.026  19.099  0.00  0.00    +0.000 A 
ATOM     14  C   UNL     1       2.271   8.732  17.905  0.00  0.00    +0.000 A 
ATOM     15  C   UNL     1       1.708   9.998  17.702  0.00  0.00    +0.000 A 
ATOM     16  C   UNL     1       0.912  10.576  18.689  0.00  0.00    +0.000 A 
ATOM     17  C   UNL     1       0.703   9.902  19.889  0.00  0.00    +0.000 A 
ATOM     18  C   UNL     1       1.274   8.638  20.100  0.00  0.00    +0.000 A 
ATOM     19 CL   UNL     1       0.985   7.868  21.622  0.00  0.00    +0.000 Cl
ENDBRANCH  12  13
ENDBRANCH   6  11
BRANCH   7  20
ATOM     20  N   UNL     1       4.498   4.551  16.836  0.00  0.00    +0.000 N 
ATOM     21  H   UNL     1       3.928   5.268  16.397  0.00  0.00    +0.000 HD
BRANCH  20  22
ATOM     22  C   UNL     1       5.940   4.770  16.731  0.00  0.00    +0.000 C 
ATOM     23  C   UNL     1       6.599   4.639  18.106  0.00  0.00    +0.000 C 
ATOM     24  C   UNL     1       7.630   5.764  18.207  0.00  0.00    +0.000 C 
ATOM     25  C   UNL     1       7.135   6.849  17.255  0.00  0.00    +0.000 C 
ATOM     26  C   UNL     1       6.466   6.078  16.106  0.00  0.00    +0.000 C 
BRANCH  25  27
ATOM     27  O   UNL     1       8.259   7.611  16.806  0.00  0.00    +0.000 OA
ATOM     28  H   UNL     1       9.008   7.393  17.396  0.00  0.00    +0.000 HD
ENDBRANCH  25  27
BRANCH  26  29
ATOM     29  O   UNL     1       7.474   5.778  15.108  0.00  0.00    +0.000 OA
ATOM     30  H   UNL     1       7.062   5.214  14.425  0.00  0.00    +0.000 HD
ENDBRANCH  26  29
BRANCH  24  31
ATOM     31  C   UNL     1       7.788   6.263  19.639  0.00  0.00    +0.000 C 
BRANCH  31  32
ATOM     32  O   UNL     1       8.320   5.226  20.458  0.00  0.00    +0.000 OA
ATOM     33  H   UNL     1       9.249   5.448  20.644  0.00  0.00    +0.000 HD
ENDBRANCH  31  32
ENDBRANCH  24  31
ENDBRANCH  20  22
ENDBRANCH   7  20
TORSDOF 8
ENDMDL
MODEL 5
REMARK VINA RESULT:      -8.1      3.628      5.173
REMARK  Name = 
REMARK  8 active torsions:
REMARK  status: ('A' for Active; 'I' for Inactive)
REMARK    1  A    between atoms: C_6  and  C_7
REMARK    2  A    between atoms: C_8  and  C_9
REMARK    3  A    between atoms: C_16  and  N_17
REMARK    4  A    between atoms: N_17  and  C_18
REMARK    5  A    between atoms: C_20  and  C_21
REMARK    6  A    between atoms: C_21  and  O_22
REMARK    7  A    between atoms: C_23  and  O_24
REMARK    8  A    between atoms: C_25  and  O_26
REMARK                            x       y       z     vdW  Elec       q    Type
REMARK                         _______ _______ _______ _____ _____    ______ ____
ROOT
ATOM      1  N   UNL     1       7.164   4.074  14.401  0.00  0.00    +0.000 N 
ATOM      2  C   UNL     1       6.293   4.655  15.294  0.00  0.00    +0.000 A 
ATOM      3  N   UNL     1       6.663   5.818  15.810  0.00  0.00    +0.000 NA
ATOM      4  C   UNL     1       5.826   6.338  16.719  0.00  0.00    +0.000 A 
ATOM      5 CL   UNL     1       6.433   7.817  17.381  0.00  0.00    +0.000 Cl
ATOM      6  C   UNL     1       4.636   5.770  17.139  0.00  0.00    +0.000 A 
ATOM      7  C   UNL     1       4.327   4.558  16.498  0.00  0.00    +0.000 A 
ATOM      8  N   UNL     1       5.169   3.994  15.616  0.00  0.00    +0.000 NA
ATOM      9  H   UNL     1       8.094   4.455  14.527  0.00  0.00    +0.000 HD
ATOM     10  H   UNL     1       7.081   3.066  14.403  0.00  0.00    +0.000 HD
ENDROOT
BRANCH   6  11
ATOM     11  C   UNL     1       3.835   6.347  18.238  0.00  0.00    +0.000 C 
ATOM     12  C   UNL     1       2.734   7.096  18.068  0.00  0.00    +0.000 C 
BRANCH  12  13
ATOM     13  C   UNL     1       1.999   7.708  19.195  0.00  0.00    +0.000 A 
ATOM     14  C   UNL     1       1.777   6.939  20.349  0.00  0.00    +0.000 A 
ATOM     15  C   UNL     1       1.154   7.494  21.474  0.00  0.00    +0.000 A 
ATOM     16  C   UNL     1       0.746   8.827  21.462  0.00  0.00    +0.000 A 
ATOM     17  C   UNL     1       0.935   9.595  20.317  0.00  0.00    +0.000 A 
ATOM     18  C   UNL     1       1.550   9.039  19.184  0.00  0.00    +0.000 A 
ATOM     19 CL   UNL     1       1.736  10.049  17.792  0.00  0.00    +0.000 Cl
ENDBRANCH  12  13
ENDBRANCH   6  11
BRANCH   7  20
ATOM     20  N   UNL     1       3.162   3.887  16.843  0.00  0.00    +0.000 N 
ATOM     21  H   UNL     1       2.399   4.007  16.185  0.00  0.00    +0.000 HD
BRANCH  20  22
ATOM     22  C   UNL     1       2.994   2.773  17.776  0.00  0.00    +0.000 C 
ATOM     23  C   UNL     1       1.746   2.986  18.637  0.00  0.00    +0.000 C 
ATOM     24  C   UNL     1       2.121   2.575  20.061  0.00  0.00    +0.000 C 
ATOM     25  C   UNL     1       3.635   2.753  20.146  0.00  0.00    +0.000 C 
ATOM     26  C   UNL     1       4.143   2.406  18.737  0.00  0.00    +0.000 C 
BRANCH  25  27
ATOM     27  O   UNL     1       4.147   1.857  21.135  0.00  0.00    +0.000 OA
ATOM     28  H   UNL     1       4.305   1.000  20.692  0.00  0.00    +0.000 HD
ENDBRANCH  25  27
BRANCH  26  29
ATOM     29  O   UNL     1       4.397   0.980  18.680  0.00  0.00    +0.000 OA
ATOM     30  H   UNL     1       4.139   0.595  19.539  0.00  0.00    +0.000 HD
ENDBRANCH  26  29
BRANCH  24  31
ATOM     31  C   UNL     1       1.372   3.395  21.105  0.00  0.00    +0.000 C 
BRANCH  31  32
ATOM     32  O   UNL     1       1.465   2.763  22.378  0.00  0.00    +0.000 OA
ATOM     33  H   UNL     1       0.602   2.859  22.816  0.00  0.00    +0.000 HD
ENDBRANCH  31  32
ENDBRANCH  24  31
ENDBRANCH  20  22
ENDBRANCH   7  20
TORSDOF 8
ENDMDL
MODEL 6
REMARK VINA RESULT:      -8.0      1.660      1.962
REMARK  Name = 
REMARK  8 active torsions:
REMARK  status: ('A' for Active; 'I' for Inactive)
REMARK    1  A    between atoms: C_6  and  C_7
REMARK    2  A    between atoms: C_8  and  C_9
REMARK    3  A    between atoms: C_16  and  N_17
REMARK    4  A    between atoms: N_17  and  C_18
REMARK    5  A    between atoms: C_20  and  C_21
REMARK    6  A    between atoms: C_21  and  O_22
REMARK    7  A    between atoms: C_23  and  O_24
REMARK    8  A    between atoms: C_25  and  O_26
REMARK                            x       y       z     vdW  Elec       q    Type
REMARK                         _______ _______ _______ _____ _____    ______ ____
ROOT
ATOM      1  N   UNL     1       3.863   0.831  18.197  0.00  0.00    +0.000 N 
ATOM      2  C   UNL     1       3.389   2.070  18.564  0.00  0.00    +0.000 A 
ATOM      3  N   UNL     1       2.524   2.099  19.567  0.00  0.00    +0.000 NA
ATOM      4  C   UNL     1       2.034   3.309  19.870  0.00  0.00    +0.000 A 
ATOM      5 CL   UNL     1       0.865   3.230  21.144  0.00  0.00    +0.000 Cl
ATOM      6  C   UNL     1       2.362   4.495  19.237  0.00  0.00    +0.000 A 
ATOM      7  C   UNL     1       3.315   4.349  18.215  0.00  0.00    +0.000 A 
ATOM      8  N   UNL     1       3.790   3.142  17.862  0.00  0.00    +0.000 NA
ATOM      9  H   UNL     1       3.232   0.108  18.524  0.00  0.00    +0.000 HD
ATOM     10  H   UNL     1       4.116   0.805  17.219  0.00  0.00    +0.000 HD
ENDROOT
BRANCH   6  11
ATOM     11  C   UNL     1       1.680   5.769  19.550  0.00  0.00    +0.000 C 
ATOM     12  C   UNL     1       2.293   6.864  20.028  0.00  0.00    +0.000 C 
BRANCH  12  13
ATOM     13  C   UNL     1       1.562   8.096  20.390  0.00  0.00    +0.000 A 
ATOM     14  C   UNL     1       1.166   8.275  21.726  0.00  0.00    +0.000 A 
ATOM     15  C   UNL     1       0.538   9.458  22.138  0.00  0.00    +0.000 A 
ATOM     16  C   UNL     1       0.298  10.478  21.220  0.00  0.00    +0.000 A 
ATOM     17  C   UNL     1       0.660  10.306  19.887  0.00  0.00    +0.000 A 
ATOM     18  C   UNL     1       1.280   9.119  19.469  0.00  0.00    +0.000 A 
ATOM     19 CL   UNL     1       1.685   8.969  17.794  0.00  0.00    +0.000 Cl
ENDBRANCH  12  13
ENDBRANCH   6  11
BRANCH   7  20
ATOM     20  N   UNL     1       3.717   5.467  17.498  0.00  0.00    +0.000 N 
ATOM     21  H   UNL     1       3.023   6.208  17.452  0.00  0.00    +0.000 HD
BRANCH  20  22
ATOM     22  C   UNL     1       5.072   5.879  17.134  0.00  0.00    +0.000 C 
ATOM     23  C   UNL     1       5.260   5.804  15.616  0.00  0.00    +0.000 C 
ATOM     24  C   UNL     1       6.647   5.209  15.375  0.00  0.00    +0.000 C 
ATOM     25  C   UNL     1       6.955   4.389  16.625  0.00  0.00    +0.000 C 
ATOM     26  C   UNL     1       6.280   5.162  17.769  0.00  0.00    +0.000 C 
BRANCH  25  27
ATOM     27  O   UNL     1       8.374   4.319  16.789  0.00  0.00    +0.000 OA
ATOM     28  H   UNL     1       8.672   5.201  17.089  0.00  0.00    +0.000 HD
ENDBRANCH  25  27
BRANCH  26  29
ATOM     29  O   UNL     1       7.222   6.139  18.279  0.00  0.00    +0.000 OA
ATOM     30  H   UNL     1       8.091   5.958  17.874  0.00  0.00    +0.000 HD
ENDBRANCH  26  29
BRANCH  24  31
ATOM     31  C   UNL     1       6.694   4.377  14.098  0.00  0.00    +0.000 C 
BRANCH  31  32
ATOM     32  O   UNL     1       5.379   3.960  13.742  0.00  0.00    +0.000 OA
ATOM     33  H   UNL     1       4.896   4.745  13.433  0.00  0.00    +0.000 HD
ENDBRANCH  31  32
ENDBRANCH  24  31
ENDBRANCH  20  22
ENDBRANCH   7  20
TORSDOF 8
ENDMDL
MODEL 7
REMARK VINA RESULT:      -7.9      1.847      2.728
REMARK  Name = 
REMARK  8 active torsions:
REMARK  status: ('A' for Active; 'I' for Inactive)
REMARK    1  A    between atoms: C_6  and  C_7
REMARK    2  A    between atoms: C_8  and  C_9
REMARK    3  A    between atoms: C_16  and  N_17
REMARK    4  A    between atoms: N_17  and  C_18
REMARK    5  A    between atoms: C_20  and  C_21
REMARK    6  A    between atoms: C_21  and  O_22
REMARK    7  A    between atoms: C_23  and  O_24
REMARK    8  A    between atoms: C_25  and  O_26
REMARK                            x       y       z     vdW  Elec       q    Type
REMARK                         _______ _______ _______ _____ _____    ______ ____
ROOT
ATOM      1  N   UNL     1       4.259   0.372  18.858  0.00  0.00    +0.000 N 
ATOM      2  C   UNL     1       3.758   1.644  19.016  0.00  0.00    +0.000 A 
ATOM      3  N   UNL     1       3.011   1.856  20.090  0.00  0.00    +0.000 NA
ATOM      4  C   UNL     1       2.487   3.085  20.194  0.00  0.00    +0.000 A 
ATOM      5 CL   UNL     1       1.475   3.238  21.590  0.00  0.00    +0.000 Cl
ATOM      6  C   UNL     1       2.672   4.121  19.295  0.00  0.00    +0.000 A 
ATOM      7  C   UNL     1       3.510   3.794  18.216  0.00  0.00    +0.000 A 
ATOM      8  N   UNL     1       4.013   2.557  18.065  0.00  0.00    +0.000 NA
ATOM      9  H   UNL     1       3.713  -0.286  19.402  0.00  0.00    +0.000 HD
ATOM     10  H   UNL     1       4.402   0.148  17.882  0.00  0.00    +0.000 HD
ENDROOT
BRANCH   6  11
ATOM     11  C   UNL     1       1.956   5.408  19.419  0.00  0.00    +0.000 C 
ATOM     12  C   UNL     1       2.485   6.528  19.936  0.00  0.00    +0.000 C 
BRANCH  12  13
ATOM     13  C   UNL     1       1.712   7.776  20.103  0.00  0.00    +0.000 A 
ATOM     14  C   UNL     1       1.064   8.007  21.327  0.00  0.00    +0.000 A 
ATOM     15  C   UNL     1       0.381   9.207  21.565  0.00  0.00    +0.000 A 
ATOM     16  C   UNL     1       0.338  10.194  20.582  0.00  0.00    +0.000 A 
ATOM     17  C   UNL     1       0.952   9.970  19.353  0.00  0.00    +0.000 A 
ATOM     18  C   UNL     1       1.628   8.764  19.108  0.00  0.00    +0.000 A 
ATOM     19 CL   UNL     1       2.352   8.549  17.551  0.00  0.00    +0.000 Cl
ENDBRANCH  12  13
ENDBRANCH   6  11
BRANCH   7  20
ATOM     20  N   UNL     1       3.763   4.748  17.240  0.00  0.00    +0.000 N 
ATOM     21  H   UNL     1       2.997   5.396  17.079  0.00  0.00    +0.000 HD
BRANCH  20  22
ATOM     22  C   UNL     1       5.050   5.179  16.698  0.00  0.00    +0.000 C 
ATOM     23  C   UNL     1       6.193   4.704  17.599  0.00  0.00    +0.000 C 
ATOM     24  C   UNL     1       7.184   5.863  17.699  0.00  0.00    +0.000 C 
ATOM     25  C   UNL     1       6.360   7.120  17.435  0.00  0.00    +0.000 C 
ATOM     26  C   UNL     1       5.295   6.676  16.419  0.00  0.00    +0.000 C 
BRANCH  25  27
ATOM     27  O   UNL     1       7.222   8.129  16.900  0.00  0.00    +0.000 OA
ATOM     28  H   UNL     1       6.830   8.994  17.133  0.00  0.00    +0.000 HD
ENDBRANCH  25  27
BRANCH  26  29
ATOM     29  O   UNL     1       5.833   6.849  15.085  0.00  0.00    +0.000 OA
ATOM     30  H   UNL     1       5.084   6.985  14.474  0.00  0.00    +0.000 HD
ENDBRANCH  26  29
BRANCH  24  31
ATOM     31  C   UNL     1       7.888   5.893  19.051  0.00  0.00    +0.000 C 
BRANCH  31  32
ATOM     32  O   UNL     1       7.116   5.186  20.016  0.00  0.00    +0.000 OA
ATOM     33  H   UNL     1       6.860   5.820  20.707  0.00  0.00    +0.000 HD
ENDBRANCH  31  32
ENDBRANCH  24  31
ENDBRANCH  20  22
ENDBRANCH   7  20
TORSDOF 8
ENDMDL
MODEL 8
REMARK VINA RESULT:      -7.8      1.626      1.989
REMARK  Name = 
REMARK  8 active torsions:
REMARK  status: ('A' for Active; 'I' for Inactive)
REMARK    1  A    between atoms: C_6  and  C_7
REMARK    2  A    between atoms: C_8  and  C_9
REMARK    3  A    between atoms: C_16  and  N_17
REMARK    4  A    between atoms: N_17  and  C_18
REMARK    5  A    between atoms: C_20  and  C_21
REMARK    6  A    between atoms: C_21  and  O_22
REMARK    7  A    between atoms: C_23  and  O_24
REMARK    8  A    between atoms: C_25  and  O_26
REMARK                            x       y       z     vdW  Elec       q    Type
REMARK                         _______ _______ _______ _____ _____    ______ ____
ROOT
ATOM      1  N   UNL     1       4.121   0.743  18.373  0.00  0.00    +0.000 N 
ATOM      2  C   UNL     1       3.585   1.903  18.883  0.00  0.00    +0.000 A 
ATOM      3  N   UNL     1       2.274   1.914  19.075  0.00  0.00    +0.000 NA
ATOM      4  C   UNL     1       1.766   3.072  19.519  0.00  0.00    +0.000 A 
ATOM      5 CL   UNL     1       0.043   3.004  19.669  0.00  0.00    +0.000 Cl
ATOM      6  C   UNL     1       2.490   4.219  19.793  0.00  0.00    +0.000 A 
ATOM      7  C   UNL     1       3.873   4.080  19.590  0.00  0.00    +0.000 A 
ATOM      8  N   UNL     1       4.403   2.945  19.104  0.00  0.00    +0.000 NA
ATOM      9  H   UNL     1       3.400   0.200  17.913  0.00  0.00    +0.000 HD
ATOM     10  H   UNL     1       4.962   0.925  17.841  0.00  0.00    +0.000 HD
ENDROOT
BRANCH   6  11
ATOM     11  C   UNL     1       1.836   5.493  20.159  0.00  0.00    +0.000 C 
ATOM     12  C   UNL     1       2.234   6.703  19.735  0.00  0.00    +0.000 C 
BRANCH  12  13
ATOM     13  C   UNL     1       1.591   7.958  20.178  0.00  0.00    +0.000 A 
ATOM     14  C   UNL     1       1.170   8.062  21.514  0.00  0.00    +0.000 A 
ATOM     15  C   UNL     1       0.625   9.255  22.006  0.00  0.00    +0.000 A 
ATOM     16  C   UNL     1       0.495  10.361  21.169  0.00  0.00    +0.000 A 
ATOM     17  C   UNL     1       0.883  10.267  19.836  0.00  0.00    +0.000 A 
ATOM     18  C   UNL     1       1.420   9.070  19.337  0.00  0.00    +0.000 A 
ATOM     19 CL   UNL     1       1.863   9.022  17.666  0.00  0.00    +0.000 Cl
ENDBRANCH  12  13
ENDBRANCH   6  11
BRANCH   7  20
ATOM     20  N   UNL     1       4.705   5.167  19.820  0.00  0.00    +0.000 N 
ATOM     21  H   UNL     1       4.726   5.481  20.786  0.00  0.00    +0.000 HD
BRANCH  20  22
ATOM     22  C   UNL     1       5.799   5.671  18.992  0.00  0.00    +0.000 C 
ATOM     23  C   UNL     1       5.245   6.364  17.745  0.00  0.00    +0.000 C 
ATOM     24  C   UNL     1       6.131   5.935  16.574  0.00  0.00    +0.000 C 
ATOM     25  C   UNL     1       6.721   4.590  16.990  0.00  0.00    +0.000 C 
ATOM     26  C   UNL     1       6.898   4.701  18.513  0.00  0.00    +0.000 C 
BRANCH  25  27
ATOM     27  O   UNL     1       7.970   4.411  16.317  0.00  0.00    +0.000 OA
ATOM     28  H   UNL     1       7.768   4.091  15.415  0.00  0.00    +0.000 HD
ENDBRANCH  25  27
BRANCH  26  29
ATOM     29  O   UNL     1       8.206   5.264  18.782  0.00  0.00    +0.000 OA
ATOM     30  H   UNL     1       8.113   6.236  18.817  0.00  0.00    +0.000 HD
ENDBRANCH  26  29
BRANCH  24  31
ATOM     31  C   UNL     1       5.348   5.857  15.268  0.00  0.00    +0.000 C 
BRANCH  31  32
ATOM     32  O   UNL     1       5.844   4.788  14.468  0.00  0.00    +0.000 OA
ATOM     33  H   UNL     1       5.591   4.970  13.547  0.00  0.00    +0.000 HD
ENDBRANCH  31  32
ENDBRANCH  24  31
ENDBRANCH  20  22
ENDBRANCH   7  20
TORSDOF 8
ENDMDL
MODEL 9
REMARK VINA RESULT:      -7.7      1.779      2.812
REMARK  Name = 
REMARK  8 active torsions:
REMARK  status: ('A' for Active; 'I' for Inactive)
REMARK    1  A    between atoms: C_6  and  C_7
REMARK    2  A    between atoms: C_8  and  C_9
REMARK    3  A    between atoms: C_16  and  N_17
REMARK    4  A    between atoms: N_17  and  C_18
REMARK    5  A    between atoms: C_20  and  C_21
REMARK    6  A    between atoms: C_21  and  O_22
REMARK    7  A    between atoms: C_23  and  O_24
REMARK    8  A    between atoms: C_25  and  O_26
REMARK                            x       y       z     vdW  Elec       q    Type
REMARK                         _______ _______ _______ _____ _____    ______ ____
ROOT
ATOM      1  N   UNL     1       4.048   0.670  18.217  0.00  0.00    +0.000 N 
ATOM      2  C   UNL     1       3.718   1.868  18.808  0.00  0.00    +0.000 A 
ATOM      3  N   UNL     1       2.466   2.000  19.219  0.00  0.00    +0.000 NA
ATOM      4  C   UNL     1       2.153   3.195  19.740  0.00  0.00    +0.000 A 
ATOM      5 CL   UNL     1       0.482   3.288  20.181  0.00  0.00    +0.000 Cl
ATOM      6  C   UNL     1       3.019   4.265  19.884  0.00  0.00    +0.000 A 
ATOM      7  C   UNL     1       4.328   3.999  19.449  0.00  0.00    +0.000 A 
ATOM      8  N   UNL     1       4.657   2.825  18.884  0.00  0.00    +0.000 NA
ATOM      9  H   UNL     1       3.210   0.204  17.889  0.00  0.00    +0.000 HD
ATOM     10  H   UNL     1       4.799   0.779  17.550  0.00  0.00    +0.000 HD
ENDROOT
BRANCH   6  11
ATOM     11  C   UNL     1       2.561   5.590  20.352  0.00  0.00    +0.000 C 
ATOM     12  C   UNL     1       1.965   6.508  19.575  0.00  0.00    +0.000 C 
BRANCH  12  13
ATOM     13  C   UNL     1       1.582   7.848  20.069  0.00  0.00    +0.000 A 
ATOM     14  C   UNL     1       1.310   8.007  21.438  0.00  0.00    +0.000 A 
ATOM     15  C   UNL     1       1.017   9.268  21.972  0.00  0.00    +0.000 A 
ATOM     16  C   UNL     1       0.994  10.389  21.144  0.00  0.00    +0.000 A 
ATOM     17  C   UNL     1       1.234  10.245  19.781  0.00  0.00    +0.000 A 
ATOM     18  C   UNL     1       1.518   8.980  19.241  0.00  0.00    +0.000 A 
ATOM     19 CL   UNL     1       1.790   8.875  17.536  0.00  0.00    +0.000 Cl
ENDBRANCH  12  13
ENDBRANCH   6  11
BRANCH   7  20
ATOM     20  N   UNL     1       5.286   5.000  19.532  0.00  0.00    +0.000 N 
ATOM     21  H   UNL     1       5.212   5.584  20.359  0.00  0.00    +0.000 HD
BRANCH  20  22
ATOM     22  C   UNL     1       6.565   5.099  18.829  0.00  0.00    +0.000 C 
ATOM     23  C   UNL     1       7.190   6.477  19.057  0.00  0.00    +0.000 C 
ATOM     24  C   UNL     1       7.765   6.925  17.712  0.00  0.00    +0.000 C 
ATOM     25  C   UNL     1       6.950   6.179  16.659  0.00  0.00    +0.000 C 
ATOM     26  C   UNL     1       6.622   4.827  17.313  0.00  0.00    +0.000 C 
BRANCH  25  27
ATOM     27  O   UNL     1       7.751   6.025  15.484  0.00  0.00    +0.000 OA
ATOM     28  H   UNL     1       8.477   6.678  15.544  0.00  0.00    +0.000 HD
ENDBRANCH  25  27
BRANCH  26  29
ATOM     29  O   UNL     1       7.697   3.902  17.016  0.00  0.00    +0.000 OA
ATOM     30  H   UNL     1       7.393   3.003  17.249  0.00  0.00    +0.000 HD
ENDBRANCH  26  29
BRANCH  24  31
ATOM     31  C   UNL     1       7.700   8.439  17.544  0.00  0.00    +0.000 C 
BRANCH  31  32
ATOM     32  O   UNL     1       8.575   9.068  18.475  0.00  0.00    +0.000 OA
ATOM     33  H   UNL     1       8.324  10.007  18.524  0.00  0.00    +0.000 HD
ENDBRANCH  31  32
ENDBRANCH  24  31
ENDBRANCH  20  22
ENDBRANCH   7  20
TORSDOF 8
ENDMDL
