MODEL 1
REMARK VINA RESULT:      -6.7      0.000      0.000
REMARK  Name = 
REMARK  6 active torsions:
REMARK  status: ('A' for Active; 'I' for Inactive)
REMARK    1  A    between atoms: C_1  and  O_2
REMARK    2  A    between atoms: O_2  and  C_3
REMARK    3  A    between atoms: C_8  and  C_9
REMARK    4  A    between atoms: C_9  and  C_10
REMARK    5  A    between atoms: C_14  and  O_15
REMARK    6  A    between atoms: O_15  and  C_16
REMARK                            x       y       z     vdW  Elec       q    Type
REMARK                         _______ _______ _______ _____ _____    ______ ____
ROOT
ATOM      1  C   UNL     1       2.572   3.919  18.002  0.00  0.00    +0.000 A 
ATOM      2  C   UNL     1       3.506   3.597  16.996  0.00  0.00    +0.000 A 
ATOM      3  C   UNL     1       4.825   4.036  17.143  0.00  0.00    +0.000 A 
ATOM      4  N   UNL     1       5.933   3.800  16.364  0.00  0.00    +0.000 N 
ATOM      5  C   UNL     1       7.038   4.393  16.924  0.00  0.00    +0.000 A 
ATOM      6  C   UNL     1       6.647   5.070  18.068  0.00  0.00    +0.000 A 
ATOM      7  C   UNL     1       5.237   4.835  18.206  0.00  0.00    +0.000 A 
ATOM      8  C   UNL     1       4.264   5.221  19.150  0.00  0.00    +0.000 A 
ATOM      9  C   UNL     1       2.939   4.761  19.059  0.00  0.00    +0.000 A 
ATOM     10  H   UNL     1       5.937   3.245  15.522  0.00  0.00    +0.000 HD
ENDROOT
BRANCH   6  11
ATOM     11  C   UNL     1       7.492   5.851  18.975  0.00  0.00    +0.000 C 
ATOM     12  C   UNL     1       8.105   7.150  18.518  0.00  0.00    +0.000 C 
ATOM     13  O   UNL     1       7.728   5.471  20.124  0.00  0.00    +0.000 OA
ENDBRANCH   6  11
BRANCH   1  15
ATOM     14  C   UNL     1       1.045   2.227  18.648  0.00  0.00    +0.000 C 
ATOM     15  O   UNL     1       1.286   3.441  17.937  0.00  0.00    +0.000 OA
ENDBRANCH   1  15
BRANCH   9  16
ATOM     16  O   UNL     1       2.181   5.223  20.103  0.00  0.00    +0.000 OA
ATOM     17  C   UNL     1       2.071   4.449  21.284  0.00  0.00    +0.000 C 
ENDBRANCH   9  16
TORSDOF 3
ENDMDL
MODEL 2
REMARK VINA RESULT:      -6.5      2.151      5.008
REMARK  Name = 
REMARK  6 active torsions:
REMARK  status: ('A' for Active; 'I' for Inactive)
REMARK    1  A    between atoms: C_1  and  O_2
REMARK    2  A    between atoms: O_2  and  C_3
REMARK    3  A    between atoms: C_8  and  C_9
REMARK    4  A    between atoms: C_9  and  C_10
REMARK    5  A    between atoms: C_14  and  O_15
REMARK    6  A    between atoms: O_15  and  C_16
REMARK                            x       y       z     vdW  Elec       q    Type
REMARK                         _______ _______ _______ _____ _____    ______ ____
ROOT
ATOM      1  C   UNL     1       5.105   5.980  16.991  0.00  0.00    +0.000 A 
ATOM      2  C   UNL     1       5.388   4.599  16.995  0.00  0.00    +0.000 A 
ATOM      3  C   UNL     1       4.420   3.719  17.488  0.00  0.00    +0.000 A 
ATOM      4  N   UNL     1       4.407   2.345  17.535  0.00  0.00    +0.000 N 
ATOM      5  C   UNL     1       3.218   1.902  18.061  0.00  0.00    +0.000 A 
ATOM      6  C   UNL     1       2.451   3.001  18.410  0.00  0.00    +0.000 A 
ATOM      7  C   UNL     1       3.218   4.156  18.039  0.00  0.00    +0.000 A 
ATOM      8  C   UNL     1       2.998   5.547  18.108  0.00  0.00    +0.000 A 
ATOM      9  C   UNL     1       3.928   6.459  17.580  0.00  0.00    +0.000 A 
ATOM     10  H   UNL     1       5.150   1.751  17.200  0.00  0.00    +0.000 HD
ENDROOT
BRANCH   6  11
ATOM     11  C   UNL     1       1.116   3.001  19.014  0.00  0.00    +0.000 C 
ATOM     12  C   UNL     1       0.861   3.741  20.303  0.00  0.00    +0.000 C 
ATOM     13  O   UNL     1       0.173   2.398  18.496  0.00  0.00    +0.000 OA
ENDBRANCH   6  11
BRANCH   1  15
ATOM     14  C   UNL     1       7.062   7.281  17.298  0.00  0.00    +0.000 C 
ATOM     15  O   UNL     1       5.994   6.871  16.442  0.00  0.00    +0.000 OA
ENDBRANCH   1  15
BRANCH   9  16
ATOM     16  O   UNL     1       3.490   7.749  17.717  0.00  0.00    +0.000 OA
ATOM     17  C   UNL     1       2.158   7.996  18.130  0.00  0.00    +0.000 C 
ENDBRANCH   9  16
TORSDOF 3
ENDMDL
MODEL 3
REMARK VINA RESULT:      -6.5      1.298      1.312
REMARK  Name = 
REMARK  6 active torsions:
REMARK  status: ('A' for Active; 'I' for Inactive)
REMARK    1  A    between atoms: C_1  and  O_2
REMARK    2  A    between atoms: O_2  and  C_3
REMARK    3  A    between atoms: C_8  and  C_9
REMARK    4  A    between atoms: C_9  and  C_10
REMARK    5  A    between atoms: C_14  and  O_15
REMARK    6  A    between atoms: O_15  and  C_16
REMARK                            x       y       z     vdW  Elec       q    Type
REMARK                         _______ _______ _______ _____ _____    ______ ____
ROOT
ATOM      1  C   UNL     1       2.507   4.016  17.685  0.00  0.00    +0.000 A 
ATOM      2  C   UNL     1       3.429   3.397  16.815  0.00  0.00    +0.000 A 
ATOM      3  C   UNL     1       4.707   3.950  16.693  0.00  0.00    +0.000 A 
ATOM      4  N   UNL     1       5.802   3.511  15.987  0.00  0.00    +0.000 N 
ATOM      5  C   UNL     1       6.868   4.350  16.201  0.00  0.00    +0.000 A 
ATOM      6  C   UNL     1       6.459   5.386  17.024  0.00  0.00    +0.000 A 
ATOM      7  C   UNL     1       5.083   5.124  17.339  0.00  0.00    +0.000 A 
ATOM      8  C   UNL     1       4.115   5.775  18.130  0.00  0.00    +0.000 A 
ATOM      9  C   UNL     1       2.835   5.224  18.314  0.00  0.00    +0.000 A 
ATOM     10  H   UNL     1       5.826   2.675  15.422  0.00  0.00    +0.000 HD
ENDROOT
BRANCH   6  11
ATOM     11  C   UNL     1       7.263   6.513  17.505  0.00  0.00    +0.000 C 
ATOM     12  C   UNL     1       7.936   6.450  18.852  0.00  0.00    +0.000 C 
ATOM     13  O   UNL     1       7.407   7.536  16.832  0.00  0.00    +0.000 OA
ENDBRANCH   6  11
BRANCH   1  15
ATOM     14  C   UNL     1       1.232   2.374  18.822  0.00  0.00    +0.000 C 
ATOM     15  O   UNL     1       1.269   3.461  17.897  0.00  0.00    +0.000 OA
ENDBRANCH   1  15
BRANCH   9  16
ATOM     16  O   UNL     1       2.077   5.998  19.153  0.00  0.00    +0.000 OA
ATOM     17  C   UNL     1       1.937   5.626  20.512  0.00  0.00    +0.000 C 
ENDBRANCH   9  16
TORSDOF 3
ENDMDL
MODEL 4
REMARK VINA RESULT:      -6.5      1.696      4.948
REMARK  Name = 
REMARK  6 active torsions:
REMARK  status: ('A' for Active; 'I' for Inactive)
REMARK    1  A    between atoms: C_1  and  O_2
REMARK    2  A    between atoms: O_2  and  C_3
REMARK    3  A    between atoms: C_8  and  C_9
REMARK    4  A    between atoms: C_9  and  C_10
REMARK    5  A    between atoms: C_14  and  O_15
REMARK    6  A    between atoms: O_15  and  C_16
REMARK                            x       y       z     vdW  Elec       q    Type
REMARK                         _______ _______ _______ _____ _____    ______ ____
ROOT
ATOM      1  C   UNL     1       6.249   4.419  16.889  0.00  0.00    +0.000 A 
ATOM      2  C   UNL     1       5.029   3.939  16.369  0.00  0.00    +0.000 A 
ATOM      3  C   UNL     1       3.936   3.819  17.232  0.00  0.00    +0.000 A 
ATOM      4  N   UNL     1       2.635   3.456  16.974  0.00  0.00    +0.000 N 
ATOM      5  C   UNL     1       1.889   3.526  18.125  0.00  0.00    +0.000 A 
ATOM      6  C   UNL     1       2.719   3.896  19.170  0.00  0.00    +0.000 A 
ATOM      7  C   UNL     1       4.021   4.086  18.595  0.00  0.00    +0.000 A 
ATOM      8  C   UNL     1       5.275   4.476  19.108  0.00  0.00    +0.000 A 
ATOM      9  C   UNL     1       6.384   4.652  18.263  0.00  0.00    +0.000 A 
ATOM     10  H   UNL     1       2.276   3.208  16.064  0.00  0.00    +0.000 HD
ENDROOT
BRANCH   6  11
ATOM     11  C   UNL     1       2.353   4.084  20.576  0.00  0.00    +0.000 C 
ATOM     12  C   UNL     1       2.317   2.908  21.518  0.00  0.00    +0.000 C 
ATOM     13  O   UNL     1       2.062   5.195  21.024  0.00  0.00    +0.000 OA
ENDBRANCH   6  11
BRANCH   1  15
ATOM     14  C   UNL     1       7.009   4.836  14.684  0.00  0.00    +0.000 C 
ATOM     15  O   UNL     1       7.324   4.629  16.061  0.00  0.00    +0.000 OA
ENDBRANCH   1  15
BRANCH   9  16
ATOM     16  O   UNL     1       7.481   5.075  18.967  0.00  0.00    +0.000 OA
ATOM     17  C   UNL     1       7.929   6.411  18.828  0.00  0.00    +0.000 C 
ENDBRANCH   9  16
TORSDOF 3
ENDMDL
MODEL 5
REMARK VINA RESULT:      -6.4      2.275      5.023
REMARK  Name = 
REMARK  6 active torsions:
REMARK  status: ('A' for Active; 'I' for Inactive)
REMARK    1  A    between atoms: C_1  and  O_2
REMARK    2  A    between atoms: O_2  and  C_3
REMARK    3  A    between atoms: C_8  and  C_9
REMARK    4  A    between atoms: C_9  and  C_10
REMARK    5  A    between atoms: C_14  and  O_15
REMARK    6  A    between atoms: O_15  and  C_16
REMARK                            x       y       z     vdW  Elec       q    Type
REMARK                         _______ _______ _______ _____ _____    ______ ____
ROOT
ATOM      1  C   UNL     1       5.495   6.251  17.547  0.00  0.00    +0.000 A 
ATOM      2  C   UNL     1       5.988   5.082  18.163  0.00  0.00    +0.000 A 
ATOM      3  C   UNL     1       5.080   4.220  18.784  0.00  0.00    +0.000 A 
ATOM      4  N   UNL     1       5.280   2.997  19.381  0.00  0.00    +0.000 N 
ATOM      5  C   UNL     1       4.083   2.483  19.815  0.00  0.00    +0.000 A 
ATOM      6  C   UNL     1       3.081   3.400  19.542  0.00  0.00    +0.000 A 
ATOM      7  C   UNL     1       3.720   4.502  18.881  0.00  0.00    +0.000 A 
ATOM      8  C   UNL     1       3.266   5.721  18.339  0.00  0.00    +0.000 A 
ATOM      9  C   UNL     1       4.141   6.591  17.667  0.00  0.00    +0.000 A 
ATOM     10  H   UNL     1       6.172   2.533  19.458  0.00  0.00    +0.000 HD
ENDROOT
BRANCH   6  11
ATOM     11  C   UNL     1       1.652   3.274  19.839  0.00  0.00    +0.000 C 
ATOM     12  C   UNL     1       0.745   2.507  18.911  0.00  0.00    +0.000 C 
ATOM     13  O   UNL     1       1.153   3.788  20.843  0.00  0.00    +0.000 OA
ENDBRANCH   6  11
BRANCH   1  15
ATOM     14  C   UNL     1       7.518   7.485  17.559  0.00  0.00    +0.000 C 
ATOM     15  O   UNL     1       6.340   7.085  16.857  0.00  0.00    +0.000 OA
ENDBRANCH   1  15
BRANCH   9  16
ATOM     16  O   UNL     1       3.478   7.689  17.185  0.00  0.00    +0.000 OA
ATOM     17  C   UNL     1       2.443   8.274  17.955  0.00  0.00    +0.000 C 
ENDBRANCH   9  16
TORSDOF 3
ENDMDL
MODEL 6
REMARK VINA RESULT:      -6.4      2.348      3.239
REMARK  Name = 
REMARK  6 active torsions:
REMARK  status: ('A' for Active; 'I' for Inactive)
REMARK    1  A    between atoms: C_1  and  O_2
REMARK    2  A    between atoms: O_2  and  C_3
REMARK    3  A    between atoms: C_8  and  C_9
REMARK    4  A    between atoms: C_9  and  C_10
REMARK    5  A    between atoms: C_14  and  O_15
REMARK    6  A    between atoms: O_15  and  C_16
REMARK                            x       y       z     vdW  Elec       q    Type
REMARK                         _______ _______ _______ _____ _____    ______ ____
ROOT
ATOM      1  C   UNL     1       2.169   4.265  18.569  0.00  0.00    +0.000 A 
ATOM      2  C   UNL     1       2.575   5.605  18.398  0.00  0.00    +0.000 A 
ATOM      3  C   UNL     1       3.673   5.871  17.574  0.00  0.00    +0.000 A 
ATOM      4  N   UNL     1       4.221   7.069  17.182  0.00  0.00    +0.000 N 
ATOM      5  C   UNL     1       5.268   6.850  16.321  0.00  0.00    +0.000 A 
ATOM      6  C   UNL     1       5.444   5.483  16.177  0.00  0.00    +0.000 A 
ATOM      7  C   UNL     1       4.423   4.864  16.973  0.00  0.00    +0.000 A 
ATOM      8  C   UNL     1       4.053   3.529  17.234  0.00  0.00    +0.000 A 
ATOM      9  C   UNL     1       2.928   3.224  18.019  0.00  0.00    +0.000 A 
ATOM     10  H   UNL     1       3.880   7.977  17.462  0.00  0.00    +0.000 HD
ENDROOT
BRANCH   6  11
ATOM     11  C   UNL     1       6.449   4.795  15.362  0.00  0.00    +0.000 C 
ATOM     12  C   UNL     1       6.045   4.077  14.099  0.00  0.00    +0.000 C 
ATOM     13  O   UNL     1       7.639   4.780  15.682  0.00  0.00    +0.000 OA
ENDBRANCH   6  11
BRANCH   1  15
ATOM     14  C   UNL     1       1.260   3.794  20.706  0.00  0.00    +0.000 C 
ATOM     15  O   UNL     1       1.048   3.965  19.304  0.00  0.00    +0.000 OA
ENDBRANCH   1  15
BRANCH   9  16
ATOM     16  O   UNL     1       2.732   1.871  18.102  0.00  0.00    +0.000 OA
ATOM     17  C   UNL     1       3.736   1.052  18.672  0.00  0.00    +0.000 C 
ENDBRANCH   9  16
TORSDOF 3
ENDMDL
MODEL 7
REMARK VINA RESULT:      -6.4      0.939      1.048
REMARK  Name = 
REMARK  6 active torsions:
REMARK  status: ('A' for Active; 'I' for Inactive)
REMARK    1  A    between atoms: C_1  and  O_2
REMARK    2  A    between atoms: O_2  and  C_3
REMARK    3  A    between atoms: C_8  and  C_9
REMARK    4  A    between atoms: C_9  and  C_10
REMARK    5  A    between atoms: C_14  and  O_15
REMARK    6  A    between atoms: O_15  and  C_16
REMARK                            x       y       z     vdW  Elec       q    Type
REMARK                         _______ _______ _______ _____ _____    ______ ____
ROOT
ATOM      1  C   UNL     1       2.550   4.205  18.040  0.00  0.00    +0.000 A 
ATOM      2  C   UNL     1       3.436   3.641  17.099  0.00  0.00    +0.000 A 
ATOM      3  C   UNL     1       4.751   4.112  17.053  0.00  0.00    +0.000 A 
ATOM      4  N   UNL     1       5.821   3.693  16.298  0.00  0.00    +0.000 N 
ATOM      5  C   UNL     1       6.941   4.418  16.622  0.00  0.00    +0.000 A 
ATOM      6  C   UNL     1       6.596   5.365  17.573  0.00  0.00    +0.000 A 
ATOM      7  C   UNL     1       5.201   5.163  17.848  0.00  0.00    +0.000 A 
ATOM      8  C   UNL     1       4.272   5.771  18.715  0.00  0.00    +0.000 A 
ATOM      9  C   UNL     1       2.955   5.294  18.822  0.00  0.00    +0.000 A 
ATOM     10  H   UNL     1       5.792   2.938  15.628  0.00  0.00    +0.000 HD
ENDROOT
BRANCH   6  11
ATOM     11  C   UNL     1       7.471   6.359  18.199  0.00  0.00    +0.000 C 
ATOM     12  C   UNL     1       7.681   7.705  17.552  0.00  0.00    +0.000 C 
ATOM     13  O   UNL     1       8.059   6.127  19.257  0.00  0.00    +0.000 OA
ENDBRANCH   6  11
BRANCH   1  15
ATOM     14  C   UNL     1       1.175   2.380  18.667  0.00  0.00    +0.000 C 
ATOM     15  O   UNL     1       1.274   3.716  18.174  0.00  0.00    +0.000 OA
ENDBRANCH   1  15
BRANCH   9  16
ATOM     16  O   UNL     1       2.244   6.004  19.753  0.00  0.00    +0.000 OA
ATOM     17  C   UNL     1       2.182   7.415  19.660  0.00  0.00    +0.000 C 
ENDBRANCH   9  16
TORSDOF 3
ENDMDL
MODEL 8
REMARK VINA RESULT:      -6.2      3.531      5.397
REMARK  Name = 
REMARK  6 active torsions:
REMARK  status: ('A' for Active; 'I' for Inactive)
REMARK    1  A    between atoms: C_1  and  O_2
REMARK    2  A    between atoms: O_2  and  C_3
REMARK    3  A    between atoms: C_8  and  C_9
REMARK    4  A    between atoms: C_9  and  C_10
REMARK    5  A    between atoms: C_14  and  O_15
REMARK    6  A    between atoms: O_15  and  C_16
REMARK                            x       y       z     vdW  Elec       q    Type
REMARK                         _______ _______ _______ _____ _____    ______ ____
ROOT
ATOM      1  C   UNL     1       6.026   4.876  17.196  0.00  0.00    +0.000 A 
ATOM      2  C   UNL     1       7.008   5.442  16.355  0.00  0.00    +0.000 A 
ATOM      3  C   UNL     1       7.034   5.063  15.010  0.00  0.00    +0.000 A 
ATOM      4  N   UNL     1       7.821   5.510  13.975  0.00  0.00    +0.000 N 
ATOM      5  C   UNL     1       7.462   4.888  12.805  0.00  0.00    +0.000 A 
ATOM      6  C   UNL     1       6.451   3.981  13.078  0.00  0.00    +0.000 A 
ATOM      7  C   UNL     1       6.179   4.100  14.483  0.00  0.00    +0.000 A 
ATOM      8  C   UNL     1       5.269   3.481  15.364  0.00  0.00    +0.000 A 
ATOM      9  C   UNL     1       5.181   3.870  16.712  0.00  0.00    +0.000 A 
ATOM     10  H   UNL     1       8.536   6.218  14.060  0.00  0.00    +0.000 HD
ENDROOT
BRANCH   6  11
ATOM     11  C   UNL     1       5.771   3.092  12.132  0.00  0.00    +0.000 C 
ATOM     12  C   UNL     1       4.375   3.406  11.659  0.00  0.00    +0.000 C 
ATOM     13  O   UNL     1       6.313   2.071  11.704  0.00  0.00    +0.000 OA
ENDBRANCH   6  11
BRANCH   1  15
ATOM     14  C   UNL     1       7.138   5.632  19.147  0.00  0.00    +0.000 C 
ATOM     15  O   UNL     1       5.913   5.280  18.503  0.00  0.00    +0.000 OA
ENDBRANCH   1  15
BRANCH   9  16
ATOM     16  O   UNL     1       4.203   3.170  17.367  0.00  0.00    +0.000 OA
ATOM     17  C   UNL     1       2.842   3.493  17.143  0.00  0.00    +0.000 C 
ENDBRANCH   9  16
TORSDOF 3
ENDMDL
MODEL 9
REMARK VINA RESULT:      -6.2      2.272      5.072
REMARK  Name = 
REMARK  6 active torsions:
REMARK  status: ('A' for Active; 'I' for Inactive)
REMARK    1  A    between atoms: C_1  and  O_2
REMARK    2  A    between atoms: O_2  and  C_3
REMARK    3  A    between atoms: C_8  and  C_9
REMARK    4  A    between atoms: C_9  and  C_10
REMARK    5  A    between atoms: C_14  and  O_15
REMARK    6  A    between atoms: O_15  and  C_16
REMARK                            x       y       z     vdW  Elec       q    Type
REMARK                         _______ _______ _______ _____ _____    ______ ____
ROOT
ATOM      1  C   UNL     1       6.344   5.380  15.839  0.00  0.00    +0.000 A 
ATOM      2  C   UNL     1       5.438   4.300  15.874  0.00  0.00    +0.000 A 
ATOM      3  C   UNL     1       4.362   4.360  16.765  0.00  0.00    +0.000 A 
ATOM      4  N   UNL     1       3.307   3.496  16.945  0.00  0.00    +0.000 N 
ATOM      5  C   UNL     1       2.455   3.986  17.904  0.00  0.00    +0.000 A 
ATOM      6  C   UNL     1       2.977   5.170  18.399  0.00  0.00    +0.000 A 
ATOM      7  C   UNL     1       4.189   5.406  17.666  0.00  0.00    +0.000 A 
ATOM      8  C   UNL     1       5.160   6.428  17.676  0.00  0.00    +0.000 A 
ATOM      9  C   UNL     1       6.229   6.426  16.764  0.00  0.00    +0.000 A 
ATOM     10  H   UNL     1       3.166   2.644  16.424  0.00  0.00    +0.000 HD
ENDROOT
BRANCH   6  11
ATOM     11  C   UNL     1       2.407   6.029  19.440  0.00  0.00    +0.000 C 
ATOM     12  C   UNL     1       1.804   5.425  20.682  0.00  0.00    +0.000 C 
ATOM     13  O   UNL     1       2.401   7.257  19.330  0.00  0.00    +0.000 OA
ENDBRANCH   6  11
BRANCH   1  15
ATOM     14  C   UNL     1       7.126   4.681  13.715  0.00  0.00    +0.000 C 
ATOM     15  O   UNL     1       7.368   5.400  14.924  0.00  0.00    +0.000 OA
ENDBRANCH   1  15
BRANCH   9  16
ATOM     16  O   UNL     1       7.020   7.532  16.924  0.00  0.00    +0.000 OA
ATOM     17  C   UNL     1       7.921   7.597  18.014  0.00  0.00    +0.000 C 
ENDBRANCH   9  16
TORSDOF 3
ENDMDL
