MODEL 1
REMARK VINA RESULT:      -8.3      0.000      0.000
REMARK  Name = 
REMARK  8 active torsions:
REMARK  status: ('A' for Active; 'I' for Inactive)
REMARK    1  A    between atoms: C_1  and  O_2
REMARK    2  A    between atoms: O_2  and  C_3
REMARK    3  A    between atoms: C_6  and  C_7
REMARK    4  A    between atoms: C_7  and  N_8
REMARK    5  A    between atoms: C_9  and  C_11
REMARK    6  A    between atoms: C_13  and  C_14
REMARK    7  A    between atoms: C_17  and  C_18
REMARK    8  A    between atoms: N_25  and  C_26
REMARK                            x       y       z     vdW  Elec       q    Type
REMARK                         _______ _______ _______ _____ _____    ______ ____
ROOT
ATOM      1  C   UNL     1       4.201   4.974  19.400  0.00  0.00    +0.000 C 
ATOM      2  C   UNL     1       3.586   6.140  19.622  0.00  0.00    +0.000 C 
ATOM      3  C   UNL     1       2.214   6.267  20.155  0.00  0.00    +0.000 C 
ATOM      4  N   UNL     1       1.492   5.305  20.605  0.00  0.00    +0.000 NA
ATOM      5  S   UNL     1       2.089   3.819  20.615  0.00  0.00    +0.000 S 
ATOM      6  O   UNL     1       1.190   2.985  19.837  0.00  0.00    +0.000 OA
ATOM      7  O   UNL     1       2.370   3.470  21.991  0.00  0.00    +0.000 OA
ATOM      8  N   UNL     1       3.557   3.766  19.806  0.00  0.00    +0.000 N 
ATOM      9  C   UNL     1       4.255   2.468  19.845  0.00  0.00    +0.000 C 
ENDROOT
BRANCH   3  10
ATOM     10  C   UNL     1       1.667   7.655  20.173  0.00  0.00    +0.000 A 
ATOM     11  C   UNL     1       1.053   8.186  21.315  0.00  0.00    +0.000 A 
ATOM     12  C   UNL     1       0.504   9.469  21.284  0.00  0.00    +0.000 A 
ATOM     13  C   UNL     1       0.582  10.243  20.121  0.00  0.00    +0.000 A 
ATOM     14  C   UNL     1       0.003  11.626  20.080  0.00  0.00    +0.000 C 
ATOM     15  C   UNL     1       1.224   9.720  18.991  0.00  0.00    +0.000 A 
ATOM     16  C   UNL     1       1.767   8.433  19.016  0.00  0.00    +0.000 A 
ENDBRANCH   3  10
BRANCH   1  18
ATOM     17  N   UNL     1       5.631   5.365  17.439  0.00  0.00    +0.000 N 
ATOM     18  C   UNL     1       5.577   4.965  18.760  0.00  0.00    +0.000 C 
ATOM     19  O   UNL     1       6.575   4.589  19.365  0.00  0.00    +0.000 OA
ATOM     20  H   UNL     1       4.798   5.569  16.910  0.00  0.00    +0.000 HD
BRANCH  17  21
ATOM     21  C   UNL     1       6.876   5.449  16.703  0.00  0.00    +0.000 C 
BRANCH  21  25
ATOM     22  C   UNL     1       6.424   3.878  12.691  0.00  0.00    +0.000 A 
ATOM     23  C   UNL     1       5.560   3.486  13.714  0.00  0.00    +0.000 A 
ATOM     24  C   UNL     1       5.712   3.992  15.008  0.00  0.00    +0.000 A 
ATOM     25  C   UNL     1       6.752   4.884  15.308  0.00  0.00    +0.000 A 
ATOM     26  C   UNL     1       7.610   5.279  14.271  0.00  0.00    +0.000 A 
ATOM     27  C   UNL     1       7.456   4.771  12.976  0.00  0.00    +0.000 A 
BRANCH  22  29
ATOM     28  C   UNL     1       5.756   1.946  11.499  0.00  0.00    +0.000 C 
ATOM     29  O   UNL     1       6.187   3.303  11.473  0.00  0.00    +0.000 OA
ENDBRANCH  22  29
ENDBRANCH  21  25
ENDBRANCH  17  21
ENDBRANCH   1  18
TORSDOF 5
ENDMDL
MODEL 2
REMARK VINA RESULT:      -8.0      0.326      1.317
REMARK  Name = 
REMARK  8 active torsions:
REMARK  status: ('A' for Active; 'I' for Inactive)
REMARK    1  A    between atoms: C_1  and  O_2
REMARK    2  A    between atoms: O_2  and  C_3
REMARK    3  A    between atoms: C_6  and  C_7
REMARK    4  A    between atoms: C_7  and  N_8
REMARK    5  A    between atoms: C_9  and  C_11
REMARK    6  A    between atoms: C_13  and  C_14
REMARK    7  A    between atoms: C_17  and  C_18
REMARK    8  A    between atoms: N_25  and  C_26
REMARK                            x       y       z     vdW  Elec       q    Type
REMARK                         _______ _______ _______ _____ _____    ______ ____
ROOT
ATOM      1  C   UNL     1       4.030   4.913  19.248  0.00  0.00    +0.000 C 
ATOM      2  C   UNL     1       3.466   6.106  19.459  0.00  0.00    +0.000 C 
ATOM      3  C   UNL     1       2.149   6.300  20.103  0.00  0.00    +0.000 C 
ATOM      4  N   UNL     1       1.447   5.385  20.664  0.00  0.00    +0.000 NA
ATOM      5  S   UNL     1       2.006   3.884  20.702  0.00  0.00    +0.000 S 
ATOM      6  O   UNL     1       1.021   3.038  20.052  0.00  0.00    +0.000 OA
ATOM      7  O   UNL     1       2.399   3.598  22.065  0.00  0.00    +0.000 OA
ATOM      8  N   UNL     1       3.395   3.747  19.772  0.00  0.00    +0.000 N 
ATOM      9  C   UNL     1       4.062   2.433  19.820  0.00  0.00    +0.000 C 
ENDROOT
BRANCH   3  10
ATOM     10  C   UNL     1       1.641   7.703  20.093  0.00  0.00    +0.000 A 
ATOM     11  C   UNL     1       1.736   8.510  18.952  0.00  0.00    +0.000 A 
ATOM     12  C   UNL     1       1.299   9.834  18.991  0.00  0.00    +0.000 A 
ATOM     13  C   UNL     1       0.743  10.361  20.161  0.00  0.00    +0.000 A 
ATOM     14  C   UNL     1       0.262  11.781  20.211  0.00  0.00    +0.000 C 
ATOM     15  C   UNL     1       0.621   9.541  21.291  0.00  0.00    +0.000 A 
ATOM     16  C   UNL     1       1.064   8.218  21.258  0.00  0.00    +0.000 A 
ENDBRANCH   3  10
BRANCH   1  18
ATOM     17  N   UNL     1       5.405   5.543  17.310  0.00  0.00    +0.000 N 
ATOM     18  C   UNL     1       5.343   4.831  18.492  0.00  0.00    +0.000 C 
ATOM     19  O   UNL     1       6.280   4.144  18.885  0.00  0.00    +0.000 OA
ATOM     20  H   UNL     1       4.601   6.018  16.931  0.00  0.00    +0.000 HD
BRANCH  17  21
ATOM     21  C   UNL     1       6.602   5.597  16.497  0.00  0.00    +0.000 C 
BRANCH  21  25
ATOM     22  C   UNL     1       6.113   3.667  12.650  0.00  0.00    +0.000 A 
ATOM     23  C   UNL     1       7.298   4.329  12.972  0.00  0.00    +0.000 A 
ATOM     24  C   UNL     1       7.450   4.955  14.212  0.00  0.00    +0.000 A 
ATOM     25  C   UNL     1       6.405   4.949  15.147  0.00  0.00    +0.000 A 
ATOM     26  C   UNL     1       5.220   4.274  14.818  0.00  0.00    +0.000 A 
ATOM     27  C   UNL     1       5.070   3.649  13.575  0.00  0.00    +0.000 A 
BRANCH  22  29
ATOM     28  C   UNL     1       6.123   1.688  11.354  0.00  0.00    +0.000 C 
ATOM     29  O   UNL     1       6.076   3.110  11.402  0.00  0.00    +0.000 OA
ENDBRANCH  22  29
ENDBRANCH  21  25
ENDBRANCH  17  21
ENDBRANCH   1  18
TORSDOF 5
ENDMDL
MODEL 3
REMARK VINA RESULT:      -7.6      5.506      8.150
REMARK  Name = 
REMARK  8 active torsions:
REMARK  status: ('A' for Active; 'I' for Inactive)
REMARK    1  A    between atoms: C_1  and  O_2
REMARK    2  A    between atoms: O_2  and  C_3
REMARK    3  A    between atoms: C_6  and  C_7
REMARK    4  A    between atoms: C_7  and  N_8
REMARK    5  A    between atoms: C_9  and  C_11
REMARK    6  A    between atoms: C_13  and  C_14
REMARK    7  A    between atoms: C_17  and  C_18
REMARK    8  A    between atoms: N_25  and  C_26
REMARK                            x       y       z     vdW  Elec       q    Type
REMARK                         _______ _______ _______ _____ _____    ______ ____
ROOT
ATOM      1  C   UNL     1      -0.958  11.174  20.786  0.00  0.00    +0.000 C 
ATOM      2  C   UNL     1      -1.374  11.045  19.523  0.00  0.00    +0.000 C 
ATOM      3  C   UNL     1      -2.648  11.589  19.009  0.00  0.00    +0.000 C 
ATOM      4  N   UNL     1      -3.444  12.366  19.649  0.00  0.00    +0.000 NA
ATOM      5  S   UNL     1      -3.065  12.818  21.138  0.00  0.00    +0.000 S 
ATOM      6  O   UNL     1      -4.152  12.406  22.007  0.00  0.00    +0.000 OA
ATOM      7  O   UNL     1      -2.687  14.215  21.088  0.00  0.00    +0.000 OA
ATOM      8  N   UNL     1      -1.716  11.984  21.684  0.00  0.00    +0.000 N 
ATOM      9  C   UNL     1      -1.208  12.397  23.005  0.00  0.00    +0.000 C 
ENDROOT
BRANCH   3  10
ATOM     10  C   UNL     1      -2.989  11.192  17.612  0.00  0.00    +0.000 A 
ATOM     11  C   UNL     1      -4.148  11.659  16.979  0.00  0.00    +0.000 A 
ATOM     12  C   UNL     1      -4.466  11.227  15.690  0.00  0.00    +0.000 A 
ATOM     13  C   UNL     1      -3.621  10.343  15.012  0.00  0.00    +0.000 A 
ATOM     14  C   UNL     1      -3.949   9.880  13.624  0.00  0.00    +0.000 C 
ATOM     15  C   UNL     1      -2.446   9.903  15.637  0.00  0.00    +0.000 A 
ATOM     16  C   UNL     1      -2.129  10.326  16.929  0.00  0.00    +0.000 A 
ENDBRANCH   3  10
BRANCH   1  18
ATOM     17  N   UNL     1       0.336   9.113  21.132  0.00  0.00    +0.000 N 
ATOM     18  C   UNL     1       0.325  10.491  21.224  0.00  0.00    +0.000 C 
ATOM     19  O   UNL     1       1.279  11.119  21.669  0.00  0.00    +0.000 OA
ATOM     20  H   UNL     1      -0.484   8.589  20.871  0.00  0.00    +0.000 HD
BRANCH  17  21
ATOM     21  C   UNL     1       1.501   8.320  21.473  0.00  0.00    +0.000 C 
BRANCH  21  25
ATOM     22  C   UNL     1       2.454   5.328  18.490  0.00  0.00    +0.000 A 
ATOM     23  C   UNL     1       2.568   6.688  18.200  0.00  0.00    +0.000 A 
ATOM     24  C   UNL     1       2.255   7.651  19.164  0.00  0.00    +0.000 A 
ATOM     25  C   UNL     1       1.797   7.267  20.433  0.00  0.00    +0.000 A 
ATOM     26  C   UNL     1       1.693   5.897  20.717  0.00  0.00    +0.000 A 
ATOM     27  C   UNL     1       2.007   4.936  19.750  0.00  0.00    +0.000 A 
BRANCH  22  29
ATOM     28  C   UNL     1       2.597   3.095  17.721  0.00  0.00    +0.000 C 
ATOM     29  O   UNL     1       2.771   4.484  17.462  0.00  0.00    +0.000 OA
ENDBRANCH  22  29
ENDBRANCH  21  25
ENDBRANCH  17  21
ENDBRANCH   1  18
TORSDOF 5
ENDMDL
MODEL 4
REMARK VINA RESULT:      -7.6      5.464      8.068
REMARK  Name = 
REMARK  8 active torsions:
REMARK  status: ('A' for Active; 'I' for Inactive)
REMARK    1  A    between atoms: C_1  and  O_2
REMARK    2  A    between atoms: O_2  and  C_3
REMARK    3  A    between atoms: C_6  and  C_7
REMARK    4  A    between atoms: C_7  and  N_8
REMARK    5  A    between atoms: C_9  and  C_11
REMARK    6  A    between atoms: C_13  and  C_14
REMARK    7  A    between atoms: C_17  and  C_18
REMARK    8  A    between atoms: N_25  and  C_26
REMARK                            x       y       z     vdW  Elec       q    Type
REMARK                         _______ _______ _______ _____ _____    ______ ____
ROOT
ATOM      1  C   UNL     1      -0.879  11.071  20.693  0.00  0.00    +0.000 C 
ATOM      2  C   UNL     1      -1.305  10.906  19.437  0.00  0.00    +0.000 C 
ATOM      3  C   UNL     1      -2.573  11.456  18.912  0.00  0.00    +0.000 C 
ATOM      4  N   UNL     1      -3.351  12.268  19.530  0.00  0.00    +0.000 NA
ATOM      5  S   UNL     1      -2.955  12.763  21.000  0.00  0.00    +0.000 S 
ATOM      6  O   UNL     1      -4.045  12.399  21.889  0.00  0.00    +0.000 OA
ATOM      7  O   UNL     1      -2.553  14.150  20.901  0.00  0.00    +0.000 OA
ATOM      8  N   UNL     1      -1.618  11.924  21.567  0.00  0.00    +0.000 N 
ATOM      9  C   UNL     1      -1.095  12.372  22.870  0.00  0.00    +0.000 C 
ENDROOT
BRANCH   3  10
ATOM     10  C   UNL     1      -2.928  11.018  17.531  0.00  0.00    +0.000 A 
ATOM     11  C   UNL     1      -2.153  10.079  16.837  0.00  0.00    +0.000 A 
ATOM     12  C   UNL     1      -2.481   9.729  15.527  0.00  0.00    +0.000 A 
ATOM     13  C   UNL     1      -3.598  10.295  14.903  0.00  0.00    +0.000 A 
ATOM     14  C   UNL     1      -3.966   9.918  13.498  0.00  0.00    +0.000 C 
ATOM     15  C   UNL     1      -4.390  11.209  15.612  0.00  0.00    +0.000 A 
ATOM     16  C   UNL     1      -4.059  11.568  16.920  0.00  0.00    +0.000 A 
ENDBRANCH   3  10
BRANCH   1  18
ATOM     17  N   UNL     1       0.371   8.999  21.127  0.00  0.00    +0.000 N 
ATOM     18  C   UNL     1       0.394  10.379  21.147  0.00  0.00    +0.000 C 
ATOM     19  O   UNL     1       1.370  11.006  21.544  0.00  0.00    +0.000 OA
ATOM     20  H   UNL     1      -0.466   8.483  20.905  0.00  0.00    +0.000 HD
BRANCH  17  21
ATOM     21  C   UNL     1       1.521   8.197  21.491  0.00  0.00    +0.000 C 
BRANCH  21  25
ATOM     22  C   UNL     1       2.542   5.228  18.506  0.00  0.00    +0.000 A 
ATOM     23  C   UNL     1       2.704   6.589  18.246  0.00  0.00    +0.000 A 
ATOM     24  C   UNL     1       2.369   7.544  19.210  0.00  0.00    +0.000 A 
ATOM     25  C   UNL     1       1.841   7.153  20.448  0.00  0.00    +0.000 A 
ATOM     26  C   UNL     1       1.689   5.782  20.704  0.00  0.00    +0.000 A 
ATOM     27  C   UNL     1       2.025   4.828  19.737  0.00  0.00    +0.000 A 
BRANCH  22  29
ATOM     28  C   UNL     1       4.202   4.556  16.959  0.00  0.00    +0.000 C 
ATOM     29  O   UNL     1       2.887   4.392  17.481  0.00  0.00    +0.000 OA
ENDBRANCH  22  29
ENDBRANCH  21  25
ENDBRANCH  17  21
ENDBRANCH   1  18
TORSDOF 5
ENDMDL
MODEL 5
REMARK VINA RESULT:      -7.6      5.491      8.085
REMARK  Name = 
REMARK  8 active torsions:
REMARK  status: ('A' for Active; 'I' for Inactive)
REMARK    1  A    between atoms: C_1  and  O_2
REMARK    2  A    between atoms: O_2  and  C_3
REMARK    3  A    between atoms: C_6  and  C_7
REMARK    4  A    between atoms: C_7  and  N_8
REMARK    5  A    between atoms: C_9  and  C_11
REMARK    6  A    between atoms: C_13  and  C_14
REMARK    7  A    between atoms: C_17  and  C_18
REMARK    8  A    between atoms: N_25  and  C_26
REMARK                            x       y       z     vdW  Elec       q    Type
REMARK                         _______ _______ _______ _____ _____    ______ ____
ROOT
ATOM      1  C   UNL     1      -0.954  11.116  20.682  0.00  0.00    +0.000 C 
ATOM      2  C   UNL     1      -1.365  10.985  19.417  0.00  0.00    +0.000 C 
ATOM      3  C   UNL     1      -2.628  11.544  18.892  0.00  0.00    +0.000 C 
ATOM      4  N   UNL     1      -3.417  12.335  19.523  0.00  0.00    +0.000 NA
ATOM      5  S   UNL     1      -3.041  12.789  21.012  0.00  0.00    +0.000 S 
ATOM      6  O   UNL     1      -4.140  12.396  21.877  0.00  0.00    +0.000 OA
ATOM      7  O   UNL     1      -2.644  14.180  20.958  0.00  0.00    +0.000 OA
ATOM      8  N   UNL     1      -1.707  11.940  21.571  0.00  0.00    +0.000 N 
ATOM      9  C   UNL     1      -1.202  12.353  22.892  0.00  0.00    +0.000 C 
ENDROOT
BRANCH   3  10
ATOM     10  C   UNL     1      -2.965  11.144  17.495  0.00  0.00    +0.000 A 
ATOM     11  C   UNL     1      -4.109  11.633  16.848  0.00  0.00    +0.000 A 
ATOM     12  C   UNL     1      -4.425  11.199  15.560  0.00  0.00    +0.000 A 
ATOM     13  C   UNL     1      -3.594  10.291  14.896  0.00  0.00    +0.000 A 
ATOM     14  C   UNL     1      -3.921   9.825  13.508  0.00  0.00    +0.000 C 
ATOM     15  C   UNL     1      -2.435   9.829  15.534  0.00  0.00    +0.000 A 
ATOM     16  C   UNL     1      -2.120  10.254  16.826  0.00  0.00    +0.000 A 
ENDBRANCH   3  10
BRANCH   1  18
ATOM     17  N   UNL     1       0.249   9.041  21.223  0.00  0.00    +0.000 N 
ATOM     18  C   UNL     1       0.316  10.417  21.131  0.00  0.00    +0.000 C 
ATOM     19  O   UNL     1       1.330  11.038  21.431  0.00  0.00    +0.000 OA
ATOM     20  H   UNL     1      -0.614   8.539  21.083  0.00  0.00    +0.000 HD
BRANCH  17  21
ATOM     21  C   UNL     1       1.389   8.229  21.597  0.00  0.00    +0.000 C 
BRANCH  21  25
ATOM     22  C   UNL     1       2.481   5.490  18.425  0.00  0.00    +0.000 A 
ATOM     23  C   UNL     1       2.085   5.015  19.675  0.00  0.00    +0.000 A 
ATOM     24  C   UNL     1       1.737   5.902  20.698  0.00  0.00    +0.000 A 
ATOM     25  C   UNL     1       1.805   7.288  20.493  0.00  0.00    +0.000 A 
ATOM     26  C   UNL     1       2.197   7.756  19.230  0.00  0.00    +0.000 A 
ATOM     27  C   UNL     1       2.544   6.865  18.208  0.00  0.00    +0.000 A 
BRANCH  22  29
ATOM     28  C   UNL     1       4.180   4.487  17.118  0.00  0.00    +0.000 C 
ATOM     29  O   UNL     1       2.812   4.527  17.512  0.00  0.00    +0.000 OA
ENDBRANCH  22  29
ENDBRANCH  21  25
ENDBRANCH  17  21
ENDBRANCH   1  18
TORSDOF 5
ENDMDL
MODEL 6
REMARK VINA RESULT:      -7.4      2.857      8.186
REMARK  Name = 
REMARK  8 active torsions:
REMARK  status: ('A' for Active; 'I' for Inactive)
REMARK    1  A    between atoms: C_1  and  O_2
REMARK    2  A    between atoms: O_2  and  C_3
REMARK    3  A    between atoms: C_6  and  C_7
REMARK    4  A    between atoms: C_7  and  N_8
REMARK    5  A    between atoms: C_9  and  C_11
REMARK    6  A    between atoms: C_13  and  C_14
REMARK    7  A    between atoms: C_17  and  C_18
REMARK    8  A    between atoms: N_25  and  C_26
REMARK                            x       y       z     vdW  Elec       q    Type
REMARK                         _______ _______ _______ _____ _____    ______ ____
ROOT
ATOM      1  C   UNL     1       2.557   5.983  18.903  0.00  0.00    +0.000 C 
ATOM      2  C   UNL     1       3.377   5.891  17.852  0.00  0.00    +0.000 C 
ATOM      3  C   UNL     1       3.858   4.614  17.284  0.00  0.00    +0.000 C 
ATOM      4  N   UNL     1       3.452   3.444  17.620  0.00  0.00    +0.000 NA
ATOM      5  S   UNL     1       2.322   3.303  18.746  0.00  0.00    +0.000 S 
ATOM      6  O   UNL     1       2.868   2.477  19.808  0.00  0.00    +0.000 OA
ATOM      7  O   UNL     1       1.098   2.896  18.088  0.00  0.00    +0.000 OA
ATOM      8  N   UNL     1       2.004   4.789  19.455  0.00  0.00    +0.000 N 
ATOM      9  C   UNL     1       0.900   4.801  20.432  0.00  0.00    +0.000 C 
ENDROOT
BRANCH   3  10
ATOM     10  C   UNL     1       4.891   4.746  16.216  0.00  0.00    +0.000 A 
ATOM     11  C   UNL     1       4.811   4.011  15.025  0.00  0.00    +0.000 A 
ATOM     12  C   UNL     1       5.820   4.117  14.067  0.00  0.00    +0.000 A 
ATOM     13  C   UNL     1       6.908   4.971  14.277  0.00  0.00    +0.000 A 
ATOM     14  C   UNL     1       7.993   5.099  13.249  0.00  0.00    +0.000 C 
ATOM     15  C   UNL     1       6.968   5.727  15.455  0.00  0.00    +0.000 A 
ATOM     16  C   UNL     1       5.964   5.619  16.419  0.00  0.00    +0.000 A 
ENDBRANCH   3  10
BRANCH   1  18
ATOM     17  N   UNL     1       2.070   8.364  18.529  0.00  0.00    +0.000 N 
ATOM     18  C   UNL     1       2.205   7.352  19.458  0.00  0.00    +0.000 C 
ATOM     19  O   UNL     1       2.086   7.556  20.661  0.00  0.00    +0.000 OA
ATOM     20  H   UNL     1       2.275   8.222  17.552  0.00  0.00    +0.000 HD
BRANCH  17  21
ATOM     21  C   UNL     1       1.696   9.714  18.898  0.00  0.00    +0.000 C 
BRANCH  21  25
ATOM     22  C   UNL     1      -2.448  10.646  18.051  0.00  0.00    +0.000 A 
ATOM     23  C   UNL     1      -1.811  11.174  19.175  0.00  0.00    +0.000 A 
ATOM     24  C   UNL     1      -0.475  10.868  19.447  0.00  0.00    +0.000 A 
ATOM     25  C   UNL     1       0.243  10.003  18.609  0.00  0.00    +0.000 A 
ATOM     26  C   UNL     1      -0.403   9.483  17.477  0.00  0.00    +0.000 A 
ATOM     27  C   UNL     1      -1.741   9.791  17.207  0.00  0.00    +0.000 A 
BRANCH  22  29
ATOM     28  C   UNL     1      -4.221  11.128  16.560  0.00  0.00    +0.000 C 
ATOM     29  O   UNL     1      -3.759  11.004  17.901  0.00  0.00    +0.000 OA
ENDBRANCH  22  29
ENDBRANCH  21  25
ENDBRANCH  17  21
ENDBRANCH   1  18
TORSDOF 5
ENDMDL
MODEL 7
REMARK VINA RESULT:      -7.3      2.896      8.089
REMARK  Name = 
REMARK  8 active torsions:
REMARK  status: ('A' for Active; 'I' for Inactive)
REMARK    1  A    between atoms: C_1  and  O_2
REMARK    2  A    between atoms: O_2  and  C_3
REMARK    3  A    between atoms: C_6  and  C_7
REMARK    4  A    between atoms: C_7  and  N_8
REMARK    5  A    between atoms: C_9  and  C_11
REMARK    6  A    between atoms: C_13  and  C_14
REMARK    7  A    between atoms: C_17  and  C_18
REMARK    8  A    between atoms: N_25  and  C_26
REMARK                            x       y       z     vdW  Elec       q    Type
REMARK                         _______ _______ _______ _____ _____    ______ ____
ROOT
ATOM      1  C   UNL     1       2.434   5.977  19.126  0.00  0.00    +0.000 C 
ATOM      2  C   UNL     1       3.270   5.910  18.085  0.00  0.00    +0.000 C 
ATOM      3  C   UNL     1       3.719   4.648  17.461  0.00  0.00    +0.000 C 
ATOM      4  N   UNL     1       3.268   3.476  17.731  0.00  0.00    +0.000 NA
ATOM      5  S   UNL     1       2.114   3.317  18.829  0.00  0.00    +0.000 S 
ATOM      6  O   UNL     1       2.613   2.420  19.857  0.00  0.00    +0.000 OA
ATOM      7  O   UNL     1       0.890   2.985  18.131  0.00  0.00    +0.000 OA
ATOM      8  N   UNL     1       1.832   4.775  19.608  0.00  0.00    +0.000 N 
ATOM      9  C   UNL     1       0.712   4.776  20.566  0.00  0.00    +0.000 C 
ENDROOT
BRANCH   3  10
ATOM     10  C   UNL     1       4.774   4.798  16.418  0.00  0.00    +0.000 A 
ATOM     11  C   UNL     1       5.200   6.060  15.982  0.00  0.00    +0.000 A 
ATOM     12  C   UNL     1       6.151   6.167  14.967  0.00  0.00    +0.000 A 
ATOM     13  C   UNL     1       6.702   5.018  14.390  0.00  0.00    +0.000 A 
ATOM     14  C   UNL     1       7.732   5.122  13.304  0.00  0.00    +0.000 C 
ATOM     15  C   UNL     1       6.297   3.758  14.851  0.00  0.00    +0.000 A 
ATOM     16  C   UNL     1       5.339   3.647  15.861  0.00  0.00    +0.000 A 
ENDBRANCH   3  10
BRANCH   1  18
ATOM     17  N   UNL     1       1.812   8.340  18.857  0.00  0.00    +0.000 N 
ATOM     18  C   UNL     1       2.117   7.327  19.744  0.00  0.00    +0.000 C 
ATOM     19  O   UNL     1       2.167   7.517  20.954  0.00  0.00    +0.000 OA
ATOM     20  H   UNL     1       1.877   8.213  17.860  0.00  0.00    +0.000 HD
BRANCH  17  21
ATOM     21  C   UNL     1       1.447   9.672  19.295  0.00  0.00    +0.000 C 
BRANCH  21  25
ATOM     22  C   UNL     1      -2.458  10.790  17.791  0.00  0.00    +0.000 A 
ATOM     23  C   UNL     1      -1.668   9.863  17.111  0.00  0.00    +0.000 A 
ATOM     24  C   UNL     1      -0.407   9.509  17.596  0.00  0.00    +0.000 A 
ATOM     25  C   UNL     1       0.099  10.097  18.765  0.00  0.00    +0.000 A 
ATOM     26  C   UNL     1      -0.706  11.022  19.447  0.00  0.00    +0.000 A 
ATOM     27  C   UNL     1      -1.969  11.375  18.958  0.00  0.00    +0.000 A 
BRANCH  22  29
ATOM     28  C   UNL     1      -3.761  10.794  15.816  0.00  0.00    +0.000 C 
ATOM     29  O   UNL     1      -3.664  11.069  17.210  0.00  0.00    +0.000 OA
ENDBRANCH  22  29
ENDBRANCH  21  25
ENDBRANCH  17  21
ENDBRANCH   1  18
TORSDOF 5
ENDMDL
MODEL 8
REMARK VINA RESULT:      -7.3      5.221      9.458
REMARK  Name = 
REMARK  8 active torsions:
REMARK  status: ('A' for Active; 'I' for Inactive)
REMARK    1  A    between atoms: C_1  and  O_2
REMARK    2  A    between atoms: O_2  and  C_3
REMARK    3  A    between atoms: C_6  and  C_7
REMARK    4  A    between atoms: C_7  and  N_8
REMARK    5  A    between atoms: C_9  and  C_11
REMARK    6  A    between atoms: C_13  and  C_14
REMARK    7  A    between atoms: C_17  and  C_18
REMARK    8  A    between atoms: N_25  and  C_26
REMARK                            x       y       z     vdW  Elec       q    Type
REMARK                         _______ _______ _______ _____ _____    ______ ____
ROOT
ATOM      1  C   UNL     1       0.529  10.598  19.816  0.00  0.00    +0.000 C 
ATOM      2  C   UNL     1       1.147   9.577  19.214  0.00  0.00    +0.000 C 
ATOM      3  C   UNL     1       1.606   8.358  19.911  0.00  0.00    +0.000 C 
ATOM      4  N   UNL     1       1.355   8.052  21.132  0.00  0.00    +0.000 NA
ATOM      5  S   UNL     1       0.465   9.045  22.018  0.00  0.00    +0.000 S 
ATOM      6  O   UNL     1       1.257   9.420  23.177  0.00  0.00    +0.000 OA
ATOM      7  O   UNL     1      -0.825   8.420  22.212  0.00  0.00    +0.000 OA
ATOM      8  N   UNL     1       0.176  10.477  21.193  0.00  0.00    +0.000 N 
ATOM      9  C   UNL     1      -0.726  11.426  21.869  0.00  0.00    +0.000 C 
ENDROOT
BRANCH   3  10
ATOM     10  C   UNL     1       2.412   7.418  19.078  0.00  0.00    +0.000 A 
ATOM     11  C   UNL     1       3.123   7.860  17.954  0.00  0.00    +0.000 A 
ATOM     12  C   UNL     1       3.824   6.947  17.164  0.00  0.00    +0.000 A 
ATOM     13  C   UNL     1       3.841   5.589  17.499  0.00  0.00    +0.000 A 
ATOM     14  C   UNL     1       4.599   4.602  16.662  0.00  0.00    +0.000 C 
ATOM     15  C   UNL     1       3.155   5.156  18.642  0.00  0.00    +0.000 A 
ATOM     16  C   UNL     1       2.445   6.065  19.430  0.00  0.00    +0.000 A 
ENDBRANCH   3  10
BRANCH   1  18
ATOM     17  N   UNL     1       1.031  12.921  19.186  0.00  0.00    +0.000 N 
ATOM     18  C   UNL     1       0.187  11.841  19.014  0.00  0.00    +0.000 C 
ATOM     19  O   UNL     1      -0.799  11.898  18.289  0.00  0.00    +0.000 OA
ATOM     20  H   UNL     1       1.777  12.912  19.863  0.00  0.00    +0.000 HD
BRANCH  17  21
ATOM     21  C   UNL     1       0.861  14.163  18.460  0.00  0.00    +0.000 C 
BRANCH  21  25
ATOM     22  C   UNL     1       4.379  16.667  18.805  0.00  0.00    +0.000 A 
ATOM     23  C   UNL     1       3.192  17.009  19.453  0.00  0.00    +0.000 A 
ATOM     24  C   UNL     1       2.058  16.201  19.336  0.00  0.00    +0.000 A 
ATOM     25  C   UNL     1       2.085  15.044  18.544  0.00  0.00    +0.000 A 
ATOM     26  C   UNL     1       3.286  14.704  17.902  0.00  0.00    +0.000 A 
ATOM     27  C   UNL     1       4.420  15.515  18.022  0.00  0.00    +0.000 A 
BRANCH  22  29
ATOM     28  C   UNL     1       6.721  16.980  18.943  0.00  0.00    +0.000 C 
ATOM     29  O   UNL     1       5.414  17.543  18.981  0.00  0.00    +0.000 OA
ENDBRANCH  22  29
ENDBRANCH  21  25
ENDBRANCH  17  21
ENDBRANCH   1  18
TORSDOF 5
ENDMDL
MODEL 9
REMARK VINA RESULT:      -7.3      5.071     10.249
REMARK  Name = 
REMARK  8 active torsions:
REMARK  status: ('A' for Active; 'I' for Inactive)
REMARK    1  A    between atoms: C_1  and  O_2
REMARK    2  A    between atoms: O_2  and  C_3
REMARK    3  A    between atoms: C_6  and  C_7
REMARK    4  A    between atoms: C_7  and  N_8
REMARK    5  A    between atoms: C_9  and  C_11
REMARK    6  A    between atoms: C_13  and  C_14
REMARK    7  A    between atoms: C_17  and  C_18
REMARK    8  A    between atoms: N_25  and  C_26
REMARK                            x       y       z     vdW  Elec       q    Type
REMARK                         _______ _______ _______ _____ _____    ______ ____
ROOT
ATOM      1  C   UNL     1       0.210   9.980  19.375  0.00  0.00    +0.000 C 
ATOM      2  C   UNL     1       0.938   9.008  18.815  0.00  0.00    +0.000 C 
ATOM      3  C   UNL     1       1.754   8.039  19.576  0.00  0.00    +0.000 C 
ATOM      4  N   UNL     1       1.763   7.905  20.852  0.00  0.00    +0.000 NA
ATOM      5  S   UNL     1       0.821   8.845  21.743  0.00  0.00    +0.000 S 
ATOM      6  O   UNL     1       1.676   9.559  22.675  0.00  0.00    +0.000 OA
ATOM      7  O   UNL     1      -0.257   8.026  22.254  0.00  0.00    +0.000 OA
ATOM      8  N   UNL     1       0.104  10.031  20.797  0.00  0.00    +0.000 N 
ATOM      9  C   UNL     1      -0.872  10.890  21.491  0.00  0.00    +0.000 C 
ENDROOT
BRANCH   3  10
ATOM     10  C   UNL     1       2.610   7.143  18.746  0.00  0.00    +0.000 A 
ATOM     11  C   UNL     1       3.539   7.658  17.831  0.00  0.00    +0.000 A 
ATOM     12  C   UNL     1       4.288   6.794  17.031  0.00  0.00    +0.000 A 
ATOM     13  C   UNL     1       4.134   5.408  17.150  0.00  0.00    +0.000 A 
ATOM     14  C   UNL     1       4.942   4.471  16.301  0.00  0.00    +0.000 C 
ATOM     15  C   UNL     1       3.227   4.897  18.088  0.00  0.00    +0.000 A 
ATOM     16  C   UNL     1       2.470   5.759  18.884  0.00  0.00    +0.000 A 
ENDBRANCH   3  10
BRANCH   1  18
ATOM     17  N   UNL     1      -1.638  10.506  17.843  0.00  0.00    +0.000 N 
ATOM     18  C   UNL     1      -0.512  10.977  18.488  0.00  0.00    +0.000 C 
ATOM     19  O   UNL     1      -0.101  12.120  18.323  0.00  0.00    +0.000 OA
ATOM     20  H   UNL     1      -1.915   9.538  17.891  0.00  0.00    +0.000 HD
BRANCH  17  21
ATOM     21  C   UNL     1      -2.458  11.348  16.995  0.00  0.00    +0.000 C 
BRANCH  21  25
ATOM     22  C   UNL     1      -6.254  12.294  18.856  0.00  0.00    +0.000 A 
ATOM     23  C   UNL     1      -6.174  12.030  17.489  0.00  0.00    +0.000 A 
ATOM     24  C   UNL     1      -4.947  11.730  16.891  0.00  0.00    +0.000 A 
ATOM     25  C   UNL     1      -3.769  11.713  17.652  0.00  0.00    +0.000 A 
ATOM     26  C   UNL     1      -3.860  11.971  19.027  0.00  0.00    +0.000 A 
ATOM     27  C   UNL     1      -5.090  12.271  19.623  0.00  0.00    +0.000 A 
BRANCH  22  29
ATOM     28  C   UNL     1      -7.650  12.625  20.737  0.00  0.00    +0.000 C 
ATOM     29  O   UNL     1      -7.505  12.592  19.322  0.00  0.00    +0.000 OA
ENDBRANCH  22  29
ENDBRANCH  21  25
ENDBRANCH  17  21
ENDBRANCH   1  18
TORSDOF 5
ENDMDL
