MODEL 1
REMARK VINA RESULT:      -8.2      0.000      0.000
REMARK  Name = 
REMARK  4 active torsions:
REMARK  status: ('A' for Active; 'I' for Inactive)
REMARK    1  A    between atoms: C_1  and  C_2
REMARK    2  A    between atoms: C_6  and  C_7
REMARK    3  A    between atoms: C_12  and  C_13
REMARK    4  A    between atoms: C_16  and  N_17
REMARK                            x       y       z     vdW  Elec       q    Type
REMARK                         _______ _______ _______ _____ _____    ______ ____
ROOT
ATOM      1  C   UNL     1       4.853   3.994  16.432  0.00  0.00    +0.000 A 
ATOM      2  C   UNL     1       3.621   3.584  16.601  0.00  0.00    +0.000 A 
ATOM      3  C   UNL     1       3.174   3.394  17.901  0.00  0.00    +0.000 A 
ATOM      4  C   UNL     1       1.825   3.064  18.024  0.00  0.00    +0.000 A 
ATOM      5  C   UNL     1       1.213   2.860  19.248  0.00  0.00    +0.000 A 
ATOM      6  C   UNL     1       1.953   3.016  20.414  0.00  0.00    +0.000 A 
ATOM      7  C   UNL     1       1.252   2.814  21.729  0.00  0.00    +0.000 C 
ATOM      8  C   UNL     1       3.334   3.367  20.311  0.00  0.00    +0.000 A 
ATOM      9  C   UNL     1       4.018   3.585  19.033  0.00  0.00    +0.000 A 
ATOM     10  C   UNL     1       5.325   3.934  18.836  0.00  0.00    +0.000 A 
ATOM     11  N   UNL     1       5.455   4.153  17.533  0.00  0.00    +0.000 NA
ENDROOT
BRANCH   1  17
ATOM     12  C   UNL     1       5.475   3.010  11.831  0.00  0.00    +0.000 C 
ATOM     13  C   UNL     1       6.013   3.755  13.010  0.00  0.00    +0.000 A 
ATOM     14  C   UNL     1       7.117   4.602  12.911  0.00  0.00    +0.000 A 
ATOM     15  C   UNL     1       7.583   5.274  14.041  0.00  0.00    +0.000 A 
ATOM     16  C   UNL     1       6.878   5.108  15.256  0.00  0.00    +0.000 A 
ATOM     17  C   UNL     1       5.722   4.251  15.336  0.00  0.00    +0.000 A 
ATOM     18  C   UNL     1       5.337   3.610  14.201  0.00  0.00    +0.000 A 
ENDBRANCH   1  17
BRANCH  10  19
ATOM     19  N   UNL     1       6.571   4.274  18.578  0.00  0.00    +0.000 N 
ATOM     20  H   UNL     1       6.993   3.334  18.827  0.00  0.00    +0.000 HD
ATOM     21  H   UNL     1       6.578   4.104  17.535  0.00  0.00    +0.000 HD
ENDBRANCH  10  19
TORSDOF 2
ENDMDL
MODEL 2
REMARK VINA RESULT:      -7.9      1.676      1.898
REMARK  Name = 
REMARK  4 active torsions:
REMARK  status: ('A' for Active; 'I' for Inactive)
REMARK    1  A    between atoms: C_1  and  C_2
REMARK    2  A    between atoms: C_6  and  C_7
REMARK    3  A    between atoms: C_12  and  C_13
REMARK    4  A    between atoms: C_16  and  N_17
REMARK                            x       y       z     vdW  Elec       q    Type
REMARK                         _______ _______ _______ _____ _____    ______ ____
ROOT
ATOM      1  C   UNL     1       5.203   4.638  15.549  0.00  0.00    +0.000 A 
ATOM      2  C   UNL     1       4.358   3.882  16.203  0.00  0.00    +0.000 A 
ATOM      3  C   UNL     1       3.797   4.392  17.365  0.00  0.00    +0.000 A 
ATOM      4  C   UNL     1       2.824   3.588  17.959  0.00  0.00    +0.000 A 
ATOM      5  C   UNL     1       2.151   3.956  19.110  0.00  0.00    +0.000 A 
ATOM      6  C   UNL     1       2.423   5.187  19.695  0.00  0.00    +0.000 A 
ATOM      7  C   UNL     1       1.654   5.569  20.930  0.00  0.00    +0.000 C 
ATOM      8  C   UNL     1       3.407   6.032  19.095  0.00  0.00    +0.000 A 
ATOM      9  C   UNL     1       4.144   5.674  17.881  0.00  0.00    +0.000 A 
ATOM     10  C   UNL     1       5.089   6.418  17.230  0.00  0.00    +0.000 A 
ATOM     11  N   UNL     1       5.374   5.757  16.114  0.00  0.00    +0.000 NA
ENDROOT
BRANCH   1  17
ATOM     12  C   UNL     1       5.558   2.356  11.403  0.00  0.00    +0.000 C 
ATOM     13  C   UNL     1       6.190   3.366  12.305  0.00  0.00    +0.000 A 
ATOM     14  C   UNL     1       7.333   4.077  11.938  0.00  0.00    +0.000 A 
ATOM     15  C   UNL     1       7.886   5.008  12.816  0.00  0.00    +0.000 A 
ATOM     16  C   UNL     1       7.230   5.239  14.047  0.00  0.00    +0.000 A 
ATOM     17  C   UNL     1       6.033   4.517  14.401  0.00  0.00    +0.000 A 
ATOM     18  C   UNL     1       5.562   3.609  13.507  0.00  0.00    +0.000 A 
ENDBRANCH   1  17
BRANCH  10  19
ATOM     19  N   UNL     1       6.002   7.086  16.554  0.00  0.00    +0.000 N 
ATOM     20  H   UNL     1       6.678   6.275  16.457  0.00  0.00    +0.000 HD
ATOM     21  H   UNL     1       5.598   6.983  15.583  0.00  0.00    +0.000 HD
ENDBRANCH  10  19
TORSDOF 2
ENDMDL
MODEL 3
REMARK VINA RESULT:      -7.7      5.607      6.588
REMARK  Name = 
REMARK  4 active torsions:
REMARK  status: ('A' for Active; 'I' for Inactive)
REMARK    1  A    between atoms: C_1  and  C_2
REMARK    2  A    between atoms: C_6  and  C_7
REMARK    3  A    between atoms: C_12  and  C_13
REMARK    4  A    between atoms: C_16  and  N_17
REMARK                            x       y       z     vdW  Elec       q    Type
REMARK                         _______ _______ _______ _____ _____    ______ ____
ROOT
ATOM      1  C   UNL     1       2.168   7.667  19.269  0.00  0.00    +0.000 A 
ATOM      2  C   UNL     1       1.774   7.666  20.517  0.00  0.00    +0.000 A 
ATOM      3  C   UNL     1       1.041   8.757  20.965  0.00  0.00    +0.000 A 
ATOM      4  C   UNL     1       0.556   8.652  22.268  0.00  0.00    +0.000 A 
ATOM      5  C   UNL     1      -0.210   9.640  22.862  0.00  0.00    +0.000 A 
ATOM      6  C   UNL     1      -0.542  10.775  22.134  0.00  0.00    +0.000 A 
ATOM      7  C   UNL     1      -1.399  11.816  22.799  0.00  0.00    +0.000 C 
ATOM      8  C   UNL     1      -0.067  10.896  20.792  0.00  0.00    +0.000 A 
ATOM      9  C   UNL     1       0.750   9.875  20.131  0.00  0.00    +0.000 A 
ATOM     10  C   UNL     1       1.239   9.897  18.855  0.00  0.00    +0.000 A 
ATOM     11  N   UNL     1       1.798   8.709  18.654  0.00  0.00    +0.000 NA
ENDROOT
BRANCH   1  17
ATOM     12  C   UNL     1       2.533   3.209  17.681  0.00  0.00    +0.000 C 
ATOM     13  C   UNL     1       3.119   4.583  17.625  0.00  0.00    +0.000 A 
ATOM     14  C   UNL     1       4.186   4.901  16.784  0.00  0.00    +0.000 A 
ATOM     15  C   UNL     1       4.699   6.197  16.771  0.00  0.00    +0.000 A 
ATOM     16  C   UNL     1       4.078   7.172  17.585  0.00  0.00    +0.000 A 
ATOM     17  C   UNL     1       2.958   6.835  18.428  0.00  0.00    +0.000 A 
ATOM     18  C   UNL     1       2.524   5.548  18.408  0.00  0.00    +0.000 A 
ENDBRANCH   1  17
BRANCH  10  19
ATOM     19  N   UNL     1       1.734   9.853  17.635  0.00  0.00    +0.000 N 
ATOM     20  H   UNL     1       0.839  10.141  17.146  0.00  0.00    +0.000 HD
ATOM     21  H   UNL     1       2.170  10.816  17.597  0.00  0.00    +0.000 HD
ENDBRANCH  10  19
TORSDOF 2
ENDMDL
MODEL 4
REMARK VINA RESULT:      -7.6      1.315      6.599
REMARK  Name = 
REMARK  4 active torsions:
REMARK  status: ('A' for Active; 'I' for Inactive)
REMARK    1  A    between atoms: C_1  and  C_2
REMARK    2  A    between atoms: C_6  and  C_7
REMARK    3  A    between atoms: C_12  and  C_13
REMARK    4  A    between atoms: C_16  and  N_17
REMARK                            x       y       z     vdW  Elec       q    Type
REMARK                         _______ _______ _______ _____ _____    ______ ____
ROOT
ATOM      1  C   UNL     1       4.487   3.952  18.113  0.00  0.00    +0.000 A 
ATOM      2  C   UNL     1       4.274   3.824  16.827  0.00  0.00    +0.000 A 
ATOM      3  C   UNL     1       5.283   4.223  15.961  0.00  0.00    +0.000 A 
ATOM      4  C   UNL     1       5.045   3.963  14.612  0.00  0.00    +0.000 A 
ATOM      5  C   UNL     1       5.955   4.277  13.618  0.00  0.00    +0.000 A 
ATOM      6  C   UNL     1       7.173   4.848  13.966  0.00  0.00    +0.000 A 
ATOM      7  C   UNL     1       8.152   5.151  12.865  0.00  0.00    +0.000 C 
ATOM      8  C   UNL     1       7.443   5.110  15.344  0.00  0.00    +0.000 A 
ATOM      9  C   UNL     1       6.502   4.798  16.423  0.00  0.00    +0.000 A 
ATOM     10  C   UNL     1       6.674   5.000  17.764  0.00  0.00    +0.000 A 
ATOM     11  N   UNL     1       5.628   4.440  18.359  0.00  0.00    +0.000 NA
ENDROOT
BRANCH   1  17
ATOM     12  C   UNL     1       1.352   6.046  20.995  0.00  0.00    +0.000 C 
ATOM     13  C   UNL     1       2.159   4.813  20.751  0.00  0.00    +0.000 A 
ATOM     14  C   UNL     1       2.054   3.683  21.563  0.00  0.00    +0.000 A 
ATOM     15  C   UNL     1       2.831   2.558  21.294  0.00  0.00    +0.000 A 
ATOM     16  C   UNL     1       3.675   2.582  20.160  0.00  0.00    +0.000 A 
ATOM     17  C   UNL     1       3.753   3.747  19.313  0.00  0.00    +0.000 A 
ATOM     18  C   UNL     1       2.984   4.816  19.648  0.00  0.00    +0.000 A 
ENDBRANCH   1  17
BRANCH  10  19
ATOM     19  N   UNL     1       6.781   5.163  19.067  0.00  0.00    +0.000 N 
ATOM     20  H   UNL     1       5.864   4.688  19.309  0.00  0.00    +0.000 HD
ATOM     21  H   UNL     1       7.380   4.321  19.292  0.00  0.00    +0.000 HD
ENDBRANCH  10  19
TORSDOF 2
ENDMDL
MODEL 5
REMARK VINA RESULT:      -7.6      5.349      6.054
REMARK  Name = 
REMARK  4 active torsions:
REMARK  status: ('A' for Active; 'I' for Inactive)
REMARK    1  A    between atoms: C_1  and  C_2
REMARK    2  A    between atoms: C_6  and  C_7
REMARK    3  A    between atoms: C_12  and  C_13
REMARK    4  A    between atoms: C_16  and  N_17
REMARK                            x       y       z     vdW  Elec       q    Type
REMARK                         _______ _______ _______ _____ _____    ______ ____
ROOT
ATOM      1  C   UNL     1       2.590   7.409  18.433  0.00  0.00    +0.000 A 
ATOM      2  C   UNL     1       2.053   8.541  18.053  0.00  0.00    +0.000 A 
ATOM      3  C   UNL     1       1.313   9.252  18.987  0.00  0.00    +0.000 A 
ATOM      4  C   UNL     1       0.858  10.500  18.561  0.00  0.00    +0.000 A 
ATOM      5  C   UNL     1       0.123  11.346  19.373  0.00  0.00    +0.000 A 
ATOM      6  C   UNL     1      -0.156  10.964  20.679  0.00  0.00    +0.000 A 
ATOM      7  C   UNL     1      -0.932  11.918  21.544  0.00  0.00    +0.000 C 
ATOM      8  C   UNL     1       0.312   9.695  21.141  0.00  0.00    +0.000 A 
ATOM      9  C   UNL     1       1.087   8.771  20.309  0.00  0.00    +0.000 A 
ATOM     10  C   UNL     1       1.586   7.548  20.664  0.00  0.00    +0.000 A 
ATOM     11  N   UNL     1       2.330   7.143  19.642  0.00  0.00    +0.000 NA
ENDROOT
BRANCH   1  17
ATOM     12  C   UNL     1       2.467   2.751  17.533  0.00  0.00    +0.000 C 
ATOM     13  C   UNL     1       3.256   4.011  17.373  0.00  0.00    +0.000 A 
ATOM     14  C   UNL     1       4.451   4.052  16.655  0.00  0.00    +0.000 A 
ATOM     15  C   UNL     1       5.151   5.252  16.537  0.00  0.00    +0.000 A 
ATOM     16  C   UNL     1       4.590   6.414  17.116  0.00  0.00    +0.000 A 
ATOM     17  C   UNL     1       3.340   6.361  17.832  0.00  0.00    +0.000 A 
ATOM     18  C   UNL     1       2.723   5.154  17.927  0.00  0.00    +0.000 A 
ENDBRANCH   1  17
BRANCH  10  19
ATOM     19  N   UNL     1       2.097   6.367  20.945  0.00  0.00    +0.000 N 
ATOM     20  H   UNL     1       1.639   5.857  20.136  0.00  0.00    +0.000 HD
ATOM     21  H   UNL     1       3.034   6.473  20.466  0.00  0.00    +0.000 HD
ENDBRANCH  10  19
TORSDOF 2
ENDMDL
MODEL 6
REMARK VINA RESULT:      -7.5      5.262      5.995
REMARK  Name = 
REMARK  4 active torsions:
REMARK  status: ('A' for Active; 'I' for Inactive)
REMARK    1  A    between atoms: C_1  and  C_2
REMARK    2  A    between atoms: C_6  and  C_7
REMARK    3  A    between atoms: C_12  and  C_13
REMARK    4  A    between atoms: C_16  and  N_17
REMARK                            x       y       z     vdW  Elec       q    Type
REMARK                         _______ _______ _______ _____ _____    ______ ____
ROOT
ATOM      1  C   UNL     1       2.528   7.124  18.425  0.00  0.00    +0.000 A 
ATOM      2  C   UNL     1       2.119   8.305  18.033  0.00  0.00    +0.000 A 
ATOM      3  C   UNL     1       1.514   9.126  18.974  0.00  0.00    +0.000 A 
ATOM      4  C   UNL     1       1.199  10.409  18.528  0.00  0.00    +0.000 A 
ATOM      5  C   UNL     1       0.611  11.360  19.343  0.00  0.00    +0.000 A 
ATOM      6  C   UNL     1       0.344  11.049  20.671  0.00  0.00    +0.000 A 
ATOM      7  C   UNL     1      -0.269  12.114  21.537  0.00  0.00    +0.000 C 
ATOM      8  C   UNL     1       0.672   9.744  21.152  0.00  0.00    +0.000 A 
ATOM      9  C   UNL     1       1.289   8.710  20.318  0.00  0.00    +0.000 A 
ATOM     10  C   UNL     1       1.648   7.444  20.690  0.00  0.00    +0.000 A 
ATOM     11  N   UNL     1       2.290   6.923  19.651  0.00  0.00    +0.000 NA
ENDROOT
BRANCH   1  17
ATOM     12  C   UNL     1       6.425   5.665  16.143  0.00  0.00    +0.000 C 
ATOM     13  C   UNL     1       5.095   5.253  16.687  0.00  0.00    +0.000 A 
ATOM     14  C   UNL     1       4.657   3.929  16.650  0.00  0.00    +0.000 A 
ATOM     15  C   UNL     1       3.407   3.595  17.169  0.00  0.00    +0.000 A 
ATOM     16  C   UNL     1       2.636   4.617  17.770  0.00  0.00    +0.000 A 
ATOM     17  C   UNL     1       3.115   5.976  17.826  0.00  0.00    +0.000 A 
ATOM     18  C   UNL     1       4.332   6.234  17.281  0.00  0.00    +0.000 A 
ENDBRANCH   1  17
BRANCH  10  19
ATOM     19  N   UNL     1       2.021   6.215  20.985  0.00  0.00    +0.000 N 
ATOM     20  H   UNL     1       1.251   5.735  20.436  0.00  0.00    +0.000 HD
ATOM     21  H   UNL     1       2.759   6.082  20.240  0.00  0.00    +0.000 HD
ENDBRANCH  10  19
TORSDOF 2
ENDMDL
MODEL 7
REMARK VINA RESULT:      -7.5      4.210      4.511
REMARK  Name = 
REMARK  4 active torsions:
REMARK  status: ('A' for Active; 'I' for Inactive)
REMARK    1  A    between atoms: C_1  and  C_2
REMARK    2  A    between atoms: C_6  and  C_7
REMARK    3  A    between atoms: C_12  and  C_13
REMARK    4  A    between atoms: C_16  and  N_17
REMARK                            x       y       z     vdW  Elec       q    Type
REMARK                         _______ _______ _______ _____ _____    ______ ____
ROOT
ATOM      1  C   UNL     1       4.210   6.655  17.816  0.00  0.00    +0.000 A 
ATOM      2  C   UNL     1       3.568   7.719  17.405  0.00  0.00    +0.000 A 
ATOM      3  C   UNL     1       2.558   8.219  18.215  0.00  0.00    +0.000 A 
ATOM      4  C   UNL     1       1.984   9.414  17.782  0.00  0.00    +0.000 A 
ATOM      5  C   UNL     1       0.980  10.059  18.482  0.00  0.00    +0.000 A 
ATOM      6  C   UNL     1       0.534   9.522  19.683  0.00  0.00    +0.000 A 
ATOM      7  C   UNL     1      -0.539  10.262  20.433  0.00  0.00    +0.000 C 
ATOM      8  C   UNL     1       1.118   8.305  20.153  0.00  0.00    +0.000 A 
ATOM      9  C   UNL     1       2.178   7.591  19.437  0.00  0.00    +0.000 A 
ATOM     10  C   UNL     1       2.803   6.434  19.811  0.00  0.00    +0.000 A 
ATOM     11  N   UNL     1       3.780   6.243  18.933  0.00  0.00    +0.000 NA
ENDROOT
BRANCH   1  17
ATOM     12  C   UNL     1       5.494   4.238  13.939  0.00  0.00    +0.000 C 
ATOM     13  C   UNL     1       5.866   4.591  15.343  0.00  0.00    +0.000 A 
ATOM     14  C   UNL     1       7.067   4.179  15.919  0.00  0.00    +0.000 A 
ATOM     15  C   UNL     1       7.367   4.532  17.234  0.00  0.00    +0.000 A 
ATOM     16  C   UNL     1       6.449   5.352  17.932  0.00  0.00    +0.000 A 
ATOM     17  C   UNL     1       5.224   5.794  17.313  0.00  0.00    +0.000 A 
ATOM     18  C   UNL     1       4.987   5.393  16.037  0.00  0.00    +0.000 A 
ENDBRANCH   1  17
BRANCH  10  19
ATOM     19  N   UNL     1       3.447   5.326  20.116  0.00  0.00    +0.000 N 
ATOM     20  H   UNL     1       3.529   5.533  21.153  0.00  0.00    +0.000 HD
ATOM     21  H   UNL     1       2.620   4.676  20.219  0.00  0.00    +0.000 HD
ENDBRANCH  10  19
TORSDOF 2
ENDMDL
MODEL 8
REMARK VINA RESULT:      -7.4      2.112      2.514
REMARK  Name = 
REMARK  4 active torsions:
REMARK  status: ('A' for Active; 'I' for Inactive)
REMARK    1  A    between atoms: C_1  and  C_2
REMARK    2  A    between atoms: C_6  and  C_7
REMARK    3  A    between atoms: C_12  and  C_13
REMARK    4  A    between atoms: C_16  and  N_17
REMARK                            x       y       z     vdW  Elec       q    Type
REMARK                         _______ _______ _______ _____ _____    ______ ____
ROOT
ATOM      1  C   UNL     1       5.303   5.283  15.624  0.00  0.00    +0.000 A 
ATOM      2  C   UNL     1       4.708   6.360  16.072  0.00  0.00    +0.000 A 
ATOM      3  C   UNL     1       3.947   6.246  17.227  0.00  0.00    +0.000 A 
ATOM      4  C   UNL     1       3.427   7.443  17.717  0.00  0.00    +0.000 A 
ATOM      5  C   UNL     1       2.663   7.511  18.869  0.00  0.00    +0.000 A 
ATOM      6  C   UNL     1       2.421   6.352  19.595  0.00  0.00    +0.000 A 
ATOM      7  C   UNL     1       1.611   6.464  20.857  0.00  0.00    +0.000 C 
ATOM      8  C   UNL     1       2.956   5.116  19.118  0.00  0.00    +0.000 A 
ATOM      9  C   UNL     1       3.763   5.003  17.900  0.00  0.00    +0.000 A 
ATOM     10  C   UNL     1       4.324   3.874  17.373  0.00  0.00    +0.000 A 
ATOM     11  N   UNL     1       5.073   4.275  16.353  0.00  0.00    +0.000 NA
ENDROOT
BRANCH   1  17
ATOM     12  C   UNL     1       5.253   2.607  11.705  0.00  0.00    +0.000 C 
ATOM     13  C   UNL     1       6.047   3.579  12.516  0.00  0.00    +0.000 A 
ATOM     14  C   UNL     1       7.288   4.058  12.095  0.00  0.00    +0.000 A 
ATOM     15  C   UNL     1       7.991   4.963  12.889  0.00  0.00    +0.000 A 
ATOM     16  C   UNL     1       7.390   5.408  14.089  0.00  0.00    +0.000 A 
ATOM     17  C   UNL     1       6.095   4.925  14.498  0.00  0.00    +0.000 A 
ATOM     18  C   UNL     1       5.476   4.028  13.687  0.00  0.00    +0.000 A 
ENDBRANCH   1  17
BRANCH  10  19
ATOM     19  N   UNL     1       4.896   2.824  16.818  0.00  0.00    +0.000 N 
ATOM     20  H   UNL     1       5.838   3.285  16.664  0.00  0.00    +0.000 HD
ATOM     21  H   UNL     1       5.188   2.310  17.694  0.00  0.00    +0.000 HD
ENDBRANCH  10  19
TORSDOF 2
ENDMDL
MODEL 9
REMARK VINA RESULT:      -7.4      4.902      7.570
REMARK  Name = 
REMARK  4 active torsions:
REMARK  status: ('A' for Active; 'I' for Inactive)
REMARK    1  A    between atoms: C_1  and  C_2
REMARK    2  A    between atoms: C_6  and  C_7
REMARK    3  A    between atoms: C_12  and  C_13
REMARK    4  A    between atoms: C_16  and  N_17
REMARK                            x       y       z     vdW  Elec       q    Type
REMARK                         _______ _______ _______ _____ _____    ______ ____
ROOT
ATOM      1  C   UNL     1       2.288   7.722  19.232  0.00  0.00    +0.000 A 
ATOM      2  C   UNL     1       2.993   7.902  18.144  0.00  0.00    +0.000 A 
ATOM      3  C   UNL     1       3.743   6.833  17.674  0.00  0.00    +0.000 A 
ATOM      4  C   UNL     1       4.386   7.047  16.455  0.00  0.00    +0.000 A 
ATOM      5  C   UNL     1       5.157   6.080  15.836  0.00  0.00    +0.000 A 
ATOM      6  C   UNL     1       5.283   4.828  16.426  0.00  0.00    +0.000 A 
ATOM      7  C   UNL     1       6.105   3.790  15.713  0.00  0.00    +0.000 C 
ATOM      8  C   UNL     1       4.621   4.583  17.668  0.00  0.00    +0.000 A 
ATOM      9  C   UNL     1       3.802   5.583  18.356  0.00  0.00    +0.000 A 
ATOM     10  C   UNL     1       3.125   5.439  19.535  0.00  0.00    +0.000 A 
ATOM     11  N   UNL     1       2.417   6.551  19.693  0.00  0.00    +0.000 NA
ENDROOT
BRANCH   1  17
ATOM     12  C   UNL     1      -0.718  11.393  19.162  0.00  0.00    +0.000 C 
ATOM     13  C   UNL     1      -0.067  10.358  20.021  0.00  0.00    +0.000 A 
ATOM     14  C   UNL     1      -0.371  10.218  21.375  0.00  0.00    +0.000 A 
ATOM     15  C   UNL     1       0.266   9.238  22.134  0.00  0.00    +0.000 A 
ATOM     16  C   UNL     1       1.176   8.373  21.483  0.00  0.00    +0.000 A 
ATOM     17  C   UNL     1       1.459   8.511  20.076  0.00  0.00    +0.000 A 
ATOM     18  C   UNL     1       0.819   9.503  19.403  0.00  0.00    +0.000 A 
ENDBRANCH   1  17
BRANCH  10  19
ATOM     19  N   UNL     1       2.446   5.362  20.662  0.00  0.00    +0.000 N 
ATOM     20  H   UNL     1       3.267   5.058  21.261  0.00  0.00    +0.000 HD
ATOM     21  H   UNL     1       2.494   6.377  20.954  0.00  0.00    +0.000 HD
ENDBRANCH  10  19
TORSDOF 2
ENDMDL
