MODEL 1
REMARK VINA RESULT:      -7.3      0.000      0.000
REMARK  Name = 
REMARK  9 active torsions:
REMARK  status: ('A' for Active; 'I' for Inactive)
REMARK    1  A    between atoms: C_1  and  C_2
REMARK    2  A    between atoms: C_2  and  C_3
REMARK    3  A    between atoms: C_3  and  N_4
REMARK    4  A    between atoms: N_9  and  C_10
REMARK    5  A    between atoms: C_10  and  C_11
REMARK    6  A    between atoms: C_14  and  O_15
REMARK    7  A    between atoms: O_15  and  C_16
REMARK    8  A    between atoms: C_18  and  O_19
REMARK    9  A    between atoms: O_19  and  C_20
REMARK                            x       y       z     vdW  Elec       q    Type
REMARK                         _______ _______ _______ _____ _____    ______ ____
ROOT
ATOM      1  C   UNL     1       6.144   4.313  16.432  0.00  0.00    +0.000 C 
ENDROOT
BRANCH   1   7
ATOM      2  N   UNL     1       6.727   4.010  12.773  0.00  0.00    +0.000 N 
ATOM      3  N   UNL     1       7.547   4.814  12.070  0.00  0.00    +0.000 NA
ATOM      4  N   UNL     1       8.048   5.656  12.956  0.00  0.00    +0.000 NA
ATOM      5  N   UNL     1       7.562   5.399  14.210  0.00  0.00    +0.000 NA
ATOM      6  C   UNL     1       6.728   4.382  14.094  0.00  0.00    +0.000 A 
ATOM      7  N   UNL     1       6.019   3.763  15.076  0.00  0.00    +0.000 N 
ATOM      8  H   UNL     1       5.094   3.402  14.870  0.00  0.00    +0.000 HD
BRANCH   2   9
ATOM      9  C   UNL     1       5.981   2.983  12.085  0.00  0.00    +0.000 C 
BRANCH   9  11
ATOM     10  C   UNL     1       6.198   0.621  11.136  0.00  0.00    +0.000 C 
ATOM     11  C   UNL     1       6.832   1.993  11.282  0.00  0.00    +0.000 C 
ENDBRANCH   9  11
ENDBRANCH   2   9
ENDBRANCH   1   7
BRANCH   1  12
ATOM     12  C   UNL     1       4.923   4.105  17.305  0.00  0.00    +0.000 A 
ATOM     13  C   UNL     1       3.647   3.955  16.728  0.00  0.00    +0.000 A 
ATOM     14  C   UNL     1       2.498   3.821  17.512  0.00  0.00    +0.000 A 
ATOM     15  C   UNL     1       2.582   3.818  18.900  0.00  0.00    +0.000 A 
ATOM     16  C   UNL     1       3.834   3.948  19.494  0.00  0.00    +0.000 A 
ATOM     17  C   UNL     1       5.002   4.082  18.715  0.00  0.00    +0.000 A 
BRANCH  15  18
ATOM     18  O   UNL     1       1.381   3.693  19.540  0.00  0.00    +0.000 OA
ATOM     19  C   UNL     1       1.412   3.532  20.952  0.00  0.00    +0.000 C 
ENDBRANCH  15  18
BRANCH  17  20
ATOM     20  O   UNL     1       6.120   4.293  19.482  0.00  0.00    +0.000 OA
ATOM     21  C   UNL     1       6.764   5.557  19.400  0.00  0.00    +0.000 C 
ENDBRANCH  17  20
ENDBRANCH   1  12
TORSDOF 6
ENDMDL
MODEL 2
REMARK VINA RESULT:      -7.3      1.960      2.379
REMARK  Name = 
REMARK  9 active torsions:
REMARK  status: ('A' for Active; 'I' for Inactive)
REMARK    1  A    between atoms: C_1  and  C_2
REMARK    2  A    between atoms: C_2  and  C_3
REMARK    3  A    between atoms: C_3  and  N_4
REMARK    4  A    between atoms: N_9  and  C_10
REMARK    5  A    between atoms: C_10  and  C_11
REMARK    6  A    between atoms: C_14  and  O_15
REMARK    7  A    between atoms: O_15  and  C_16
REMARK    8  A    between atoms: C_18  and  O_19
REMARK    9  A    between atoms: O_19  and  C_20
REMARK                            x       y       z     vdW  Elec       q    Type
REMARK                         _______ _______ _______ _____ _____    ______ ____
ROOT
ATOM      1  C   UNL     1       6.442   4.285  16.369  0.00  0.00    +0.000 C 
ENDROOT
BRANCH   1   7
ATOM      2  N   UNL     1       6.673   3.988  12.670  0.00  0.00    +0.000 N 
ATOM      3  N   UNL     1       7.426   4.790  11.894  0.00  0.00    +0.000 NA
ATOM      4  N   UNL     1       8.015   5.626  12.730  0.00  0.00    +0.000 NA
ATOM      5  N   UNL     1       7.649   5.368  14.024  0.00  0.00    +0.000 NA
ATOM      6  C   UNL     1       6.801   4.357  13.986  0.00  0.00    +0.000 A 
ATOM      7  N   UNL     1       6.185   3.739  15.030  0.00  0.00    +0.000 N 
ATOM      8  H   UNL     1       5.242   3.384  14.912  0.00  0.00    +0.000 HD
BRANCH   2   9
ATOM      9  C   UNL     1       5.858   2.968  12.055  0.00  0.00    +0.000 C 
BRANCH   9  11
ATOM     10  C   UNL     1       3.890   3.584  10.546  0.00  0.00    +0.000 C 
ATOM     11  C   UNL     1       4.365   3.303  11.961  0.00  0.00    +0.000 C 
ENDBRANCH   9  11
ENDBRANCH   2   9
ENDBRANCH   1   7
BRANCH   1  12
ATOM     12  C   UNL     1       5.283   5.063  16.959  0.00  0.00    +0.000 A 
ATOM     13  C   UNL     1       5.154   6.446  16.723  0.00  0.00    +0.000 A 
ATOM     14  C   UNL     1       4.129   7.197  17.303  0.00  0.00    +0.000 A 
ATOM     15  C   UNL     1       3.187   6.594  18.128  0.00  0.00    +0.000 A 
ATOM     16  C   UNL     1       3.283   5.226  18.363  0.00  0.00    +0.000 A 
ATOM     17  C   UNL     1       4.311   4.455  17.783  0.00  0.00    +0.000 A 
BRANCH  15  18
ATOM     18  O   UNL     1       2.250   7.449  18.637  0.00  0.00    +0.000 OA
ATOM     19  C   UNL     1       2.045   7.424  20.043  0.00  0.00    +0.000 C 
ENDBRANCH  15  18
BRANCH  17  20
ATOM     20  O   UNL     1       4.291   3.151  18.210  0.00  0.00    +0.000 OA
ATOM     21  C   UNL     1       4.005   2.895  19.579  0.00  0.00    +0.000 C 
ENDBRANCH  17  20
ENDBRANCH   1  12
TORSDOF 6
ENDMDL
MODEL 3
REMARK VINA RESULT:      -7.2      1.658      1.925
REMARK  Name = 
REMARK  9 active torsions:
REMARK  status: ('A' for Active; 'I' for Inactive)
REMARK    1  A    between atoms: C_1  and  C_2
REMARK    2  A    between atoms: C_2  and  C_3
REMARK    3  A    between atoms: C_3  and  N_4
REMARK    4  A    between atoms: N_9  and  C_10
REMARK    5  A    between atoms: C_10  and  C_11
REMARK    6  A    between atoms: C_14  and  O_15
REMARK    7  A    between atoms: O_15  and  C_16
REMARK    8  A    between atoms: C_18  and  O_19
REMARK    9  A    between atoms: O_19  and  C_20
REMARK                            x       y       z     vdW  Elec       q    Type
REMARK                         _______ _______ _______ _____ _____    ______ ____
ROOT
ATOM      1  C   UNL     1       5.830   4.543  16.498  0.00  0.00    +0.000 C 
ENDROOT
BRANCH   1   7
ATOM      2  N   UNL     1       6.708   4.167  12.905  0.00  0.00    +0.000 N 
ATOM      3  N   UNL     1       7.685   4.860  12.290  0.00  0.00    +0.000 NA
ATOM      4  N   UNL     1       8.205   5.630  13.229  0.00  0.00    +0.000 NA
ATOM      5  N   UNL     1       7.576   5.438  14.430  0.00  0.00    +0.000 NA
ATOM      6  C   UNL     1       6.633   4.537  14.225  0.00  0.00    +0.000 A 
ATOM      7  N   UNL     1       5.762   4.014  15.130  0.00  0.00    +0.000 N 
ATOM      8  H   UNL     1       4.822   3.774  14.835  0.00  0.00    +0.000 HD
BRANCH   2   9
ATOM      9  C   UNL     1       5.903   3.245  12.139  0.00  0.00    +0.000 C 
BRANCH   9  11
ATOM     10  C   UNL     1       3.724   2.808  10.879  0.00  0.00    +0.000 C 
ATOM     11  C   UNL     1       4.512   3.764  11.757  0.00  0.00    +0.000 C 
ENDBRANCH   9  11
ENDBRANCH   2   9
ENDBRANCH   1   7
BRANCH   1  12
ATOM     12  C   UNL     1       4.538   4.419  17.281  0.00  0.00    +0.000 A 
ATOM     13  C   UNL     1       4.033   3.153  17.633  0.00  0.00    +0.000 A 
ATOM     14  C   UNL     1       2.815   3.009  18.303  0.00  0.00    +0.000 A 
ATOM     15  C   UNL     1       2.064   4.124  18.658  0.00  0.00    +0.000 A 
ATOM     16  C   UNL     1       2.550   5.387  18.336  0.00  0.00    +0.000 A 
ATOM     17  C   UNL     1       3.779   5.547  17.662  0.00  0.00    +0.000 A 
BRANCH  15  18
ATOM     18  O   UNL     1       0.890   3.836  19.296  0.00  0.00    +0.000 OA
ATOM     19  C   UNL     1       0.705   2.500  19.743  0.00  0.00    +0.000 C 
ENDBRANCH  15  18
BRANCH  17  20
ATOM     20  O   UNL     1       4.037   6.859  17.351  0.00  0.00    +0.000 OA
ATOM     21  C   UNL     1       3.091   7.844  17.746  0.00  0.00    +0.000 C 
ENDBRANCH  17  20
ENDBRANCH   1  12
TORSDOF 6
ENDMDL
MODEL 4
REMARK VINA RESULT:      -7.2      2.652      3.810
REMARK  Name = 
REMARK  9 active torsions:
REMARK  status: ('A' for Active; 'I' for Inactive)
REMARK    1  A    between atoms: C_1  and  C_2
REMARK    2  A    between atoms: C_2  and  C_3
REMARK    3  A    between atoms: C_3  and  N_4
REMARK    4  A    between atoms: N_9  and  C_10
REMARK    5  A    between atoms: C_10  and  C_11
REMARK    6  A    between atoms: C_14  and  O_15
REMARK    7  A    between atoms: O_15  and  C_16
REMARK    8  A    between atoms: C_18  and  O_19
REMARK    9  A    between atoms: O_19  and  C_20
REMARK                            x       y       z     vdW  Elec       q    Type
REMARK                         _______ _______ _______ _____ _____    ______ ____
ROOT
ATOM      1  C   UNL     1       3.842   3.844  18.563  0.00  0.00    +0.000 C 
ENDROOT
BRANCH   1   7
ATOM      2  N   UNL     1       6.301   4.320  15.816  0.00  0.00    +0.000 N 
ATOM      3  N   UNL     1       7.615   4.545  16.009  0.00  0.00    +0.000 NA
ATOM      4  N   UNL     1       7.777   4.540  17.320  0.00  0.00    +0.000 NA
ATOM      5  N   UNL     1       6.588   4.314  17.963  0.00  0.00    +0.000 NA
ATOM      6  C   UNL     1       5.667   4.192  17.026  0.00  0.00    +0.000 A 
ATOM      7  N   UNL     1       4.338   3.941  17.184  0.00  0.00    +0.000 N 
ATOM      8  H   UNL     1       3.674   4.360  16.543  0.00  0.00    +0.000 HD
BRANCH   2   9
ATOM      9  C   UNL     1       5.776   4.300  14.471  0.00  0.00    +0.000 C 
BRANCH   9  11
ATOM     10  C   UNL     1       6.316   3.385  12.148  0.00  0.00    +0.000 C 
ATOM     11  C   UNL     1       6.828   4.128  13.369  0.00  0.00    +0.000 C 
ENDBRANCH   9  11
ENDBRANCH   2   9
ENDBRANCH   1   7
BRANCH   1  12
ATOM     12  C   UNL     1       3.116   5.081  19.054  0.00  0.00    +0.000 A 
ATOM     13  C   UNL     1       3.120   6.264  18.289  0.00  0.00    +0.000 A 
ATOM     14  C   UNL     1       2.509   7.435  18.746  0.00  0.00    +0.000 A 
ATOM     15  C   UNL     1       1.859   7.463  19.975  0.00  0.00    +0.000 A 
ATOM     16  C   UNL     1       1.827   6.303  20.741  0.00  0.00    +0.000 A 
ATOM     17  C   UNL     1       2.438   5.113  20.292  0.00  0.00    +0.000 A 
BRANCH  15  18
ATOM     18  O   UNL     1       1.318   8.675  20.301  0.00  0.00    +0.000 OA
ATOM     19  C   UNL     1       1.038   8.912  21.675  0.00  0.00    +0.000 C 
ENDBRANCH  15  18
BRANCH  17  20
ATOM     20  O   UNL     1       2.380   4.111  21.227  0.00  0.00    +0.000 OA
ATOM     21  C   UNL     1       1.333   3.155  21.127  0.00  0.00    +0.000 C 
ENDBRANCH  17  20
ENDBRANCH   1  12
TORSDOF 6
ENDMDL
MODEL 5
REMARK VINA RESULT:      -7.1      4.353      7.095
REMARK  Name = 
REMARK  9 active torsions:
REMARK  status: ('A' for Active; 'I' for Inactive)
REMARK    1  A    between atoms: C_1  and  C_2
REMARK    2  A    between atoms: C_2  and  C_3
REMARK    3  A    between atoms: C_3  and  N_4
REMARK    4  A    between atoms: N_9  and  C_10
REMARK    5  A    between atoms: C_10  and  C_11
REMARK    6  A    between atoms: C_14  and  O_15
REMARK    7  A    between atoms: O_15  and  C_16
REMARK    8  A    between atoms: C_18  and  O_19
REMARK    9  A    between atoms: O_19  and  C_20
REMARK                            x       y       z     vdW  Elec       q    Type
REMARK                         _______ _______ _______ _____ _____    ______ ____
ROOT
ATOM      1  C   UNL     1       3.814   3.224  17.111  0.00  0.00    +0.000 C 
ENDROOT
BRANCH   1   7
ATOM      2  N   UNL     1       2.880   2.695  20.670  0.00  0.00    +0.000 N 
ATOM      3  N   UNL     1       3.696   2.149  21.591  0.00  0.00    +0.000 NA
ATOM      4  N   UNL     1       4.819   1.887  20.946  0.00  0.00    +0.000 NA
ATOM      5  N   UNL     1       4.730   2.258  19.631  0.00  0.00    +0.000 NA
ATOM      6  C   UNL     1       3.517   2.749  19.455  0.00  0.00    +0.000 A 
ATOM      7  N   UNL     1       2.977   3.261  18.316  0.00  0.00    +0.000 N 
ATOM      8  H   UNL     1       1.990   3.123  18.128  0.00  0.00    +0.000 HD
BRANCH   2   9
ATOM      9  C   UNL     1       1.538   3.070  21.045  0.00  0.00    +0.000 C 
BRANCH   9  11
ATOM     10  C   UNL     1       1.695   5.612  20.843  0.00  0.00    +0.000 C 
ATOM     11  C   UNL     1       1.009   4.341  20.372  0.00  0.00    +0.000 C 
ENDBRANCH   9  11
ENDBRANCH   2   9
ENDBRANCH   1   7
BRANCH   1  12
ATOM     12  C   UNL     1       4.779   4.386  16.984  0.00  0.00    +0.000 A 
ATOM     13  C   UNL     1       6.110   4.171  16.575  0.00  0.00    +0.000 A 
ATOM     14  C   UNL     1       7.035   5.215  16.507  0.00  0.00    +0.000 A 
ATOM     15  C   UNL     1       6.662   6.515  16.831  0.00  0.00    +0.000 A 
ATOM     16  C   UNL     1       5.349   6.757  17.221  0.00  0.00    +0.000 A 
ATOM     17  C   UNL     1       4.404   5.712  17.292  0.00  0.00    +0.000 A 
BRANCH  15  18
ATOM     18  O   UNL     1       7.669   7.434  16.733  0.00  0.00    +0.000 OA
ATOM     19  C   UNL     1       7.786   8.383  17.785  0.00  0.00    +0.000 C 
ENDBRANCH  15  18
BRANCH  17  20
ATOM     20  O   UNL     1       3.195   6.133  17.788  0.00  0.00    +0.000 OA
ATOM     21  C   UNL     1       2.971   7.531  17.919  0.00  0.00    +0.000 C 
ENDBRANCH  17  20
ENDBRANCH   1  12
TORSDOF 6
ENDMDL
MODEL 6
REMARK VINA RESULT:      -7.1      2.195      3.334
REMARK  Name = 
REMARK  9 active torsions:
REMARK  status: ('A' for Active; 'I' for Inactive)
REMARK    1  A    between atoms: C_1  and  C_2
REMARK    2  A    between atoms: C_2  and  C_3
REMARK    3  A    between atoms: C_3  and  N_4
REMARK    4  A    between atoms: N_9  and  C_10
REMARK    5  A    between atoms: C_10  and  C_11
REMARK    6  A    between atoms: C_14  and  O_15
REMARK    7  A    between atoms: O_15  and  C_16
REMARK    8  A    between atoms: C_18  and  O_19
REMARK    9  A    between atoms: O_19  and  C_20
REMARK                            x       y       z     vdW  Elec       q    Type
REMARK                         _______ _______ _______ _____ _____    ______ ____
ROOT
ATOM      1  C   UNL     1       4.999   3.839  18.779  0.00  0.00    +0.000 C 
ENDROOT
BRANCH   1   7
ATOM      2  N   UNL     1       6.198   4.733  15.376  0.00  0.00    +0.000 N 
ATOM      3  N   UNL     1       7.209   5.587  15.132  0.00  0.00    +0.000 NA
ATOM      4  N   UNL     1       7.628   5.976  16.324  0.00  0.00    +0.000 NA
ATOM      5  N   UNL     1       6.899   5.382  17.320  0.00  0.00    +0.000 NA
ATOM      6  C   UNL     1       5.999   4.619  16.729  0.00  0.00    +0.000 A 
ATOM      7  N   UNL     1       5.063   3.821  17.313  0.00  0.00    +0.000 N 
ATOM      8  H   UNL     1       4.158   3.709  16.869  0.00  0.00    +0.000 HD
BRANCH   2   9
ATOM      9  C   UNL     1       5.485   4.145  14.267  0.00  0.00    +0.000 C 
BRANCH   9  11
ATOM     10  C   UNL     1       5.607   3.008  11.982  0.00  0.00    +0.000 C 
ATOM     11  C   UNL     1       6.360   3.753  13.071  0.00  0.00    +0.000 C 
ENDBRANCH   9  11
ENDBRANCH   2   9
ENDBRANCH   1   7
BRANCH   1  12
ATOM     12  C   UNL     1       3.856   4.659  19.344  0.00  0.00    +0.000 A 
ATOM     13  C   UNL     1       3.733   6.027  19.032  0.00  0.00    +0.000 A 
ATOM     14  C   UNL     1       2.724   6.818  19.585  0.00  0.00    +0.000 A 
ATOM     15  C   UNL     1       1.792   6.271  20.459  0.00  0.00    +0.000 A 
ATOM     16  C   UNL     1       1.882   4.918  20.771  0.00  0.00    +0.000 A 
ATOM     17  C   UNL     1       2.894   4.106  20.218  0.00  0.00    +0.000 A 
BRANCH  15  18
ATOM     18  O   UNL     1       0.870   7.161  20.935  0.00  0.00    +0.000 OA
ATOM     19  C   UNL     1       1.217   8.539  20.893  0.00  0.00    +0.000 C 
ENDBRANCH  15  18
BRANCH  17  20
ATOM     20  O   UNL     1       2.872   2.829  20.720  0.00  0.00    +0.000 OA
ATOM     21  C   UNL     1       1.864   2.493  21.664  0.00  0.00    +0.000 C 
ENDBRANCH  17  20
ENDBRANCH   1  12
TORSDOF 6
ENDMDL
MODEL 7
REMARK VINA RESULT:      -7.1      1.567      2.107
REMARK  Name = 
REMARK  9 active torsions:
REMARK  status: ('A' for Active; 'I' for Inactive)
REMARK    1  A    between atoms: C_1  and  C_2
REMARK    2  A    between atoms: C_2  and  C_3
REMARK    3  A    between atoms: C_3  and  N_4
REMARK    4  A    between atoms: N_9  and  C_10
REMARK    5  A    between atoms: C_10  and  C_11
REMARK    6  A    between atoms: C_14  and  O_15
REMARK    7  A    between atoms: O_15  and  C_16
REMARK    8  A    between atoms: C_18  and  O_19
REMARK    9  A    between atoms: O_19  and  C_20
REMARK                            x       y       z     vdW  Elec       q    Type
REMARK                         _______ _______ _______ _____ _____    ______ ____
ROOT
ATOM      1  C   UNL     1       6.262   4.575  16.502  0.00  0.00    +0.000 C 
ENDROOT
BRANCH   1   7
ATOM      2  N   UNL     1       6.618   4.091  12.833  0.00  0.00    +0.000 N 
ATOM      3  N   UNL     1       7.485   4.774  12.063  0.00  0.00    +0.000 NA
ATOM      4  N   UNL     1       8.124   5.580  12.892  0.00  0.00    +0.000 NA
ATOM      5  N   UNL     1       7.677   5.420  14.177  0.00  0.00    +0.000 NA
ATOM      6  C   UNL     1       6.728   4.503  14.138  0.00  0.00    +0.000 A 
ATOM      7  N   UNL     1       6.005   4.000  15.176  0.00  0.00    +0.000 N 
ATOM      8  H   UNL     1       5.036   3.741  15.027  0.00  0.00    +0.000 HD
BRANCH   2   9
ATOM      9  C   UNL     1       5.726   3.136  12.221  0.00  0.00    +0.000 C 
BRANCH   9  11
ATOM     10  C   UNL     1       3.670   2.975  10.712  0.00  0.00    +0.000 C 
ATOM     11  C   UNL     1       4.331   3.677  11.886  0.00  0.00    +0.000 C 
ENDBRANCH   9  11
ENDBRANCH   2   9
ENDBRANCH   1   7
BRANCH   1  12
ATOM     12  C   UNL     1       5.017   4.795  17.339  0.00  0.00    +0.000 A 
ATOM     13  C   UNL     1       4.725   6.068  17.867  0.00  0.00    +0.000 A 
ATOM     14  C   UNL     1       3.617   6.284  18.689  0.00  0.00    +0.000 A 
ATOM     15  C   UNL     1       2.751   5.243  19.002  0.00  0.00    +0.000 A 
ATOM     16  C   UNL     1       3.007   3.980  18.478  0.00  0.00    +0.000 A 
ATOM     17  C   UNL     1       4.122   3.747  17.645  0.00  0.00    +0.000 A 
BRANCH  15  18
ATOM     18  O   UNL     1       1.717   5.593  19.825  0.00  0.00    +0.000 OA
ATOM     19  C   UNL     1       1.058   4.544  20.521  0.00  0.00    +0.000 C 
ENDBRANCH  15  18
BRANCH  17  20
ATOM     20  O   UNL     1       4.256   2.423  17.310  0.00  0.00    +0.000 OA
ATOM     21  C   UNL     1       3.656   1.450  18.155  0.00  0.00    +0.000 C 
ENDBRANCH  17  20
ENDBRANCH   1  12
TORSDOF 6
ENDMDL
MODEL 8
REMARK VINA RESULT:      -7.1      2.369      3.486
REMARK  Name = 
REMARK  9 active torsions:
REMARK  status: ('A' for Active; 'I' for Inactive)
REMARK    1  A    between atoms: C_1  and  C_2
REMARK    2  A    between atoms: C_2  and  C_3
REMARK    3  A    between atoms: C_3  and  N_4
REMARK    4  A    between atoms: N_9  and  C_10
REMARK    5  A    between atoms: C_10  and  C_11
REMARK    6  A    between atoms: C_14  and  O_15
REMARK    7  A    between atoms: O_15  and  C_16
REMARK    8  A    between atoms: C_18  and  O_19
REMARK    9  A    between atoms: O_19  and  C_20
REMARK                            x       y       z     vdW  Elec       q    Type
REMARK                         _______ _______ _______ _____ _____    ______ ____
ROOT
ATOM      1  C   UNL     1       4.117   7.004  17.592  0.00  0.00    +0.000 C 
ENDROOT
BRANCH   1   7
ATOM      2  N   UNL     1       6.969   4.994  16.308  0.00  0.00    +0.000 N 
ATOM      3  N   UNL     1       7.950   4.495  17.084  0.00  0.00    +0.000 NA
ATOM      4  N   UNL     1       7.644   4.871  18.313  0.00  0.00    +0.000 NA
ATOM      5  N   UNL     1       6.485   5.600  18.331  0.00  0.00    +0.000 NA
ATOM      6  C   UNL     1       6.072   5.689  17.081  0.00  0.00    +0.000 A 
ATOM      7  N   UNL     1       4.953   6.304  16.609  0.00  0.00    +0.000 N 
ATOM      8  H   UNL     1       4.980   6.758  15.703  0.00  0.00    +0.000 HD
BRANCH   2   9
ATOM      9  C   UNL     1       7.022   4.791  14.880  0.00  0.00    +0.000 C 
BRANCH   9  11
ATOM     10  C   UNL     1       6.077   3.600  12.827  0.00  0.00    +0.000 C 
ATOM     11  C   UNL     1       5.982   3.810  14.328  0.00  0.00    +0.000 C 
ENDBRANCH   9  11
ENDBRANCH   2   9
ENDBRANCH   1   7
BRANCH   1  12
ATOM     12  C   UNL     1       3.225   6.095  18.414  0.00  0.00    +0.000 A 
ATOM     13  C   UNL     1       2.650   6.552  19.616  0.00  0.00    +0.000 A 
ATOM     14  C   UNL     1       1.872   5.716  20.421  0.00  0.00    +0.000 A 
ATOM     15  C   UNL     1       1.627   4.399  20.049  0.00  0.00    +0.000 A 
ATOM     16  C   UNL     1       2.169   3.929  18.857  0.00  0.00    +0.000 A 
ATOM     17  C   UNL     1       2.955   4.762  18.033  0.00  0.00    +0.000 A 
BRANCH  15  18
ATOM     18  O   UNL     1       0.862   3.693  20.935  0.00  0.00    +0.000 OA
ATOM     19  C   UNL     1       1.481   2.598  21.597  0.00  0.00    +0.000 C 
ENDBRANCH  15  18
BRANCH  17  20
ATOM     20  O   UNL     1       3.476   4.090  16.956  0.00  0.00    +0.000 OA
ATOM     21  C   UNL     1       3.905   2.748  17.142  0.00  0.00    +0.000 C 
ENDBRANCH  17  20
ENDBRANCH   1  12
TORSDOF 6
ENDMDL
MODEL 9
REMARK VINA RESULT:      -7.1      3.381      5.372
REMARK  Name = 
REMARK  9 active torsions:
REMARK  status: ('A' for Active; 'I' for Inactive)
REMARK    1  A    between atoms: C_1  and  C_2
REMARK    2  A    between atoms: C_2  and  C_3
REMARK    3  A    between atoms: C_3  and  N_4
REMARK    4  A    between atoms: N_9  and  C_10
REMARK    5  A    between atoms: C_10  and  C_11
REMARK    6  A    between atoms: C_14  and  O_15
REMARK    7  A    between atoms: O_15  and  C_16
REMARK    8  A    between atoms: C_18  and  O_19
REMARK    9  A    between atoms: O_19  and  C_20
REMARK                            x       y       z     vdW  Elec       q    Type
REMARK                         _______ _______ _______ _____ _____    ______ ____
ROOT
ATOM      1  C   UNL     1       5.168   5.315  16.065  0.00  0.00    +0.000 C 
ENDROOT
BRANCH   1   7
ATOM      2  N   UNL     1       7.707   7.154  18.063  0.00  0.00    +0.000 N 
ATOM      3  N   UNL     1       8.380   6.623  19.101  0.00  0.00    +0.000 NA
ATOM      4  N   UNL     1       7.940   5.381  19.199  0.00  0.00    +0.000 NA
ATOM      5  N   UNL     1       6.999   5.114  18.240  0.00  0.00    +0.000 NA
ATOM      6  C   UNL     1       6.844   6.223  17.541  0.00  0.00    +0.000 A 
ATOM      7  N   UNL     1       6.027   6.434  16.472  0.00  0.00    +0.000 N 
ATOM      8  H   UNL     1       5.595   7.343  16.348  0.00  0.00    +0.000 HD
BRANCH   2   9
ATOM      9  C   UNL     1       7.930   8.535  17.706  0.00  0.00    +0.000 C 
BRANCH   9  11
ATOM     10  C   UNL     1       9.081  10.749  18.253  0.00  0.00    +0.000 C 
ATOM     11  C   UNL     1       8.774   9.333  18.706  0.00  0.00    +0.000 C 
ENDBRANCH   9  11
ENDBRANCH   2   9
ENDBRANCH   1   7
BRANCH   1  12
ATOM     12  C   UNL     1       4.064   4.985  17.050  0.00  0.00    +0.000 A 
ATOM     13  C   UNL     1       3.624   3.657  17.212  0.00  0.00    +0.000 A 
ATOM     14  C   UNL     1       2.569   3.333  18.069  0.00  0.00    +0.000 A 
ATOM     15  C   UNL     1       1.926   4.320  18.806  0.00  0.00    +0.000 A 
ATOM     16  C   UNL     1       2.354   5.637  18.677  0.00  0.00    +0.000 A 
ATOM     17  C   UNL     1       3.418   5.979  17.816  0.00  0.00    +0.000 A 
BRANCH  15  18
ATOM     18  O   UNL     1       0.905   3.865  19.593  0.00  0.00    +0.000 OA
ATOM     19  C   UNL     1       1.260   3.221  20.809  0.00  0.00    +0.000 C 
ENDBRANCH  15  18
BRANCH  17  20
ATOM     20  O   UNL     1       3.626   7.334  17.755  0.00  0.00    +0.000 OA
ATOM     21  C   UNL     1       2.497   8.193  17.838  0.00  0.00    +0.000 C 
ENDBRANCH  17  20
ENDBRANCH   1  12
TORSDOF 6
ENDMDL
