MODEL 1
REMARK VINA RESULT:      -7.7      0.000      0.000
REMARK  Name = 
REMARK  6 active torsions:
REMARK  status: ('A' for Active; 'I' for Inactive)
REMARK    1  A    between atoms: C_1  and  S_2
REMARK    2  A    between atoms: S_2  and  C_5
REMARK    3  A    between atoms: C_8  and  C_9
REMARK    4  A    between atoms: C_13  and  C_14
REMARK    5  A    between atoms: C_14  and  C_15
REMARK    6  A    between atoms: C_14  and  N_23
REMARK                            x       y       z     vdW  Elec       q    Type
REMARK                         _______ _______ _______ _____ _____    ______ ____
ROOT
ATOM      1  C   UNL     1       0.161   9.753  21.204  0.00  0.00    +0.000 A 
ATOM      2  C   UNL     1      -0.071   9.520  22.551  0.00  0.00    +0.000 A 
ATOM      3  N   UNL     1      -0.856  10.518  23.050  0.00  0.00    +0.000 N 
ATOM      4  C   UNL     1      -1.152  11.401  22.054  0.00  0.00    +0.000 A 
ATOM      5  C   UNL     1      -0.568  10.974  20.861  0.00  0.00    +0.000 A 
ATOM      6  H   UNL     1      -1.181  10.582  24.008  0.00  0.00    +0.000 HD
ENDROOT
BRANCH   1  10
ATOM      7  C   UNL     1       2.592   6.962  19.029  0.00  0.00    +0.000 A 
ATOM      8  C   UNL     1       2.112   6.646  20.293  0.00  0.00    +0.000 A 
ATOM      9  C   UNL     1       1.311   7.571  20.958  0.00  0.00    +0.000 A 
ATOM     10  C   UNL     1       0.931   8.790  20.401  0.00  0.00    +0.000 A 
ATOM     11  C   UNL     1       1.404   9.073  19.111  0.00  0.00    +0.000 A 
ATOM     12  C   UNL     1       2.247   8.172  18.432  0.00  0.00    +0.000 A 
BRANCH   7  14
ATOM     13  C   UNL     1       4.546   6.866  17.045  0.00  0.00    +0.000 C 
ATOM     14  S   UNL     1       3.745   5.853  18.258  0.00  0.00    +0.000 S 
ATOM     15  O   UNL     1       2.975   4.840  17.559  0.00  0.00    +0.000 OA
ATOM     16  O   UNL     1       4.725   5.479  19.258  0.00  0.00    +0.000 OA
ENDBRANCH   7  14
ENDBRANCH   1  10
BRANCH   5  17
ATOM     17  C   UNL     1      -0.674  11.696  19.505  0.00  0.00    +0.000 C 
BRANCH  17  18
ATOM     18  C   UNL     1      -2.147  11.624  19.076  0.00  0.00    +0.000 A 
ATOM     19  C   UNL     1      -3.119  12.461  19.668  0.00  0.00    +0.000 A 
ATOM     20  C   UNL     1      -4.479  12.319  19.385  0.00  0.00    +0.000 A 
ATOM     21  C   UNL     1      -4.904  11.316  18.525  0.00  0.00    +0.000 A 
ATOM     22 CL   UNL     1      -6.584  11.083  18.244  0.00  0.00    +0.000 Cl
ATOM     23  C   UNL     1      -3.973  10.518  17.871  0.00  0.00    +0.000 A 
ATOM     24  C   UNL     1      -2.605  10.723  18.088  0.00  0.00    +0.000 A 
ATOM     25 CL   UNL     1      -1.525   9.828  17.068  0.00  0.00    +0.000 Cl
ENDBRANCH  17  18
BRANCH  17  26
ATOM     26  N   UNL     1      -0.135  13.064  19.547  0.00  0.00    +0.000 N 
ATOM     27  C   UNL     1       0.693  13.551  20.544  0.00  0.00    +0.000 A 
ATOM     28  C   UNL     1       0.970  14.848  20.185  0.00  0.00    +0.000 A 
ATOM     29  N   UNL     1       0.371  15.156  18.992  0.00  0.00    +0.000 NA
ATOM     30  C   UNL     1      -0.261  14.062  18.623  0.00  0.00    +0.000 A 
ENDBRANCH  17  26
ENDBRANCH   5  17
TORSDOF 5
ENDMDL
MODEL 2
REMARK VINA RESULT:      -7.7      0.788      1.088
REMARK  Name = 
REMARK  6 active torsions:
REMARK  status: ('A' for Active; 'I' for Inactive)
REMARK    1  A    between atoms: C_1  and  S_2
REMARK    2  A    between atoms: S_2  and  C_5
REMARK    3  A    between atoms: C_8  and  C_9
REMARK    4  A    between atoms: C_13  and  C_14
REMARK    5  A    between atoms: C_14  and  C_15
REMARK    6  A    between atoms: C_14  and  N_23
REMARK                            x       y       z     vdW  Elec       q    Type
REMARK                         _______ _______ _______ _____ _____    ______ ____
ROOT
ATOM      1  C   UNL     1       0.248   9.704  21.106  0.00  0.00    +0.000 A 
ATOM      2  C   UNL     1       0.044   9.428  22.450  0.00  0.00    +0.000 A 
ATOM      3  N   UNL     1      -0.734  10.407  22.996  0.00  0.00    +0.000 N 
ATOM      4  C   UNL     1      -1.052  11.320  22.033  0.00  0.00    +0.000 A 
ATOM      5  C   UNL     1      -0.491  10.934  20.816  0.00  0.00    +0.000 A 
ATOM      6  H   UNL     1      -1.040  10.440  23.961  0.00  0.00    +0.000 HD
ENDROOT
BRANCH   1  10
ATOM      7  C   UNL     1       2.644   6.995  18.794  0.00  0.00    +0.000 A 
ATOM      8  C   UNL     1       2.211   6.647  20.066  0.00  0.00    +0.000 A 
ATOM      9  C   UNL     1       1.420   7.546  20.777  0.00  0.00    +0.000 A 
ATOM     10  C   UNL     1       1.004   8.769  20.258  0.00  0.00    +0.000 A 
ATOM     11  C   UNL     1       1.430   9.086  18.959  0.00  0.00    +0.000 A 
ATOM     12  C   UNL     1       2.262   8.212  18.234  0.00  0.00    +0.000 A 
BRANCH   7  14
ATOM     13  C   UNL     1       4.842   5.349  19.264  0.00  0.00    +0.000 C 
ATOM     14  S   UNL     1       3.786   5.919  17.961  0.00  0.00    +0.000 S 
ATOM     15  O   UNL     1       4.582   6.738  17.065  0.00  0.00    +0.000 OA
ATOM     16  O   UNL     1       3.032   4.790  17.457  0.00  0.00    +0.000 OA
ENDBRANCH   7  14
ENDBRANCH   1  10
BRANCH   5  17
ATOM     17  C   UNL     1      -0.626  11.698  19.486  0.00  0.00    +0.000 C 
BRANCH  17  18
ATOM     18  C   UNL     1      -2.107  11.634  19.084  0.00  0.00    +0.000 A 
ATOM     19  C   UNL     1      -3.065  12.465  19.707  0.00  0.00    +0.000 A 
ATOM     20  C   UNL     1      -4.431  12.331  19.447  0.00  0.00    +0.000 A 
ATOM     21  C   UNL     1      -4.874  11.340  18.583  0.00  0.00    +0.000 A 
ATOM     22 CL   UNL     1      -6.560  11.114  18.330  0.00  0.00    +0.000 Cl
ATOM     23  C   UNL     1      -3.958  10.548  17.900  0.00  0.00    +0.000 A 
ATOM     24  C   UNL     1      -2.586  10.748  18.094  0.00  0.00    +0.000 A 
ATOM     25 CL   UNL     1      -1.528   9.864  17.041  0.00  0.00    +0.000 Cl
ENDBRANCH  17  18
BRANCH  17  26
ATOM     26  N   UNL     1      -0.089  13.065  19.561  0.00  0.00    +0.000 N 
ATOM     27  C   UNL     1      -0.312  14.049  18.612  0.00  0.00    +0.000 A 
ATOM     28  C   UNL     1       0.347  15.160  19.080  0.00  0.00    +0.000 A 
ATOM     29  N   UNL     1       0.931  14.899  20.292  0.00  0.00    +0.000 NA
ATOM     30  C   UNL     1       0.632  13.647  20.565  0.00  0.00    +0.000 A 
ENDBRANCH  17  26
ENDBRANCH   5  17
TORSDOF 5
ENDMDL
MODEL 3
REMARK VINA RESULT:      -7.5      1.435      1.688
REMARK  Name = 
REMARK  6 active torsions:
REMARK  status: ('A' for Active; 'I' for Inactive)
REMARK    1  A    between atoms: C_1  and  S_2
REMARK    2  A    between atoms: S_2  and  C_5
REMARK    3  A    between atoms: C_8  and  C_9
REMARK    4  A    between atoms: C_13  and  C_14
REMARK    5  A    between atoms: C_14  and  C_15
REMARK    6  A    between atoms: C_14  and  N_23
REMARK                            x       y       z     vdW  Elec       q    Type
REMARK                         _______ _______ _______ _____ _____    ______ ____
ROOT
ATOM      1  C   UNL     1       1.014   8.860  20.407  0.00  0.00    +0.000 A 
ATOM      2  C   UNL     1       0.764   8.305  21.653  0.00  0.00    +0.000 A 
ATOM      3  N   UNL     1      -0.091   9.115  22.341  0.00  0.00    +0.000 N 
ATOM      4  C   UNL     1      -0.415  10.191  21.568  0.00  0.00    +0.000 A 
ATOM      5  C   UNL     1       0.222  10.089  20.332  0.00  0.00    +0.000 A 
ATOM      6  H   UNL     1      -0.442   8.935  23.275  0.00  0.00    +0.000 HD
ENDROOT
BRANCH   1  10
ATOM      7  C   UNL     1       3.664   6.807  17.727  0.00  0.00    +0.000 A 
ATOM      8  C   UNL     1       3.244   6.204  18.904  0.00  0.00    +0.000 A 
ATOM      9  C   UNL     1       2.369   6.896  19.738  0.00  0.00    +0.000 A 
ATOM     10  C   UNL     1       1.859   8.155  19.430  0.00  0.00    +0.000 A 
ATOM     11  C   UNL     1       2.276   8.731  18.221  0.00  0.00    +0.000 A 
ATOM     12  C   UNL     1       3.190   8.069  17.378  0.00  0.00    +0.000 A 
BRANCH   7  14
ATOM     13  C   UNL     1       6.369   6.137  17.739  0.00  0.00    +0.000 C 
ATOM     14  S   UNL     1       4.906   5.991  16.752  0.00  0.00    +0.000 S 
ATOM     15  O   UNL     1       5.099   6.776  15.546  0.00  0.00    +0.000 OA
ATOM     16  O   UNL     1       4.546   4.590  16.673  0.00  0.00    +0.000 OA
ENDBRANCH   7  14
ENDBRANCH   1  10
BRANCH   5  17
ATOM     17  C   UNL     1       0.107  11.103  19.179  0.00  0.00    +0.000 C 
BRANCH  17  18
ATOM     18  C   UNL     1      -1.372  11.509  19.089  0.00  0.00    +0.000 A 
ATOM     19  C   UNL     1      -1.897  12.529  19.912  0.00  0.00    +0.000 A 
ATOM     20  C   UNL     1      -3.263  12.821  19.937  0.00  0.00    +0.000 A 
ATOM     21  C   UNL     1      -4.141  12.077  19.161  0.00  0.00    +0.000 A 
ATOM     22 CL   UNL     1      -5.832  12.375  19.256  0.00  0.00    +0.000 Cl
ATOM     23  C   UNL     1      -3.655  11.112  18.288  0.00  0.00    +0.000 A 
ATOM     24  C   UNL     1      -2.276  10.885  18.200  0.00  0.00    +0.000 A 
ATOM     25 CL   UNL     1      -1.755   9.820  16.934  0.00  0.00    +0.000 Cl
ENDBRANCH  17  18
BRANCH  17  26
ATOM     26  N   UNL     1       1.026  12.242  19.331  0.00  0.00    +0.000 N 
ATOM     27  C   UNL     1       1.683  12.568  20.505  0.00  0.00    +0.000 A 
ATOM     28  C   UNL     1       2.443  13.672  20.201  0.00  0.00    +0.000 A 
ATOM     29  N   UNL     1       2.298  14.007  18.880  0.00  0.00    +0.000 NA
ATOM     30  C   UNL     1       1.465  13.120  18.381  0.00  0.00    +0.000 A 
ENDBRANCH  17  26
ENDBRANCH   5  17
TORSDOF 5
ENDMDL
MODEL 4
REMARK VINA RESULT:      -7.4      2.654      4.050
REMARK  Name = 
REMARK  6 active torsions:
REMARK  status: ('A' for Active; 'I' for Inactive)
REMARK    1  A    between atoms: C_1  and  S_2
REMARK    2  A    between atoms: S_2  and  C_5
REMARK    3  A    between atoms: C_8  and  C_9
REMARK    4  A    between atoms: C_13  and  C_14
REMARK    5  A    between atoms: C_14  and  C_15
REMARK    6  A    between atoms: C_14  and  N_23
REMARK                            x       y       z     vdW  Elec       q    Type
REMARK                         _______ _______ _______ _____ _____    ______ ____
ROOT
ATOM      1  C   UNL     1       1.065  11.164  18.779  0.00  0.00    +0.000 A 
ATOM      2  C   UNL     1       2.028  12.085  18.397  0.00  0.00    +0.000 A 
ATOM      3  N   UNL     1       1.484  13.335  18.407  0.00  0.00    +0.000 N 
ATOM      4  C   UNL     1       0.179  13.256  18.796  0.00  0.00    +0.000 A 
ATOM      5  C   UNL     1      -0.149  11.929  19.070  0.00  0.00    +0.000 A 
ATOM      6  H   UNL     1       1.977  14.190  18.176  0.00  0.00    +0.000 HD
ENDROOT
BRANCH   1  10
ATOM      7  C   UNL     1       2.233   7.073  19.345  0.00  0.00    +0.000 A 
ATOM      8  C   UNL     1       1.659   7.794  20.383  0.00  0.00    +0.000 A 
ATOM      9  C   UNL     1       1.276   9.113  20.154  0.00  0.00    +0.000 A 
ATOM     10  C   UNL     1       1.405   9.739  18.916  0.00  0.00    +0.000 A 
ATOM     11  C   UNL     1       1.961   8.981  17.875  0.00  0.00    +0.000 A 
ATOM     12  C   UNL     1       2.392   7.657  18.092  0.00  0.00    +0.000 A 
BRANCH   7  14
ATOM     13  C   UNL     1       2.253   4.471  18.349  0.00  0.00    +0.000 C 
ATOM     14  S   UNL     1       2.869   5.450  19.690  0.00  0.00    +0.000 S 
ATOM     15  O   UNL     1       2.239   4.985  20.912  0.00  0.00    +0.000 OA
ATOM     16  O   UNL     1       4.313   5.517  19.580  0.00  0.00    +0.000 OA
ENDBRANCH   7  14
ENDBRANCH   1  10
BRANCH   5  17
ATOM     17  C   UNL     1      -1.526  11.426  19.543  0.00  0.00    +0.000 C 
BRANCH  17  18
ATOM     18  C   UNL     1      -1.921  12.284  20.754  0.00  0.00    +0.000 A 
ATOM     19  C   UNL     1      -2.721  13.438  20.596  0.00  0.00    +0.000 A 
ATOM     20  C   UNL     1      -2.981  14.300  21.664  0.00  0.00    +0.000 A 
ATOM     21  C   UNL     1      -2.422  14.046  22.908  0.00  0.00    +0.000 A 
ATOM     22 CL   UNL     1      -2.668  15.152  24.201  0.00  0.00    +0.000 Cl
ATOM     23  C   UNL     1      -1.687  12.885  23.119  0.00  0.00    +0.000 A 
ATOM     24  C   UNL     1      -1.505  11.977  22.068  0.00  0.00    +0.000 A 
ATOM     25 CL   UNL     1      -0.763  10.465  22.484  0.00  0.00    +0.000 Cl
ENDBRANCH  17  18
BRANCH  17  26
ATOM     26  N   UNL     1      -2.528  11.421  18.466  0.00  0.00    +0.000 N 
ATOM     27  C   UNL     1      -2.249  11.166  17.134  0.00  0.00    +0.000 A 
ATOM     28  C   UNL     1      -3.459  11.243  16.488  0.00  0.00    +0.000 A 
ATOM     29  N   UNL     1      -4.466  11.501  17.380  0.00  0.00    +0.000 NA
ATOM     30  C   UNL     1      -3.883  11.577  18.557  0.00  0.00    +0.000 A 
ENDBRANCH  17  26
ENDBRANCH   5  17
TORSDOF 5
ENDMDL
MODEL 5
REMARK VINA RESULT:      -7.4      0.949      1.422
REMARK  Name = 
REMARK  6 active torsions:
REMARK  status: ('A' for Active; 'I' for Inactive)
REMARK    1  A    between atoms: C_1  and  S_2
REMARK    2  A    between atoms: S_2  and  C_5
REMARK    3  A    between atoms: C_8  and  C_9
REMARK    4  A    between atoms: C_13  and  C_14
REMARK    5  A    between atoms: C_14  and  C_15
REMARK    6  A    between atoms: C_14  and  N_23
REMARK                            x       y       z     vdW  Elec       q    Type
REMARK                         _______ _______ _______ _____ _____    ______ ____
ROOT
ATOM      1  C   UNL     1       0.319   9.441  21.452  0.00  0.00    +0.000 A 
ATOM      2  C   UNL     1       0.007   9.333  22.799  0.00  0.00    +0.000 A 
ATOM      3  N   UNL     1      -0.780  10.386  23.163  0.00  0.00    +0.000 N 
ATOM      4  C   UNL     1      -0.998  11.183  22.079  0.00  0.00    +0.000 A 
ATOM      5  C   UNL     1      -0.360  10.642  20.963  0.00  0.00    +0.000 A 
ATOM      6  H   UNL     1      -1.156  10.541  24.092  0.00  0.00    +0.000 HD
ENDROOT
BRANCH   1  10
ATOM      7  C   UNL     1       2.455   6.401  19.303  0.00  0.00    +0.000 A 
ATOM      8  C   UNL     1       2.374   7.694  18.805  0.00  0.00    +0.000 A 
ATOM      9  C   UNL     1       1.688   8.656  19.541  0.00  0.00    +0.000 A 
ATOM     10  C   UNL     1       1.108   8.396  20.781  0.00  0.00    +0.000 A 
ATOM     11  C   UNL     1       1.228   7.090  21.277  0.00  0.00    +0.000 A 
ATOM     12  C   UNL     1       1.884   6.089  20.534  0.00  0.00    +0.000 A 
BRANCH   7  14
ATOM     13  C   UNL     1       1.788   4.264  17.646  0.00  0.00    +0.000 C 
ATOM     14  S   UNL     1       3.186   5.143  18.284  0.00  0.00    +0.000 S 
ATOM     15  O   UNL     1       3.919   4.245  19.158  0.00  0.00    +0.000 OA
ATOM     16  O   UNL     1       3.850   5.807  17.181  0.00  0.00    +0.000 OA
ENDBRANCH   7  14
ENDBRANCH   1  10
BRANCH   5  17
ATOM     17  C   UNL     1      -0.373  11.244  19.545  0.00  0.00    +0.000 C 
BRANCH  17  18
ATOM     18  C   UNL     1      -1.845  11.462  19.167  0.00  0.00    +0.000 A 
ATOM     19  C   UNL     1      -2.645  12.393  19.867  0.00  0.00    +0.000 A 
ATOM     20  C   UNL     1      -4.015  12.511  19.624  0.00  0.00    +0.000 A 
ATOM     21  C   UNL     1      -4.625  11.678  18.697  0.00  0.00    +0.000 A 
ATOM     22 CL   UNL     1      -6.326  11.760  18.460  0.00  0.00    +0.000 Cl
ATOM     23  C   UNL     1      -3.861  10.798  17.941  0.00  0.00    +0.000 A 
ATOM     24  C   UNL     1      -2.473  10.747  18.123  0.00  0.00    +0.000 A 
ATOM     25 CL   UNL     1      -1.588   9.780  16.989  0.00  0.00    +0.000 Cl
ENDBRANCH  17  18
BRANCH  17  26
ATOM     26  N   UNL     1       0.454  12.456  19.436  0.00  0.00    +0.000 N 
ATOM     27  C   UNL     1       1.558  12.727  20.227  0.00  0.00    +0.000 A 
ATOM     28  C   UNL     1       2.035  13.935  19.781  0.00  0.00    +0.000 A 
ATOM     29  N   UNL     1       1.286  14.391  18.729  0.00  0.00    +0.000 NA
ATOM     30  C   UNL     1       0.364  13.474  18.530  0.00  0.00    +0.000 A 
ENDBRANCH  17  26
ENDBRANCH   5  17
TORSDOF 5
ENDMDL
MODEL 6
REMARK VINA RESULT:      -7.3      1.232      1.343
REMARK  Name = 
REMARK  6 active torsions:
REMARK  status: ('A' for Active; 'I' for Inactive)
REMARK    1  A    between atoms: C_1  and  S_2
REMARK    2  A    between atoms: S_2  and  C_5
REMARK    3  A    between atoms: C_8  and  C_9
REMARK    4  A    between atoms: C_13  and  C_14
REMARK    5  A    between atoms: C_14  and  C_15
REMARK    6  A    between atoms: C_14  and  N_23
REMARK                            x       y       z     vdW  Elec       q    Type
REMARK                         _______ _______ _______ _____ _____    ______ ____
ROOT
ATOM      1  C   UNL     1       0.698   9.336  20.849  0.00  0.00    +0.000 A 
ATOM      2  C   UNL     1       0.572   9.179  22.221  0.00  0.00    +0.000 A 
ATOM      3  N   UNL     1      -0.168  10.209  22.725  0.00  0.00    +0.000 N 
ATOM      4  C   UNL     1      -0.539  11.038  21.707  0.00  0.00    +0.000 A 
ATOM      5  C   UNL     1      -0.052  10.543  20.497  0.00  0.00    +0.000 A 
ATOM      6  H   UNL     1      -0.416  10.328  23.700  0.00  0.00    +0.000 HD
ENDROOT
BRANCH   1  10
ATOM      7  C   UNL     1       2.924   6.385  18.667  0.00  0.00    +0.000 A 
ATOM      8  C   UNL     1       2.399   6.092  19.918  0.00  0.00    +0.000 A 
ATOM      9  C   UNL     1       1.667   7.070  20.586  0.00  0.00    +0.000 A 
ATOM     10  C   UNL     1       1.398   8.324  20.042  0.00  0.00    +0.000 A 
ATOM     11  C   UNL     1       1.915   8.587  18.765  0.00  0.00    +0.000 A 
ATOM     12  C   UNL     1       2.691   7.628  18.085  0.00  0.00    +0.000 A 
BRANCH   7  14
ATOM     13  C   UNL     1       2.897   3.881  17.445  0.00  0.00    +0.000 C 
ATOM     14  S   UNL     1       3.995   5.195  17.896  0.00  0.00    +0.000 S 
ATOM     15  O   UNL     1       4.898   4.695  18.916  0.00  0.00    +0.000 OA
ATOM     16  O   UNL     1       4.510   5.796  16.682  0.00  0.00    +0.000 OA
ENDBRANCH   7  14
ENDBRANCH   1  10
BRANCH   5  17
ATOM     17  C   UNL     1      -0.262  11.190  19.116  0.00  0.00    +0.000 C 
BRANCH  17  18
ATOM     18  C   UNL     1      -1.763  11.486  18.986  0.00  0.00    +0.000 A 
ATOM     19  C   UNL     1      -2.395  12.423  19.834  0.00  0.00    +0.000 A 
ATOM     20  C   UNL     1      -3.779  12.609  19.818  0.00  0.00    +0.000 A 
ATOM     21  C   UNL     1      -4.569  11.840  18.975  0.00  0.00    +0.000 A 
ATOM     22 CL   UNL     1      -6.280  12.004  19.016  0.00  0.00    +0.000 Cl
ATOM     23  C   UNL     1      -3.978  10.957  18.078  0.00  0.00    +0.000 A 
ATOM     24  C   UNL     1      -2.583  10.840  18.034  0.00  0.00    +0.000 A 
ATOM     25 CL   UNL     1      -1.937   9.881  16.743  0.00  0.00    +0.000 Cl
ENDBRANCH  17  18
BRANCH  17  26
ATOM     26  N   UNL     1       0.596  12.367  18.905  0.00  0.00    +0.000 N 
ATOM     27  C   UNL     1       1.954  12.312  18.645  0.00  0.00    +0.000 A 
ATOM     28  C   UNL     1       2.349  13.620  18.498  0.00  0.00    +0.000 A 
ATOM     29  N   UNL     1       1.277  14.464  18.626  0.00  0.00    +0.000 NA
ATOM     30  C   UNL     1       0.240  13.684  18.844  0.00  0.00    +0.000 A 
ENDBRANCH  17  26
ENDBRANCH   5  17
TORSDOF 5
ENDMDL
MODEL 7
REMARK VINA RESULT:      -7.3      1.751      2.424
REMARK  Name = 
REMARK  6 active torsions:
REMARK  status: ('A' for Active; 'I' for Inactive)
REMARK    1  A    between atoms: C_1  and  S_2
REMARK    2  A    between atoms: S_2  and  C_5
REMARK    3  A    between atoms: C_8  and  C_9
REMARK    4  A    between atoms: C_13  and  C_14
REMARK    5  A    between atoms: C_14  and  C_15
REMARK    6  A    between atoms: C_14  and  N_23
REMARK                            x       y       z     vdW  Elec       q    Type
REMARK                         _______ _______ _______ _____ _____    ______ ____
ROOT
ATOM      1  C   UNL     1       1.033   8.955  21.057  0.00  0.00    +0.000 A 
ATOM      2  C   UNL     1       0.654   8.827  22.385  0.00  0.00    +0.000 A 
ATOM      3  N   UNL     1       0.068   9.988  22.798  0.00  0.00    +0.000 N 
ATOM      4  C   UNL     1       0.048  10.877  21.764  0.00  0.00    +0.000 A 
ATOM      5  C   UNL     1       0.614  10.292  20.631  0.00  0.00    +0.000 A 
ATOM      6  H   UNL     1      -0.307  10.156  23.725  0.00  0.00    +0.000 HD
ENDROOT
BRANCH   1  10
ATOM      7  C   UNL     1       2.609   5.672  18.785  0.00  0.00    +0.000 A 
ATOM      8  C   UNL     1       2.644   6.964  18.278  0.00  0.00    +0.000 A 
ATOM      9  C   UNL     1       2.140   8.005  19.054  0.00  0.00    +0.000 A 
ATOM     10  C   UNL     1       1.634   7.820  20.339  0.00  0.00    +0.000 A 
ATOM     11  C   UNL     1       1.637   6.510  20.841  0.00  0.00    +0.000 A 
ATOM     12  C   UNL     1       2.105   5.435  20.061  0.00  0.00    +0.000 A 
BRANCH   7  14
ATOM     13  C   UNL     1       3.878   3.193  18.837  0.00  0.00    +0.000 C 
ATOM     14  S   UNL     1       3.100   4.332  17.727  0.00  0.00    +0.000 S 
ATOM     15  O   UNL     1       4.114   4.840  16.821  0.00  0.00    +0.000 OA
ATOM     16  O   UNL     1       1.891   3.717  17.216  0.00  0.00    +0.000 OA
ENDBRANCH   7  14
ENDBRANCH   1  10
BRANCH   5  17
ATOM     17  C   UNL     1       0.772  10.969  19.258  0.00  0.00    +0.000 C 
BRANCH  17  18
ATOM     18  C   UNL     1      -0.597  10.893  18.564  0.00  0.00    +0.000 A 
ATOM     19  C   UNL     1      -0.881   9.874  17.628  0.00  0.00    +0.000 A 
ATOM     20  C   UNL     1      -2.069   9.864  16.894  0.00  0.00    +0.000 A 
ATOM     21  C   UNL     1      -2.988  10.892  17.055  0.00  0.00    +0.000 A 
ATOM     22 CL   UNL     1      -4.410  10.929  16.089  0.00  0.00    +0.000 Cl
ATOM     23  C   UNL     1      -2.775  11.874  18.015  0.00  0.00    +0.000 A 
ATOM     24  C   UNL     1      -1.625  11.829  18.813  0.00  0.00    +0.000 A 
ATOM     25 CL   UNL     1      -1.556  12.967  20.120  0.00  0.00    +0.000 Cl
ENDBRANCH  17  18
BRANCH  17  26
ATOM     26  N   UNL     1       1.311  12.334  19.357  0.00  0.00    +0.000 N 
ATOM     27  C   UNL     1       1.886  12.870  20.497  0.00  0.00    +0.000 A 
ATOM     28  C   UNL     1       2.266  14.143  20.147  0.00  0.00    +0.000 A 
ATOM     29  N   UNL     1       1.976  14.388  18.831  0.00  0.00    +0.000 NA
ATOM     30  C   UNL     1       1.429  13.280  18.379  0.00  0.00    +0.000 A 
ENDBRANCH  17  26
ENDBRANCH   5  17
TORSDOF 5
ENDMDL
MODEL 8
REMARK VINA RESULT:      -7.2      2.588      4.236
REMARK  Name = 
REMARK  6 active torsions:
REMARK  status: ('A' for Active; 'I' for Inactive)
REMARK    1  A    between atoms: C_1  and  S_2
REMARK    2  A    between atoms: S_2  and  C_5
REMARK    3  A    between atoms: C_8  and  C_9
REMARK    4  A    between atoms: C_13  and  C_14
REMARK    5  A    between atoms: C_14  and  C_15
REMARK    6  A    between atoms: C_14  and  N_23
REMARK                            x       y       z     vdW  Elec       q    Type
REMARK                         _______ _______ _______ _____ _____    ______ ____
ROOT
ATOM      1  C   UNL     1       1.330  10.935  18.623  0.00  0.00    +0.000 A 
ATOM      2  C   UNL     1       2.258  11.847  18.144  0.00  0.00    +0.000 A 
ATOM      3  N   UNL     1       1.676  13.078  18.063  0.00  0.00    +0.000 N 
ATOM      4  C   UNL     1       0.382  12.995  18.488  0.00  0.00    +0.000 A 
ATOM      5  C   UNL     1       0.100  11.686  18.878  0.00  0.00    +0.000 A 
ATOM      6  H   UNL     1       2.139  13.924  17.752  0.00  0.00    +0.000 HD
ENDROOT
BRANCH   1  10
ATOM      7  C   UNL     1       2.283   6.785  19.170  0.00  0.00    +0.000 A 
ATOM      8  C   UNL     1       2.547   7.418  17.963  0.00  0.00    +0.000 A 
ATOM      9  C   UNL     1       2.241   8.770  17.832  0.00  0.00    +0.000 A 
ATOM     10  C   UNL     1       1.715   9.536  18.870  0.00  0.00    +0.000 A 
ATOM     11  C   UNL     1       1.484   8.881  20.089  0.00  0.00    +0.000 A 
ATOM     12  C   UNL     1       1.749   7.506  20.235  0.00  0.00    +0.000 A 
BRANCH   7  14
ATOM     13  C   UNL     1       1.467   4.549  20.617  0.00  0.00    +0.000 C 
ATOM     14  S   UNL     1       2.521   5.028  19.277  0.00  0.00    +0.000 S 
ATOM     15  O   UNL     1       3.895   4.798  19.683  0.00  0.00    +0.000 OA
ATOM     16  O   UNL     1       2.002   4.444  18.057  0.00  0.00    +0.000 OA
ENDBRANCH   7  14
ENDBRANCH   1  10
BRANCH   5  17
ATOM     17  C   UNL     1      -1.251  11.186  19.422  0.00  0.00    +0.000 C 
BRANCH  17  18
ATOM     18  C   UNL     1      -1.573  12.036  20.661  0.00  0.00    +0.000 A 
ATOM     19  C   UNL     1      -2.243  13.273  20.539  0.00  0.00    +0.000 A 
ATOM     20  C   UNL     1      -2.428  14.117  21.637  0.00  0.00    +0.000 A 
ATOM     21  C   UNL     1      -1.920  13.757  22.877  0.00  0.00    +0.000 A 
ATOM     22 CL   UNL     1      -2.070  14.834  24.209  0.00  0.00    +0.000 Cl
ATOM     23  C   UNL     1      -1.317  12.518  23.051  0.00  0.00    +0.000 A 
ATOM     24  C   UNL     1      -1.214  11.636  21.968  0.00  0.00    +0.000 A 
ATOM     25 CL   UNL     1      -0.644  10.039  22.332  0.00  0.00    +0.000 Cl
ENDBRANCH  17  18
BRANCH  17  26
ATOM     26  N   UNL     1      -2.312  11.197  18.403  0.00  0.00    +0.000 N 
ATOM     27  C   UNL     1      -2.157  10.743  17.104  0.00  0.00    +0.000 A 
ATOM     28  C   UNL     1      -3.384  10.916  16.511  0.00  0.00    +0.000 A 
ATOM     29  N   UNL     1      -4.286  11.426  17.408  0.00  0.00    +0.000 NA
ATOM     30  C   UNL     1      -3.622  11.559  18.537  0.00  0.00    +0.000 A 
ENDBRANCH  17  26
ENDBRANCH   5  17
TORSDOF 5
ENDMDL
MODEL 9
REMARK VINA RESULT:      -7.2      2.524      3.959
REMARK  Name = 
REMARK  6 active torsions:
REMARK  status: ('A' for Active; 'I' for Inactive)
REMARK    1  A    between atoms: C_1  and  S_2
REMARK    2  A    between atoms: S_2  and  C_5
REMARK    3  A    between atoms: C_8  and  C_9
REMARK    4  A    between atoms: C_13  and  C_14
REMARK    5  A    between atoms: C_14  and  C_15
REMARK    6  A    between atoms: C_14  and  N_23
REMARK                            x       y       z     vdW  Elec       q    Type
REMARK                         _______ _______ _______ _____ _____    ______ ____
ROOT
ATOM      1  C   UNL     1       1.152  11.007  18.692  0.00  0.00    +0.000 A 
ATOM      2  C   UNL     1       2.044  12.021  18.377  0.00  0.00    +0.000 A 
ATOM      3  N   UNL     1       1.362  13.196  18.252  0.00  0.00    +0.000 N 
ATOM      4  C   UNL     1       0.037  12.976  18.488  0.00  0.00    +0.000 A 
ATOM      5  C   UNL     1      -0.168  11.631  18.794  0.00  0.00    +0.000 A 
ATOM      6  H   UNL     1       1.779  14.094  18.035  0.00  0.00    +0.000 HD
ENDROOT
BRANCH   1  10
ATOM      7  C   UNL     1       2.400   6.939  19.257  0.00  0.00    +0.000 A 
ATOM      8  C   UNL     1       2.664   7.600  18.066  0.00  0.00    +0.000 A 
ATOM      9  C   UNL     1       2.259   8.926  17.929  0.00  0.00    +0.000 A 
ATOM     10  C   UNL     1       1.634   9.641  18.947  0.00  0.00    +0.000 A 
ATOM     11  C   UNL     1       1.404   8.960  20.152  0.00  0.00    +0.000 A 
ATOM     12  C   UNL     1       1.769   7.608  20.303  0.00  0.00    +0.000 A 
BRANCH   7  14
ATOM     13  C   UNL     1       4.536   5.150  19.269  0.00  0.00    +0.000 C 
ATOM     14  S   UNL     1       2.768   5.205  19.365  0.00  0.00    +0.000 S 
ATOM     15  O   UNL     1       2.234   4.571  18.174  0.00  0.00    +0.000 OA
ATOM     16  O   UNL     1       2.369   4.757  20.684  0.00  0.00    +0.000 OA
ENDBRANCH   7  14
ENDBRANCH   1  10
BRANCH   5  17
ATOM     17  C   UNL     1      -1.526  10.985  19.127  0.00  0.00    +0.000 C 
BRANCH  17  18
ATOM     18  C   UNL     1      -2.224  11.912  20.134  0.00  0.00    +0.000 A 
ATOM     19  C   UNL     1      -3.401  12.611  19.783  0.00  0.00    +0.000 A 
ATOM     20  C   UNL     1      -3.975  13.554  20.638  0.00  0.00    +0.000 A 
ATOM     21  C   UNL     1      -3.368  13.845  21.852  0.00  0.00    +0.000 A 
ATOM     22 CL   UNL     1      -4.022  15.068  22.867  0.00  0.00    +0.000 Cl
ATOM     23  C   UNL     1      -2.249  13.129  22.261  0.00  0.00    +0.000 A 
ATOM     24  C   UNL     1      -1.729  12.120  21.440  0.00  0.00    +0.000 A 
ATOM     25 CL   UNL     1      -0.472  11.145  22.130  0.00  0.00    +0.000 Cl
ENDBRANCH  17  18
BRANCH  17  26
ATOM     26  N   UNL     1      -2.328  10.701  17.927  0.00  0.00    +0.000 N 
ATOM     27  C   UNL     1      -2.270  11.432  16.753  0.00  0.00    +0.000 A 
ATOM     28  C   UNL     1      -3.155  10.819  15.900  0.00  0.00    +0.000 A 
ATOM     29  N   UNL     1      -3.723   9.725  16.498  0.00  0.00    +0.000 NA
ATOM     30  C   UNL     1      -3.190   9.666  17.700  0.00  0.00    +0.000 A 
ENDBRANCH  17  26
ENDBRANCH   5  17
TORSDOF 5
ENDMDL
