MODEL 1
REMARK VINA RESULT:      -7.3      0.000      0.000
REMARK  Name = 
REMARK  10 active torsions:
REMARK  status: ('A' for Active; 'I' for Inactive)
REMARK    1  A    between atoms: C_1  and  N_2
REMARK    2  A    between atoms: N_2  and  C_3
REMARK    3  A    between atoms: C_3  and  C_4
REMARK    4  A    between atoms: C_4  and  N_5
REMARK    5  A    between atoms: N_5  and  C_6
REMARK    6  A    between atoms: N_5  and  C_7
REMARK    7  A    between atoms: C_13  and  C_14
REMARK    8  A    between atoms: C_14  and  N_15
REMARK    9  A    between atoms: N_15  and  C_16
REMARK   10  A    between atoms: N_15  and  C_17
REMARK                            x       y       z     vdW  Elec       q    Type
REMARK                         _______ _______ _______ _____ _____    ______ ____
ROOT
ATOM      1  C   UNL     1      -0.235  10.453  20.311  0.00  0.00    +0.000 A 
ATOM      2  C   UNL     1      -0.473  10.434  21.643  0.00  0.00    +0.000 A 
ATOM      3  C   UNL     1       0.256   9.531  22.514  0.00  0.00    +0.000 A 
ATOM      4  C   UNL     1       1.154   8.663  22.031  0.00  0.00    +0.000 A 
ATOM      5  C   UNL     1       1.399   8.612  20.632  0.00  0.00    +0.000 A 
ATOM      6  N   UNL     1       2.102   7.760  19.921  0.00  0.00    +0.000 NA
ATOM      7  C   UNL     1       1.926   8.136  18.608  0.00  0.00    +0.000 A 
ATOM      8  C   UNL     1       1.199   9.312  18.546  0.00  0.00    +0.000 A 
ATOM      9  N   UNL     1       0.742   9.540  19.827  0.00  0.00    +0.000 N 
ENDROOT
BRANCH   1  10
ATOM     10  N   UNL     1      -0.993  11.229  19.407  0.00  0.00    +0.000 N 
ATOM     11  C   UNL     1      -0.421  12.526  18.993  0.00  0.00    +0.000 C 
BRANCH  10  12
ATOM     12  C   UNL     1      -1.723  10.546  18.302  0.00  0.00    +0.000 C 
BRANCH  12  13
ATOM     13  C   UNL     1      -2.687  11.488  17.558  0.00  0.00    +0.000 C 
BRANCH  13  15
ATOM     14  C   UNL     1      -3.243  10.614  15.383  0.00  0.00    +0.000 C 
ATOM     15  N   UNL     1      -2.389  11.540  16.117  0.00  0.00    +0.000 NA
ATOM     16  H   UNL     1      -2.550  12.485  15.768  0.00  0.00    +0.000 HD
ENDBRANCH  13  15
ENDBRANCH  12  13
ENDBRANCH  10  12
ENDBRANCH   1  10
BRANCH   7  17
ATOM     17  C   UNL     1       2.488   7.318  17.478  0.00  0.00    +0.000 C 
BRANCH  17  18
ATOM     18  N   UNL     1       3.522   6.329  17.893  0.00  0.00    +0.000 NA
ATOM     19  C   UNL     1       4.870   6.792  17.597  0.00  0.00    +0.000 C 
BRANCH  18  20
ATOM     20  C   UNL     1       3.212   4.928  17.478  0.00  0.00    +0.000 C 
ATOM     21  C   UNL     1       4.447   4.108  17.028  0.00  0.00    +0.000 C 
ATOM     22  C   UNL     1       5.493   3.979  18.139  0.00  0.00    +0.000 C 
ATOM     23  C   UNL     1       4.920   3.466  19.462  0.00  0.00    +0.000 C 
ATOM     24  C   UNL     1       3.459   3.737  19.695  0.00  0.00    +0.000 A 
ATOM     25  C   UNL     1       2.885   3.487  20.943  0.00  0.00    +0.000 A 
ATOM     26  C   UNL     1       1.506   3.569  21.097  0.00  0.00    +0.000 A 
ATOM     27  C   UNL     1       0.739   3.838  19.978  0.00  0.00    +0.000 A 
ATOM     28  N   UNL     1       1.259   4.141  18.774  0.00  0.00    +0.000 NA
ATOM     29  C   UNL     1       2.612   4.163  18.666  0.00  0.00    +0.000 A 
ENDBRANCH  18  20
ENDBRANCH  17  18
ENDBRANCH   7  17
TORSDOF 7
ENDMDL
MODEL 2
REMARK VINA RESULT:      -7.2      2.207      4.083
REMARK  Name = 
REMARK  10 active torsions:
REMARK  status: ('A' for Active; 'I' for Inactive)
REMARK    1  A    between atoms: C_1  and  N_2
REMARK    2  A    between atoms: N_2  and  C_3
REMARK    3  A    between atoms: C_3  and  C_4
REMARK    4  A    between atoms: C_4  and  N_5
REMARK    5  A    between atoms: N_5  and  C_6
REMARK    6  A    between atoms: N_5  and  C_7
REMARK    7  A    between atoms: C_13  and  C_14
REMARK    8  A    between atoms: C_14  and  N_15
REMARK    9  A    between atoms: N_15  and  C_16
REMARK   10  A    between atoms: N_15  and  C_17
REMARK                            x       y       z     vdW  Elec       q    Type
REMARK                         _______ _______ _______ _____ _____    ______ ____
ROOT
ATOM      1  C   UNL     1       0.677   9.538  20.139  0.00  0.00    +0.000 A 
ATOM      2  C   UNL     1       0.907  10.471  19.184  0.00  0.00    +0.000 A 
ATOM      3  C   UNL     1       1.726  10.160  18.027  0.00  0.00    +0.000 A 
ATOM      4  C   UNL     1       2.311   8.964  17.882  0.00  0.00    +0.000 A 
ATOM      5  C   UNL     1       2.140   7.972  18.885  0.00  0.00    +0.000 A 
ATOM      6  N   UNL     1       2.726   6.808  19.039  0.00  0.00    +0.000 NA
ATOM      7  C   UNL     1       2.244   6.302  20.226  0.00  0.00    +0.000 A 
ATOM      8  C   UNL     1       1.258   7.133  20.727  0.00  0.00    +0.000 A 
ATOM      9  N   UNL     1       1.290   8.269  19.948  0.00  0.00    +0.000 N 
ENDROOT
BRANCH   1  10
ATOM     10  N   UNL     1      -0.015   9.822  21.336  0.00  0.00    +0.000 N 
ATOM     11  C   UNL     1       0.722   9.616  22.600  0.00  0.00    +0.000 C 
BRANCH  10  12
ATOM     12  C   UNL     1      -0.920  11.005  21.386  0.00  0.00    +0.000 C 
BRANCH  12  13
ATOM     13  C   UNL     1      -0.854  11.744  22.736  0.00  0.00    +0.000 C 
BRANCH  13  15
ATOM     14  C   UNL     1      -2.985  12.599  22.008  0.00  0.00    +0.000 C 
ATOM     15  N   UNL     1      -1.779  12.889  22.773  0.00  0.00    +0.000 NA
ATOM     16  H   UNL     1      -2.038  13.088  23.738  0.00  0.00    +0.000 HD
ENDBRANCH  13  15
ENDBRANCH  12  13
ENDBRANCH  10  12
ENDBRANCH   1  10
BRANCH   7  17
ATOM     17  C   UNL     1       2.778   5.021  20.804  0.00  0.00    +0.000 C 
BRANCH  17  18
ATOM     18  N   UNL     1       2.398   3.799  20.041  0.00  0.00    +0.000 NA
ATOM     19  C   UNL     1       1.266   3.110  20.642  0.00  0.00    +0.000 C 
BRANCH  18  20
ATOM     20  C   UNL     1       3.561   2.936  19.673  0.00  0.00    +0.000 C 
ATOM     21  C   UNL     1       3.194   1.711  18.798  0.00  0.00    +0.000 C 
ATOM     22  C   UNL     1       2.556   2.120  17.467  0.00  0.00    +0.000 C 
ATOM     23  C   UNL     1       3.375   3.152  16.688  0.00  0.00    +0.000 C 
ATOM     24  C   UNL     1       4.272   4.036  17.510  0.00  0.00    +0.000 A 
ATOM     25  C   UNL     1       4.909   5.133  16.926  0.00  0.00    +0.000 A 
ATOM     26  C   UNL     1       5.871   5.834  17.644  0.00  0.00    +0.000 A 
ATOM     27  C   UNL     1       6.209   5.376  18.904  0.00  0.00    +0.000 A 
ATOM     28  N   UNL     1       5.577   4.360  19.521  0.00  0.00    +0.000 NA
ATOM     29  C   UNL     1       4.565   3.753  18.848  0.00  0.00    +0.000 A 
ENDBRANCH  18  20
ENDBRANCH  17  18
ENDBRANCH   7  17
TORSDOF 7
ENDMDL
MODEL 3
REMARK VINA RESULT:      -7.0      1.604      2.422
REMARK  Name = 
REMARK  10 active torsions:
REMARK  status: ('A' for Active; 'I' for Inactive)
REMARK    1  A    between atoms: C_1  and  N_2
REMARK    2  A    between atoms: N_2  and  C_3
REMARK    3  A    between atoms: C_3  and  C_4
REMARK    4  A    between atoms: C_4  and  N_5
REMARK    5  A    between atoms: N_5  and  C_6
REMARK    6  A    between atoms: N_5  and  C_7
REMARK    7  A    between atoms: C_13  and  C_14
REMARK    8  A    between atoms: C_14  and  N_15
REMARK    9  A    between atoms: N_15  and  C_16
REMARK   10  A    between atoms: N_15  and  C_17
REMARK                            x       y       z     vdW  Elec       q    Type
REMARK                         _______ _______ _______ _____ _____    ______ ____
ROOT
ATOM      1  C   UNL     1       0.636  10.798  19.923  0.00  0.00    +0.000 A 
ATOM      2  C   UNL     1       0.301  11.017  21.217  0.00  0.00    +0.000 A 
ATOM      3  C   UNL     1       0.572  10.016  22.233  0.00  0.00    +0.000 A 
ATOM      4  C   UNL     1       1.122   8.835  21.924  0.00  0.00    +0.000 A 
ATOM      5  C   UNL     1       1.443   8.541  20.571  0.00  0.00    +0.000 A 
ATOM      6  N   UNL     1       1.835   7.419  20.014  0.00  0.00    +0.000 NA
ATOM      7  C   UNL     1       1.917   7.682  18.664  0.00  0.00    +0.000 A 
ATOM      8  C   UNL     1       1.683   9.025  18.430  0.00  0.00    +0.000 A 
ATOM      9  N   UNL     1       1.242   9.546  19.627  0.00  0.00    +0.000 N 
ENDROOT
BRANCH   1  10
ATOM     10  N   UNL     1       0.292  11.687  18.882  0.00  0.00    +0.000 N 
ATOM     11  C   UNL     1      -1.147  11.938  18.664  0.00  0.00    +0.000 C 
BRANCH  10  12
ATOM     12  C   UNL     1       1.126  12.903  18.662  0.00  0.00    +0.000 C 
BRANCH  12  13
ATOM     13  C   UNL     1       2.542  12.566  18.160  0.00  0.00    +0.000 C 
BRANCH  13  15
ATOM     14  C   UNL     1       2.628  14.959  18.420  0.00  0.00    +0.000 C 
ATOM     15  N   UNL     1       3.346  13.781  17.949  0.00  0.00    +0.000 NA
ATOM     16  H   UNL     1       4.225  13.702  18.461  0.00  0.00    +0.000 HD
ENDBRANCH  13  15
ENDBRANCH  12  13
ENDBRANCH  10  12
ENDBRANCH   1  10
BRANCH   7  17
ATOM     17  C   UNL     1       2.227   6.595  17.673  0.00  0.00    +0.000 C 
BRANCH  17  18
ATOM     18  N   UNL     1       3.632   6.103  17.721  0.00  0.00    +0.000 NA
ATOM     19  C   UNL     1       4.568   7.075  17.174  0.00  0.00    +0.000 C 
BRANCH  18  20
ATOM     20  C   UNL     1       3.794   4.700  17.234  0.00  0.00    +0.000 C 
ATOM     21  C   UNL     1       5.246   4.164  17.309  0.00  0.00    +0.000 C 
ATOM     22  C   UNL     1       5.789   4.160  18.741  0.00  0.00    +0.000 C 
ATOM     23  C   UNL     1       4.869   3.458  19.742  0.00  0.00    +0.000 C 
ATOM     24  C   UNL     1       3.408   3.429  19.385  0.00  0.00    +0.000 A 
ATOM     25  C   UNL     1       2.463   2.990  20.314  0.00  0.00    +0.000 A 
ATOM     26  C   UNL     1       1.144   2.797  19.918  0.00  0.00    +0.000 A 
ATOM     27  C   UNL     1       0.827   2.991  18.586  0.00  0.00    +0.000 A 
ATOM     28  N   UNL     1       1.697   3.470  17.676  0.00  0.00    +0.000 NA
ATOM     29  C   UNL     1       2.953   3.756  18.103  0.00  0.00    +0.000 A 
ENDBRANCH  18  20
ENDBRANCH  17  18
ENDBRANCH   7  17
TORSDOF 7
ENDMDL
MODEL 4
REMARK VINA RESULT:      -7.0      1.391      2.901
REMARK  Name = 
REMARK  10 active torsions:
REMARK  status: ('A' for Active; 'I' for Inactive)
REMARK    1  A    between atoms: C_1  and  N_2
REMARK    2  A    between atoms: N_2  and  C_3
REMARK    3  A    between atoms: C_3  and  C_4
REMARK    4  A    between atoms: C_4  and  N_5
REMARK    5  A    between atoms: N_5  and  C_6
REMARK    6  A    between atoms: N_5  and  C_7
REMARK    7  A    between atoms: C_13  and  C_14
REMARK    8  A    between atoms: C_14  and  N_15
REMARK    9  A    between atoms: N_15  and  C_16
REMARK   10  A    between atoms: N_15  and  C_17
REMARK                            x       y       z     vdW  Elec       q    Type
REMARK                         _______ _______ _______ _____ _____    ______ ____
ROOT
ATOM      1  C   UNL     1       0.165  10.880  20.439  0.00  0.00    +0.000 A 
ATOM      2  C   UNL     1      -0.389  11.162  21.643  0.00  0.00    +0.000 A 
ATOM      3  C   UNL     1      -0.240  10.248  22.760  0.00  0.00    +0.000 A 
ATOM      4  C   UNL     1       0.409   9.084  22.632  0.00  0.00    +0.000 A 
ATOM      5  C   UNL     1       0.962   8.722  21.373  0.00  0.00    +0.000 A 
ATOM      6  N   UNL     1       1.494   7.591  20.971  0.00  0.00    +0.000 NA
ATOM      7  C   UNL     1       1.784   7.770  19.636  0.00  0.00    +0.000 A 
ATOM      8  C   UNL     1       1.527   9.079  19.268  0.00  0.00    +0.000 A 
ATOM      9  N   UNL     1       0.871   9.650  20.338  0.00  0.00    +0.000 N 
ENDROOT
BRANCH   1  10
ATOM     10  N   UNL     1      -0.045  11.678  19.293  0.00  0.00    +0.000 N 
ATOM     11  C   UNL     1       1.117  12.434  18.782  0.00  0.00    +0.000 C 
BRANCH  10  12
ATOM     12  C   UNL     1      -0.918  11.161  18.201  0.00  0.00    +0.000 C 
BRANCH  12  13
ATOM     13  C   UNL     1      -2.372  11.654  18.323  0.00  0.00    +0.000 C 
BRANCH  13  15
ATOM     14  C   UNL     1      -4.486  11.579  17.171  0.00  0.00    +0.000 C 
ATOM     15  N   UNL     1      -3.041  11.697  17.013  0.00  0.00    +0.000 NA
ATOM     16  H   UNL     1      -2.830  12.580  16.550  0.00  0.00    +0.000 HD
ENDBRANCH  13  15
ENDBRANCH  12  13
ENDBRANCH  10  12
ENDBRANCH   1  10
BRANCH   7  17
ATOM     17  C   UNL     1       2.304   6.641  18.791  0.00  0.00    +0.000 C 
BRANCH  17  18
ATOM     18  N   UNL     1       3.785   6.484  18.823  0.00  0.00    +0.000 NA
ATOM     19  C   UNL     1       4.410   6.950  17.594  0.00  0.00    +0.000 C 
BRANCH  18  20
ATOM     20  C   UNL     1       4.236   5.146  19.312  0.00  0.00    +0.000 C 
ATOM     21  C   UNL     1       3.107   4.089  19.409  0.00  0.00    +0.000 C 
ATOM     22  C   UNL     1       2.446   3.822  18.053  0.00  0.00    +0.000 C 
ATOM     23  C   UNL     1       3.444   3.491  16.942  0.00  0.00    +0.000 C 
ATOM     24  C   UNL     1       4.832   4.040  17.118  0.00  0.00    +0.000 A 
ATOM     25  C   UNL     1       5.760   3.963  16.077  0.00  0.00    +0.000 A 
ATOM     26  C   UNL     1       7.086   4.309  16.309  0.00  0.00    +0.000 A 
ATOM     27  C   UNL     1       7.455   4.661  17.594  0.00  0.00    +0.000 A 
ATOM     28  N   UNL     1       6.580   4.802  18.607  0.00  0.00    +0.000 NA
ATOM     29  C   UNL     1       5.270   4.565  18.339  0.00  0.00    +0.000 A 
ENDBRANCH  18  20
ENDBRANCH  17  18
ENDBRANCH   7  17
TORSDOF 7
ENDMDL
MODEL 5
REMARK VINA RESULT:      -7.0      1.659      3.434
REMARK  Name = 
REMARK  10 active torsions:
REMARK  status: ('A' for Active; 'I' for Inactive)
REMARK    1  A    between atoms: C_1  and  N_2
REMARK    2  A    between atoms: N_2  and  C_3
REMARK    3  A    between atoms: C_3  and  C_4
REMARK    4  A    between atoms: C_4  and  N_5
REMARK    5  A    between atoms: N_5  and  C_6
REMARK    6  A    between atoms: N_5  and  C_7
REMARK    7  A    between atoms: C_13  and  C_14
REMARK    8  A    between atoms: C_14  and  N_15
REMARK    9  A    between atoms: N_15  and  C_16
REMARK   10  A    between atoms: N_15  and  C_17
REMARK                            x       y       z     vdW  Elec       q    Type
REMARK                         _______ _______ _______ _____ _____    ______ ____
ROOT
ATOM      1  C   UNL     1      -0.154  10.484  20.201  0.00  0.00    +0.000 A 
ATOM      2  C   UNL     1      -0.782  10.891  21.329  0.00  0.00    +0.000 A 
ATOM      3  C   UNL     1      -0.501  10.259  22.605  0.00  0.00    +0.000 A 
ATOM      4  C   UNL     1       0.354   9.232  22.705  0.00  0.00    +0.000 A 
ATOM      5  C   UNL     1       0.997   8.737  21.539  0.00  0.00    +0.000 A 
ATOM      6  N   UNL     1       1.738   7.667  21.364  0.00  0.00    +0.000 NA
ATOM      7  C   UNL     1       2.027   7.629  20.018  0.00  0.00    +0.000 A 
ATOM      8  C   UNL     1       1.546   8.770  19.400  0.00  0.00    +0.000 A 
ATOM      9  N   UNL     1       0.767   9.409  20.340  0.00  0.00    +0.000 N 
ENDROOT
BRANCH   1  10
ATOM     10  N   UNL     1      -0.474  10.987  18.922  0.00  0.00    +0.000 N 
ATOM     11  C   UNL     1      -1.794  10.621  18.369  0.00  0.00    +0.000 C 
BRANCH  10  12
ATOM     12  C   UNL     1      -0.069  12.377  18.568  0.00  0.00    +0.000 C 
BRANCH  12  13
ATOM     13  C   UNL     1       1.403  12.671  18.912  0.00  0.00    +0.000 C 
BRANCH  13  15
ATOM     14  C   UNL     1       3.075  14.155  18.016  0.00  0.00    +0.000 C 
ATOM     15  N   UNL     1       2.174  13.049  17.716  0.00  0.00    +0.000 NA
ATOM     16  H   UNL     1       2.724  12.251  17.398  0.00  0.00    +0.000 HD
ENDBRANCH  13  15
ENDBRANCH  12  13
ENDBRANCH  10  12
ENDBRANCH   1  10
BRANCH   7  17
ATOM     17  C   UNL     1       2.768   6.471  19.410  0.00  0.00    +0.000 C 
BRANCH  17  18
ATOM     18  N   UNL     1       2.126   5.146  19.635  0.00  0.00    +0.000 NA
ATOM     19  C   UNL     1       0.933   5.252  20.463  0.00  0.00    +0.000 C 
BRANCH  18  20
ATOM     20  C   UNL     1       3.089   4.070  20.019  0.00  0.00    +0.000 C 
ATOM     21  C   UNL     1       2.462   2.656  20.108  0.00  0.00    +0.000 C 
ATOM     22  C   UNL     1       1.860   2.204  18.775  0.00  0.00    +0.000 C 
ATOM     23  C   UNL     1       2.827   2.325  17.595  0.00  0.00    +0.000 C 
ATOM     24  C   UNL     1       3.907   3.362  17.733  0.00  0.00    +0.000 A 
ATOM     25  C   UNL     1       4.716   3.688  16.643  0.00  0.00    +0.000 A 
ATOM     26  C   UNL     1       5.821   4.511  16.826  0.00  0.00    +0.000 A 
ATOM     27  C   UNL     1       6.117   4.932  18.110  0.00  0.00    +0.000 A 
ATOM     28  N   UNL     1       5.329   4.686  19.174  0.00  0.00    +0.000 NA
ATOM     29  C   UNL     1       4.195   3.971  18.959  0.00  0.00    +0.000 A 
ENDBRANCH  18  20
ENDBRANCH  17  18
ENDBRANCH   7  17
TORSDOF 7
ENDMDL
MODEL 6
REMARK VINA RESULT:      -6.8      1.649      3.446
REMARK  Name = 
REMARK  10 active torsions:
REMARK  status: ('A' for Active; 'I' for Inactive)
REMARK    1  A    between atoms: C_1  and  N_2
REMARK    2  A    between atoms: N_2  and  C_3
REMARK    3  A    between atoms: C_3  and  C_4
REMARK    4  A    between atoms: C_4  and  N_5
REMARK    5  A    between atoms: N_5  and  C_6
REMARK    6  A    between atoms: N_5  and  C_7
REMARK    7  A    between atoms: C_13  and  C_14
REMARK    8  A    between atoms: C_14  and  N_15
REMARK    9  A    between atoms: N_15  and  C_16
REMARK   10  A    between atoms: N_15  and  C_17
REMARK                            x       y       z     vdW  Elec       q    Type
REMARK                         _______ _______ _______ _____ _____    ______ ____
ROOT
ATOM      1  C   UNL     1       0.230  10.633  20.189  0.00  0.00    +0.000 A 
ATOM      2  C   UNL     1      -0.340  11.081  21.333  0.00  0.00    +0.000 A 
ATOM      3  C   UNL     1      -0.218  10.327  22.567  0.00  0.00    +0.000 A 
ATOM      4  C   UNL     1       0.422   9.152  22.610  0.00  0.00    +0.000 A 
ATOM      5  C   UNL     1       0.991   8.617  21.422  0.00  0.00    +0.000 A 
ATOM      6  N   UNL     1       1.518   7.438  21.187  0.00  0.00    +0.000 NA
ATOM      7  C   UNL     1       1.830   7.430  19.846  0.00  0.00    +0.000 A 
ATOM      8  C   UNL     1       1.592   8.679  19.298  0.00  0.00    +0.000 A 
ATOM      9  N   UNL     1       0.925   9.395  20.268  0.00  0.00    +0.000 N 
ENDROOT
BRANCH   1  10
ATOM     10  N   UNL     1       0.045  11.267  18.941  0.00  0.00    +0.000 N 
ATOM     11  C   UNL     1      -1.261  11.074  18.278  0.00  0.00    +0.000 C 
BRANCH  10  12
ATOM     12  C   UNL     1       0.595  12.638  18.738  0.00  0.00    +0.000 C 
BRANCH  12  13
ATOM     13  C   UNL     1      -0.476  13.641  18.269  0.00  0.00    +0.000 C 
BRANCH  13  15
ATOM     14  C   UNL     1       0.215  14.638  20.349  0.00  0.00    +0.000 C 
ATOM     15  N   UNL     1      -0.829  14.594  19.333  0.00  0.00    +0.000 NA
ATOM     16  H   UNL     1      -0.943  15.525  18.934  0.00  0.00    +0.000 HD
ENDBRANCH  13  15
ENDBRANCH  12  13
ENDBRANCH  10  12
ENDBRANCH   1  10
BRANCH   7  17
ATOM     17  C   UNL     1       2.353   6.192  19.171  0.00  0.00    +0.000 C 
BRANCH  17  18
ATOM     18  N   UNL     1       3.837   6.137  19.056  0.00  0.00    +0.000 NA
ATOM     19  C   UNL     1       4.310   6.731  17.814  0.00  0.00    +0.000 C 
BRANCH  18  20
ATOM     20  C   UNL     1       4.416   4.803  19.399  0.00  0.00    +0.000 C 
ATOM     21  C   UNL     1       3.370   3.667  19.525  0.00  0.00    +0.000 C 
ATOM     22  C   UNL     1       2.594   3.448  18.223  0.00  0.00    +0.000 C 
ATOM     23  C   UNL     1       3.493   3.263  16.999  0.00  0.00    +0.000 C 
ATOM     24  C   UNL     1       4.856   3.893  17.082  0.00  0.00    +0.000 A 
ATOM     25  C   UNL     1       5.677   3.951  15.953  0.00  0.00    +0.000 A 
ATOM     26  C   UNL     1       6.996   4.370  16.081  0.00  0.00    +0.000 A 
ATOM     27  C   UNL     1       7.470   4.658  17.348  0.00  0.00    +0.000 A 
ATOM     28  N   UNL     1       6.694   4.670  18.449  0.00  0.00    +0.000 NA
ATOM     29  C   UNL     1       5.381   4.363  18.290  0.00  0.00    +0.000 A 
ENDBRANCH  18  20
ENDBRANCH  17  18
ENDBRANCH   7  17
TORSDOF 7
ENDMDL
MODEL 7
REMARK VINA RESULT:      -6.8      1.462      2.585
REMARK  Name = 
REMARK  10 active torsions:
REMARK  status: ('A' for Active; 'I' for Inactive)
REMARK    1  A    between atoms: C_1  and  N_2
REMARK    2  A    between atoms: N_2  and  C_3
REMARK    3  A    between atoms: C_3  and  C_4
REMARK    4  A    between atoms: C_4  and  N_5
REMARK    5  A    between atoms: N_5  and  C_6
REMARK    6  A    between atoms: N_5  and  C_7
REMARK    7  A    between atoms: C_13  and  C_14
REMARK    8  A    between atoms: C_14  and  N_15
REMARK    9  A    between atoms: N_15  and  C_16
REMARK   10  A    between atoms: N_15  and  C_17
REMARK                            x       y       z     vdW  Elec       q    Type
REMARK                         _______ _______ _______ _____ _____    ______ ____
ROOT
ATOM      1  C   UNL     1       0.240  10.814  20.539  0.00  0.00    +0.000 A 
ATOM      2  C   UNL     1      -0.136  10.760  21.839  0.00  0.00    +0.000 A 
ATOM      3  C   UNL     1       0.234   9.631  22.671  0.00  0.00    +0.000 A 
ATOM      4  C   UNL     1       0.920   8.591  22.179  0.00  0.00    +0.000 A 
ATOM      5  C   UNL     1       1.291   8.581  20.807  0.00  0.00    +0.000 A 
ATOM      6  N   UNL     1       1.817   7.626  20.075  0.00  0.00    +0.000 NA
ATOM      7  C   UNL     1       1.887   8.133  18.796  0.00  0.00    +0.000 A 
ATOM      8  C   UNL     1       1.504   9.463  18.793  0.00  0.00    +0.000 A 
ATOM      9  N   UNL     1       0.989   9.710  20.048  0.00  0.00    +0.000 N 
ENDROOT
BRANCH   1  10
ATOM     10  N   UNL     1      -0.189  11.831  19.658  0.00  0.00    +0.000 N 
ATOM     11  C   UNL     1      -1.630  11.876  19.339  0.00  0.00    +0.000 C 
BRANCH  10  12
ATOM     12  C   UNL     1       0.416  13.189  19.771  0.00  0.00    +0.000 C 
BRANCH  12  13
ATOM     13  C   UNL     1       1.954  13.159  19.692  0.00  0.00    +0.000 C 
BRANCH  13  15
ATOM     14  C   UNL     1       3.633  14.368  20.926  0.00  0.00    +0.000 C 
ATOM     15  N   UNL     1       2.537  14.482  19.972  0.00  0.00    +0.000 NA
ATOM     16  H   UNL     1       2.892  14.889  19.107  0.00  0.00    +0.000 HD
ENDBRANCH  13  15
ENDBRANCH  12  13
ENDBRANCH  10  12
ENDBRANCH   1  10
BRANCH   7  17
ATOM     17  C   UNL     1       2.333   7.281  17.640  0.00  0.00    +0.000 C 
BRANCH  17  18
ATOM     18  N   UNL     1       3.467   6.368  17.954  0.00  0.00    +0.000 NA
ATOM     19  C   UNL     1       4.753   6.956  17.609  0.00  0.00    +0.000 C 
BRANCH  18  20
ATOM     20  C   UNL     1       3.251   4.963  17.493  0.00  0.00    +0.000 C 
ATOM     21  C   UNL     1       4.547   4.222  17.080  0.00  0.00    +0.000 C 
ATOM     22  C   UNL     1       5.549   4.119  18.234  0.00  0.00    +0.000 C 
ATOM     23  C   UNL     1       4.947   3.543  19.517  0.00  0.00    +0.000 C 
ATOM     24  C   UNL     1       3.465   3.730  19.690  0.00  0.00    +0.000 A 
ATOM     25  C   UNL     1       2.851   3.418  20.905  0.00  0.00    +0.000 A 
ATOM     26  C   UNL     1       1.464   3.423  20.998  0.00  0.00    +0.000 A 
ATOM     27  C   UNL     1       0.733   3.680  19.853  0.00  0.00    +0.000 A 
ATOM     28  N   UNL     1       1.289   4.041  18.680  0.00  0.00    +0.000 NA
ATOM     29  C   UNL     1       2.642   4.137  18.634  0.00  0.00    +0.000 A 
ENDBRANCH  18  20
ENDBRANCH  17  18
ENDBRANCH   7  17
TORSDOF 7
ENDMDL
MODEL 8
REMARK VINA RESULT:      -6.8      1.262      2.777
REMARK  Name = 
REMARK  10 active torsions:
REMARK  status: ('A' for Active; 'I' for Inactive)
REMARK    1  A    between atoms: C_1  and  N_2
REMARK    2  A    between atoms: N_2  and  C_3
REMARK    3  A    between atoms: C_3  and  C_4
REMARK    4  A    between atoms: C_4  and  N_5
REMARK    5  A    between atoms: N_5  and  C_6
REMARK    6  A    between atoms: N_5  and  C_7
REMARK    7  A    between atoms: C_13  and  C_14
REMARK    8  A    between atoms: C_14  and  N_15
REMARK    9  A    between atoms: N_15  and  C_16
REMARK   10  A    between atoms: N_15  and  C_17
REMARK                            x       y       z     vdW  Elec       q    Type
REMARK                         _______ _______ _______ _____ _____    ______ ____
ROOT
ATOM      1  C   UNL     1      -0.200  10.584  20.255  0.00  0.00    +0.000 A 
ATOM      2  C   UNL     1      -0.811  10.953  21.406  0.00  0.00    +0.000 A 
ATOM      3  C   UNL     1      -0.517  10.271  22.653  0.00  0.00    +0.000 A 
ATOM      4  C   UNL     1       0.331   9.236  22.703  0.00  0.00    +0.000 A 
ATOM      5  C   UNL     1       0.956   8.781  21.511  0.00  0.00    +0.000 A 
ATOM      6  N   UNL     1       1.687   7.714  21.286  0.00  0.00    +0.000 NA
ATOM      7  C   UNL     1       1.958   7.725  19.936  0.00  0.00    +0.000 A 
ATOM      8  C   UNL     1       1.477   8.891  19.367  0.00  0.00    +0.000 A 
ATOM      9  N   UNL     1       0.715   9.499  20.341  0.00  0.00    +0.000 N 
ENDROOT
BRANCH   1  10
ATOM     10  N   UNL     1      -0.533  11.137  19.000  0.00  0.00    +0.000 N 
ATOM     11  C   UNL     1       0.316  12.241  18.507  0.00  0.00    +0.000 C 
BRANCH  10  12
ATOM     12  C   UNL     1      -0.986  10.231  17.907  0.00  0.00    +0.000 C 
BRANCH  12  13
ATOM     13  C   UNL     1      -2.511  10.019  17.907  0.00  0.00    +0.000 C 
BRANCH  13  15
ATOM     14  C   UNL     1      -2.803  10.814  15.652  0.00  0.00    +0.000 C 
ATOM     15  N   UNL     1      -3.195  10.997  17.044  0.00  0.00    +0.000 NA
ATOM     16  H   UNL     1      -4.204  10.875  17.123  0.00  0.00    +0.000 HD
ENDBRANCH  13  15
ENDBRANCH  12  13
ENDBRANCH  10  12
ENDBRANCH   1  10
BRANCH   7  17
ATOM     17  C   UNL     1       2.683   6.586  19.274  0.00  0.00    +0.000 C 
BRANCH  17  18
ATOM     18  N   UNL     1       2.120   5.241  19.579  0.00  0.00    +0.000 NA
ATOM     19  C   UNL     1       0.920   5.325  20.398  0.00  0.00    +0.000 C 
BRANCH  18  20
ATOM     20  C   UNL     1       3.144   4.250  20.029  0.00  0.00    +0.000 C 
ATOM     21  C   UNL     1       2.596   2.815  20.232  0.00  0.00    +0.000 C 
ATOM     22  C   UNL     1       2.007   2.233  18.943  0.00  0.00    +0.000 C 
ATOM     23  C   UNL     1       2.955   2.317  17.746  0.00  0.00    +0.000 C 
ATOM     24  C   UNL     1       3.979   3.418  17.792  0.00  0.00    +0.000 A 
ATOM     25  C   UNL     1       4.759   3.704  16.670  0.00  0.00    +0.000 A 
ATOM     26  C   UNL     1       5.820   4.597  16.778  0.00  0.00    +0.000 A 
ATOM     27  C   UNL     1       6.103   5.127  18.023  0.00  0.00    +0.000 A 
ATOM     28  N   UNL     1       5.340   4.920  19.112  0.00  0.00    +0.000 NA
ATOM     29  C   UNL     1       4.244   4.131  18.966  0.00  0.00    +0.000 A 
ENDBRANCH  18  20
ENDBRANCH  17  18
ENDBRANCH   7  17
TORSDOF 7
ENDMDL
MODEL 9
REMARK VINA RESULT:      -6.8      1.111      1.358
REMARK  Name = 
REMARK  10 active torsions:
REMARK  status: ('A' for Active; 'I' for Inactive)
REMARK    1  A    between atoms: C_1  and  N_2
REMARK    2  A    between atoms: N_2  and  C_3
REMARK    3  A    between atoms: C_3  and  C_4
REMARK    4  A    between atoms: C_4  and  N_5
REMARK    5  A    between atoms: N_5  and  C_6
REMARK    6  A    between atoms: N_5  and  C_7
REMARK    7  A    between atoms: C_13  and  C_14
REMARK    8  A    between atoms: C_14  and  N_15
REMARK    9  A    between atoms: N_15  and  C_16
REMARK   10  A    between atoms: N_15  and  C_17
REMARK                            x       y       z     vdW  Elec       q    Type
REMARK                         _______ _______ _______ _____ _____    ______ ____
ROOT
ATOM      1  C   UNL     1       0.284  10.645  20.195  0.00  0.00    +0.000 A 
ATOM      2  C   UNL     1      -0.021  10.694  21.514  0.00  0.00    +0.000 A 
ATOM      3  C   UNL     1       0.454   9.669  22.424  0.00  0.00    +0.000 A 
ATOM      4  C   UNL     1       1.172   8.624  21.991  0.00  0.00    +0.000 A 
ATOM      5  C   UNL     1       1.473   8.504  20.607  0.00  0.00    +0.000 A 
ATOM      6  N   UNL     1       2.015   7.514  19.936  0.00  0.00    +0.000 NA
ATOM      7  C   UNL     1       1.990   7.901  18.615  0.00  0.00    +0.000 A 
ATOM      8  C   UNL     1       1.533   9.203  18.512  0.00  0.00    +0.000 A 
ATOM      9  N   UNL     1       1.069   9.539  19.766  0.00  0.00    +0.000 N 
ENDROOT
BRANCH   1  10
ATOM     10  N   UNL     1      -0.245  11.551  19.251  0.00  0.00    +0.000 N 
ATOM     11  C   UNL     1       0.684  12.554  18.691  0.00  0.00    +0.000 C 
BRANCH  10  12
ATOM     12  C   UNL     1      -1.230  11.058  18.247  0.00  0.00    +0.000 C 
BRANCH  12  13
ATOM     13  C   UNL     1      -2.559  11.833  18.291  0.00  0.00    +0.000 C 
BRANCH  13  15
ATOM     14  C   UNL     1      -4.162  12.588  19.923  0.00  0.00    +0.000 C 
ATOM     15  N   UNL     1      -2.746  12.515  19.582  0.00  0.00    +0.000 NA
ATOM     16  H   UNL     1      -2.255  12.002  20.314  0.00  0.00    +0.000 HD
ENDBRANCH  13  15
ENDBRANCH  12  13
ENDBRANCH  10  12
ENDBRANCH   1  10
BRANCH   7  17
ATOM     17  C   UNL     1       2.424   6.968  17.518  0.00  0.00    +0.000 C 
BRANCH  17  18
ATOM     18  N   UNL     1       3.707   6.260  17.788  0.00  0.00    +0.000 NA
ATOM     19  C   UNL     1       4.863   7.093  17.493  0.00  0.00    +0.000 C 
BRANCH  18  20
ATOM     20  C   UNL     1       3.751   4.870  17.241  0.00  0.00    +0.000 C 
ATOM     21  C   UNL     1       5.156   4.216  17.276  0.00  0.00    +0.000 C 
ATOM     22  C   UNL     1       5.710   4.109  18.700  0.00  0.00    +0.000 C 
ATOM     23  C   UNL     1       4.745   3.441  19.682  0.00  0.00    +0.000 C 
ATOM     24  C   UNL     1       3.284   3.544  19.343  0.00  0.00    +0.000 A 
ATOM     25  C   UNL     1       2.315   3.142  20.265  0.00  0.00    +0.000 A 
ATOM     26  C   UNL     1       0.982   3.073  19.878  0.00  0.00    +0.000 A 
ATOM     27  C   UNL     1       0.669   3.348  18.559  0.00  0.00    +0.000 A 
ATOM     28  N   UNL     1       1.566   3.793  17.658  0.00  0.00    +0.000 NA
ATOM     29  C   UNL     1       2.845   3.960  18.081  0.00  0.00    +0.000 A 
ENDBRANCH  18  20
ENDBRANCH  17  18
ENDBRANCH   7  17
TORSDOF 7
ENDMDL
