MODEL 1
REMARK VINA RESULT:      -8.5      0.000      0.000
REMARK  Name = 
REMARK  8 active torsions:
REMARK  status: ('A' for Active; 'I' for Inactive)
REMARK    1  A    between atoms: C_2  and  C_3
REMARK    2  A    between atoms: N_5  and  C_6
REMARK    3  A    between atoms: C_9  and  C_10
REMARK    4  A    between atoms: C_10  and  O_12
REMARK    5  A    between atoms: C_16  and  C_17
REMARK    6  A    between atoms: C_21  and  O_22
REMARK    7  A    between atoms: O_22  and  C_23
REMARK    8  A    between atoms: C_23  and  C_24
REMARK                            x       y       z     vdW  Elec       q    Type
REMARK                         _______ _______ _______ _____ _____    ______ ____
ROOT
ATOM      1  C   UNL     1       2.178   7.937  18.978  0.00  0.00    +0.000 A 
ATOM      2  C   UNL     1       1.473   9.074  19.325  0.00  0.00    +0.000 A 
ATOM      3  N   UNL     1       0.808   8.851  20.515  0.00  0.00    +0.000 N 
ATOM      4  C   UNL     1       1.081   7.551  20.891  0.00  0.00    +0.000 A 
ATOM      5  C   UNL     1       1.925   6.956  19.970  0.00  0.00    +0.000 A 
ENDROOT
BRANCH   3   6
ATOM      6  C   UNL     1      -0.007   9.781  21.231  0.00  0.00    +0.000 A 
ATOM      7  C   UNL     1      -0.289   9.587  22.590  0.00  0.00    +0.000 A 
ATOM      8  C   UNL     1      -1.086  10.505  23.283  0.00  0.00    +0.000 A 
ATOM      9  C   UNL     1      -1.620  11.621  22.630  0.00  0.00    +0.000 A 
ATOM     10  C   UNL     1      -1.331  11.829  21.279  0.00  0.00    +0.000 A 
ATOM     11  C   UNL     1      -0.536  10.910  20.584  0.00  0.00    +0.000 A 
BRANCH   9  12
ATOM     12  C   UNL     1      -2.430  12.577  23.427  0.00  0.00    +0.000 C 
ATOM     13  O   UNL     1      -2.036  13.696  23.709  0.00  0.00    +0.000 OA
BRANCH  12  14
ATOM     14  O   UNL     1      -3.616  12.090  23.843  0.00  0.00    +0.000 OA
ATOM     15  H   UNL     1      -3.843  11.200  23.519  0.00  0.00    +0.000 HD
ENDBRANCH  12  14
ENDBRANCH   9  12
ENDBRANCH   3   6
BRANCH   5  16
ATOM     16  C   UNL     1       2.370   5.573  20.104  0.00  0.00    +0.000 A 
ATOM     17  C   UNL     1       1.549   4.617  20.712  0.00  0.00    +0.000 A 
ATOM     18  C   UNL     1       1.987   3.300  20.862  0.00  0.00    +0.000 A 
ATOM     19  C   UNL     1       3.246   2.925  20.401  0.00  0.00    +0.000 A 
ATOM     20  C   UNL     1       4.059   3.857  19.761  0.00  0.00    +0.000 A 
ATOM     21  C   UNL     1       3.633   5.180  19.636  0.00  0.00    +0.000 A 
BRANCH  20  22
ATOM     22  O   UNL     1       5.290   3.581  19.227  0.00  0.00    +0.000 OA
BRANCH  22  23
ATOM     23  C   UNL     1       5.983   4.720  18.714  0.00  0.00    +0.000 C 
BRANCH  23  24
ATOM     24  C   UNL     1       6.098   4.594  17.217  0.00  0.00    +0.000 A 
ATOM     25  C   UNL     1       7.228   5.081  16.543  0.00  0.00    +0.000 A 
ATOM     26  C   UNL     1       7.343   4.924  15.162  0.00  0.00    +0.000 A 
ATOM     27  C   UNL     1       6.333   4.279  14.458  0.00  0.00    +0.000 A 
ATOM     28  F   UNL     1       6.447   4.131  13.130  0.00  0.00    +0.000 F 
ATOM     29  C   UNL     1       5.211   3.781  15.108  0.00  0.00    +0.000 A 
ATOM     30  C   UNL     1       5.093   3.937  16.489  0.00  0.00    +0.000 A 
ENDBRANCH  23  24
ENDBRANCH  22  23
ENDBRANCH  20  22
ENDBRANCH   5  16
BRANCH   1  32
ATOM     31  N   UNL     1       3.675   7.743  16.872  0.00  0.00    +0.000 NA
ATOM     32  C   UNL     1       3.009   7.836  17.817  0.00  0.00    +0.000 C 
ENDBRANCH   1  32
TORSDOF 8
ENDMDL
MODEL 2
REMARK VINA RESULT:      -8.2      1.719      2.319
REMARK  Name = 
REMARK  8 active torsions:
REMARK  status: ('A' for Active; 'I' for Inactive)
REMARK    1  A    between atoms: C_2  and  C_3
REMARK    2  A    between atoms: N_5  and  C_6
REMARK    3  A    between atoms: C_9  and  C_10
REMARK    4  A    between atoms: C_10  and  O_12
REMARK    5  A    between atoms: C_16  and  C_17
REMARK    6  A    between atoms: C_21  and  O_22
REMARK    7  A    between atoms: O_22  and  C_23
REMARK    8  A    between atoms: C_23  and  C_24
REMARK                            x       y       z     vdW  Elec       q    Type
REMARK                         _______ _______ _______ _____ _____    ______ ____
ROOT
ATOM      1  C   UNL     1       2.119   8.083  18.929  0.00  0.00    +0.000 A 
ATOM      2  C   UNL     1       1.525   9.272  19.307  0.00  0.00    +0.000 A 
ATOM      3  N   UNL     1       0.964   9.122  20.561  0.00  0.00    +0.000 N 
ATOM      4  C   UNL     1       1.187   7.815  20.947  0.00  0.00    +0.000 A 
ATOM      5  C   UNL     1       1.898   7.143  19.969  0.00  0.00    +0.000 A 
ENDROOT
BRANCH   3   6
ATOM      6  C   UNL     1       0.283  10.120  21.323  0.00  0.00    +0.000 A 
ATOM      7  C   UNL     1       0.334  11.468  20.944  0.00  0.00    +0.000 A 
ATOM      8  C   UNL     1      -0.339  12.438  21.695  0.00  0.00    +0.000 A 
ATOM      9  C   UNL     1      -1.062  12.080  22.837  0.00  0.00    +0.000 A 
ATOM     10  C   UNL     1      -1.130  10.736  23.214  0.00  0.00    +0.000 A 
ATOM     11  C   UNL     1      -0.455   9.764  22.464  0.00  0.00    +0.000 A 
BRANCH   9  12
ATOM     12  C   UNL     1      -1.783  13.150  23.573  0.00  0.00    +0.000 C 
ATOM     13  O   UNL     1      -2.991  13.136  23.736  0.00  0.00    +0.000 OA
BRANCH  12  14
ATOM     14  O   UNL     1      -0.994  14.152  24.011  0.00  0.00    +0.000 OA
ATOM     15  H   UNL     1      -1.345  15.051  23.884  0.00  0.00    +0.000 HD
ENDBRANCH  12  14
ENDBRANCH   9  12
ENDBRANCH   3   6
BRANCH   5  16
ATOM     16  C   UNL     1       2.262   5.737  20.100  0.00  0.00    +0.000 A 
ATOM     17  C   UNL     1       1.338   4.804  20.582  0.00  0.00    +0.000 A 
ATOM     18  C   UNL     1       1.697   3.464  20.731  0.00  0.00    +0.000 A 
ATOM     19  C   UNL     1       2.980   3.041  20.394  0.00  0.00    +0.000 A 
ATOM     20  C   UNL     1       3.900   3.951  19.879  0.00  0.00    +0.000 A 
ATOM     21  C   UNL     1       3.550   5.297  19.756  0.00  0.00    +0.000 A 
BRANCH  20  22
ATOM     22  O   UNL     1       5.167   3.632  19.471  0.00  0.00    +0.000 OA
BRANCH  22  23
ATOM     23  C   UNL     1       5.465   3.993  18.121  0.00  0.00    +0.000 C 
BRANCH  23  24
ATOM     24  C   UNL     1       6.304   5.244  18.118  0.00  0.00    +0.000 A 
ATOM     25  C   UNL     1       7.299   5.440  19.087  0.00  0.00    +0.000 A 
ATOM     26  C   UNL     1       8.097   6.583  19.053  0.00  0.00    +0.000 A 
ATOM     27  C   UNL     1       7.903   7.525  18.050  0.00  0.00    +0.000 A 
ATOM     28  F   UNL     1       8.671   8.624  18.020  0.00  0.00    +0.000 F 
ATOM     29  C   UNL     1       6.929   7.345  17.075  0.00  0.00    +0.000 A 
ATOM     30  C   UNL     1       6.130   6.203  17.107  0.00  0.00    +0.000 A 
ENDBRANCH  23  24
ENDBRANCH  22  23
ENDBRANCH  20  22
ENDBRANCH   5  16
BRANCH   1  32
ATOM     31  N   UNL     1       3.390   7.742  16.697  0.00  0.00    +0.000 NA
ATOM     32  C   UNL     1       2.826   7.899  17.699  0.00  0.00    +0.000 C 
ENDBRANCH   1  32
TORSDOF 8
ENDMDL
MODEL 3
REMARK VINA RESULT:      -8.2      1.733      2.324
REMARK  Name = 
REMARK  8 active torsions:
REMARK  status: ('A' for Active; 'I' for Inactive)
REMARK    1  A    between atoms: C_2  and  C_3
REMARK    2  A    between atoms: N_5  and  C_6
REMARK    3  A    between atoms: C_9  and  C_10
REMARK    4  A    between atoms: C_10  and  O_12
REMARK    5  A    between atoms: C_16  and  C_17
REMARK    6  A    between atoms: C_21  and  O_22
REMARK    7  A    between atoms: O_22  and  C_23
REMARK    8  A    between atoms: C_23  and  C_24
REMARK                            x       y       z     vdW  Elec       q    Type
REMARK                         _______ _______ _______ _____ _____    ______ ____
ROOT
ATOM      1  C   UNL     1       2.142   8.061  18.945  0.00  0.00    +0.000 A 
ATOM      2  C   UNL     1       1.554   9.255  19.318  0.00  0.00    +0.000 A 
ATOM      3  N   UNL     1       0.977   9.108  20.564  0.00  0.00    +0.000 N 
ATOM      4  C   UNL     1       1.184   7.799  20.952  0.00  0.00    +0.000 A 
ATOM      5  C   UNL     1       1.901   7.123  19.982  0.00  0.00    +0.000 A 
ENDROOT
BRANCH   3   6
ATOM      6  C   UNL     1       0.295  10.112  21.319  0.00  0.00    +0.000 A 
ATOM      7  C   UNL     1       0.388  11.463  20.960  0.00  0.00    +0.000 A 
ATOM      8  C   UNL     1      -0.286  12.439  21.704  0.00  0.00    +0.000 A 
ATOM      9  C   UNL     1      -1.053  12.081  22.819  0.00  0.00    +0.000 A 
ATOM     10  C   UNL     1      -1.162  10.735  23.173  0.00  0.00    +0.000 A 
ATOM     11  C   UNL     1      -0.486   9.758  22.431  0.00  0.00    +0.000 A 
BRANCH   9  12
ATOM     12  C   UNL     1      -1.772  13.158  23.547  0.00  0.00    +0.000 C 
ATOM     13  O   UNL     1      -1.218  14.172  23.935  0.00  0.00    +0.000 OA
BRANCH  12  14
ATOM     14  O   UNL     1      -3.076  12.900  23.775  0.00  0.00    +0.000 OA
ATOM     15  H   UNL     1      -3.262  12.270  24.493  0.00  0.00    +0.000 HD
ENDBRANCH  12  14
ENDBRANCH   9  12
ENDBRANCH   3   6
BRANCH   5  16
ATOM     16  C   UNL     1       2.252   5.714  20.116  0.00  0.00    +0.000 A 
ATOM     17  C   UNL     1       1.347   4.804  20.674  0.00  0.00    +0.000 A 
ATOM     18  C   UNL     1       1.695   3.461  20.826  0.00  0.00    +0.000 A 
ATOM     19  C   UNL     1       2.947   3.012  20.415  0.00  0.00    +0.000 A 
ATOM     20  C   UNL     1       3.846   3.898  19.826  0.00  0.00    +0.000 A 
ATOM     21  C   UNL     1       3.509   5.247  19.699  0.00  0.00    +0.000 A 
BRANCH  20  22
ATOM     22  O   UNL     1       5.079   3.552  19.343  0.00  0.00    +0.000 OA
BRANCH  22  23
ATOM     23  C   UNL     1       5.353   4.019  18.021  0.00  0.00    +0.000 C 
BRANCH  23  24
ATOM     24  C   UNL     1       6.301   5.188  18.097  0.00  0.00    +0.000 A 
ATOM     25  C   UNL     1       6.225   6.234  17.166  0.00  0.00    +0.000 A 
ATOM     26  C   UNL     1       7.081   7.328  17.268  0.00  0.00    +0.000 A 
ATOM     27  C   UNL     1       8.009   7.380  18.301  0.00  0.00    +0.000 A 
ATOM     28  F   UNL     1       8.832   8.435  18.397  0.00  0.00    +0.000 F 
ATOM     29  C   UNL     1       8.095   6.359  19.240  0.00  0.00    +0.000 A 
ATOM     30  C   UNL     1       7.240   5.263  19.140  0.00  0.00    +0.000 A 
ENDBRANCH  23  24
ENDBRANCH  22  23
ENDBRANCH  20  22
ENDBRANCH   5  16
BRANCH   1  32
ATOM     31  N   UNL     1       3.445   7.706  16.734  0.00  0.00    +0.000 NA
ATOM     32  C   UNL     1       2.862   7.872  17.723  0.00  0.00    +0.000 C 
ENDBRANCH   1  32
TORSDOF 8
ENDMDL
MODEL 4
REMARK VINA RESULT:      -8.0      4.731     10.876
REMARK  Name = 
REMARK  8 active torsions:
REMARK  status: ('A' for Active; 'I' for Inactive)
REMARK    1  A    between atoms: C_2  and  C_3
REMARK    2  A    between atoms: N_5  and  C_6
REMARK    3  A    between atoms: C_9  and  C_10
REMARK    4  A    between atoms: C_10  and  O_12
REMARK    5  A    between atoms: C_16  and  C_17
REMARK    6  A    between atoms: C_21  and  O_22
REMARK    7  A    between atoms: O_22  and  C_23
REMARK    8  A    between atoms: C_23  and  C_24
REMARK                            x       y       z     vdW  Elec       q    Type
REMARK                         _______ _______ _______ _____ _____    ______ ____
ROOT
ATOM      1  C   UNL     1       1.307   8.436  20.152  0.00  0.00    +0.000 A 
ATOM      2  C   UNL     1       2.193   7.410  19.883  0.00  0.00    +0.000 A 
ATOM      3  N   UNL     1       2.640   7.524  18.581  0.00  0.00    +0.000 N 
ATOM      4  C   UNL     1       1.999   8.616  18.030  0.00  0.00    +0.000 A 
ATOM      5  C   UNL     1       1.171   9.206  18.969  0.00  0.00    +0.000 A 
ENDROOT
BRANCH   3   6
ATOM      6  C   UNL     1       3.586   6.682  17.920  0.00  0.00    +0.000 A 
ATOM      7  C   UNL     1       4.455   7.203  16.953  0.00  0.00    +0.000 A 
ATOM      8  C   UNL     1       5.381   6.371  16.313  0.00  0.00    +0.000 A 
ATOM      9  C   UNL     1       5.445   5.008  16.623  0.00  0.00    +0.000 A 
ATOM     10  C   UNL     1       4.593   4.483  17.596  0.00  0.00    +0.000 A 
ATOM     11  C   UNL     1       3.664   5.315  18.236  0.00  0.00    +0.000 A 
BRANCH   9  12
ATOM     12  C   UNL     1       6.471   4.182  15.935  0.00  0.00    +0.000 C 
ATOM     13  O   UNL     1       6.230   3.541  14.927  0.00  0.00    +0.000 OA
BRANCH  12  14
ATOM     14  O   UNL     1       7.676   4.174  16.541  0.00  0.00    +0.000 OA
ATOM     15  H   UNL     1       7.980   5.031  16.888  0.00  0.00    +0.000 HD
ENDBRANCH  12  14
ENDBRANCH   9  12
ENDBRANCH   3   6
BRANCH   5  16
ATOM     16  C   UNL     1       0.355  10.374  18.659  0.00  0.00    +0.000 A 
ATOM     17  C   UNL     1       0.772  11.656  19.036  0.00  0.00    +0.000 A 
ATOM     18  C   UNL     1      -0.023  12.769  18.761  0.00  0.00    +0.000 A 
ATOM     19  C   UNL     1      -1.240  12.614  18.102  0.00  0.00    +0.000 A 
ATOM     20  C   UNL     1      -1.652  11.349  17.689  0.00  0.00    +0.000 A 
ATOM     21  C   UNL     1      -0.870  10.232  17.989  0.00  0.00    +0.000 A 
BRANCH  20  22
ATOM     22  O   UNL     1      -2.803  11.093  16.993  0.00  0.00    +0.000 OA
BRANCH  22  23
ATOM     23  C   UNL     1      -3.886  10.612  17.791  0.00  0.00    +0.000 C 
BRANCH  23  24
ATOM     24  C   UNL     1      -4.815  11.757  18.102  0.00  0.00    +0.000 A 
ATOM     25  C   UNL     1      -5.676  12.266  17.118  0.00  0.00    +0.000 A 
ATOM     26  C   UNL     1      -6.560  13.299  17.426  0.00  0.00    +0.000 A 
ATOM     27  C   UNL     1      -6.586  13.819  18.715  0.00  0.00    +0.000 A 
ATOM     28  F   UNL     1      -7.437  14.813  19.008  0.00  0.00    +0.000 F 
ATOM     29  C   UNL     1      -5.748  13.322  19.707  0.00  0.00    +0.000 A 
ATOM     30  C   UNL     1      -4.863  12.289  19.401  0.00  0.00    +0.000 A 
ENDBRANCH  23  24
ENDBRANCH  22  23
ENDBRANCH  20  22
ENDBRANCH   5  16
BRANCH   1  32
ATOM     31  N   UNL     1       0.186   8.801  22.460  0.00  0.00    +0.000 NA
ATOM     32  C   UNL     1       0.682   8.639  21.423  0.00  0.00    +0.000 C 
ENDBRANCH   1  32
TORSDOF 8
ENDMDL
MODEL 5
REMARK VINA RESULT:      -8.0      4.612     10.477
REMARK  Name = 
REMARK  8 active torsions:
REMARK  status: ('A' for Active; 'I' for Inactive)
REMARK    1  A    between atoms: C_2  and  C_3
REMARK    2  A    between atoms: N_5  and  C_6
REMARK    3  A    between atoms: C_9  and  C_10
REMARK    4  A    between atoms: C_10  and  O_12
REMARK    5  A    between atoms: C_16  and  C_17
REMARK    6  A    between atoms: C_21  and  O_22
REMARK    7  A    between atoms: O_22  and  C_23
REMARK    8  A    between atoms: C_23  and  C_24
REMARK                            x       y       z     vdW  Elec       q    Type
REMARK                         _______ _______ _______ _____ _____    ______ ____
ROOT
ATOM      1  C   UNL     1       0.537   9.189  21.467  0.00  0.00    +0.000 A 
ATOM      2  C   UNL     1       1.112   7.943  21.632  0.00  0.00    +0.000 A 
ATOM      3  N   UNL     1       1.593   7.500  20.415  0.00  0.00    +0.000 N 
ATOM      4  C   UNL     1       1.283   8.470  19.482  0.00  0.00    +0.000 A 
ATOM      5  C   UNL     1       0.634   9.528  20.093  0.00  0.00    +0.000 A 
ENDROOT
BRANCH   3   6
ATOM      6  C   UNL     1       2.282   6.275  20.158  0.00  0.00    +0.000 A 
ATOM      7  C   UNL     1       1.849   5.075  20.737  0.00  0.00    +0.000 A 
ATOM      8  C   UNL     1       2.529   3.880  20.477  0.00  0.00    +0.000 A 
ATOM      9  C   UNL     1       3.654   3.867  19.645  0.00  0.00    +0.000 A 
ATOM     10  C   UNL     1       4.083   5.056  19.053  0.00  0.00    +0.000 A 
ATOM     11  C   UNL     1       3.405   6.254  19.314  0.00  0.00    +0.000 A 
BRANCH   9  12
ATOM     12  C   UNL     1       4.313   2.562  19.380  0.00  0.00    +0.000 C 
ATOM     13  O   UNL     1       5.011   2.000  20.205  0.00  0.00    +0.000 OA
BRANCH  12  14
ATOM     14  O   UNL     1       4.103   2.075  18.140  0.00  0.00    +0.000 OA
ATOM     15  H   UNL     1       3.560   1.269  18.090  0.00  0.00    +0.000 HD
ENDBRANCH  12  14
ENDBRANCH   9  12
ENDBRANCH   3   6
BRANCH   5  16
ATOM     16  C   UNL     1       0.173  10.692  19.345  0.00  0.00    +0.000 A 
ATOM     17  C   UNL     1       0.876  11.901  19.405  0.00  0.00    +0.000 A 
ATOM     18  C   UNL     1       0.418  13.021  18.709  0.00  0.00    +0.000 A 
ATOM     19  C   UNL     1      -0.741  12.942  17.941  0.00  0.00    +0.000 A 
ATOM     20  C   UNL     1      -1.431  11.737  17.844  0.00  0.00    +0.000 A 
ATOM     21  C   UNL     1      -0.989  10.624  18.562  0.00  0.00    +0.000 A 
BRANCH  20  22
ATOM     22  O   UNL     1      -2.550  11.538  17.079  0.00  0.00    +0.000 OA
BRANCH  22  23
ATOM     23  C   UNL     1      -3.597  10.821  17.735  0.00  0.00    +0.000 C 
BRANCH  23  24
ATOM     24  C   UNL     1      -4.702  11.781  18.093  0.00  0.00    +0.000 A 
ATOM     25  C   UNL     1      -4.830  12.269  19.402  0.00  0.00    +0.000 A 
ATOM     26  C   UNL     1      -5.832  13.186  19.714  0.00  0.00    +0.000 A 
ATOM     27  C   UNL     1      -6.702  13.617  18.719  0.00  0.00    +0.000 A 
ATOM     28  F   UNL     1      -7.665  14.499  19.023  0.00  0.00    +0.000 F 
ATOM     29  C   UNL     1      -6.587  13.153  17.414  0.00  0.00    +0.000 A 
ATOM     30  C   UNL     1      -5.586  12.235  17.099  0.00  0.00    +0.000 A 
ENDBRANCH  23  24
ENDBRANCH  22  23
ENDBRANCH  20  22
ENDBRANCH   5  16
BRANCH   1  32
ATOM     31  N   UNL     1      -0.498  10.572  23.399  0.00  0.00    +0.000 NA
ATOM     32  C   UNL     1      -0.028   9.956  22.535  0.00  0.00    +0.000 C 
ENDBRANCH   1  32
TORSDOF 8
ENDMDL
MODEL 6
REMARK VINA RESULT:      -7.9      3.923      9.729
REMARK  Name = 
REMARK  8 active torsions:
REMARK  status: ('A' for Active; 'I' for Inactive)
REMARK    1  A    between atoms: C_2  and  C_3
REMARK    2  A    between atoms: N_5  and  C_6
REMARK    3  A    between atoms: C_9  and  C_10
REMARK    4  A    between atoms: C_10  and  O_12
REMARK    5  A    between atoms: C_16  and  C_17
REMARK    6  A    between atoms: C_21  and  O_22
REMARK    7  A    between atoms: O_22  and  C_23
REMARK    8  A    between atoms: C_23  and  C_24
REMARK                            x       y       z     vdW  Elec       q    Type
REMARK                         _______ _______ _______ _____ _____    ______ ____
ROOT
ATOM      1  C   UNL     1       2.633   5.166  19.726  0.00  0.00    +0.000 A 
ATOM      2  C   UNL     1       3.400   4.554  18.753  0.00  0.00    +0.000 A 
ATOM      3  N   UNL     1       3.805   5.501  17.832  0.00  0.00    +0.000 N 
ATOM      4  C   UNL     1       3.255   6.705  18.224  0.00  0.00    +0.000 A 
ATOM      5  C   UNL     1       2.528   6.540  19.389  0.00  0.00    +0.000 A 
ENDROOT
BRANCH   3   6
ATOM      6  C   UNL     1       4.636   5.287  16.688  0.00  0.00    +0.000 A 
ATOM      7  C   UNL     1       5.029   3.993  16.322  0.00  0.00    +0.000 A 
ATOM      8  C   UNL     1       5.840   3.794  15.199  0.00  0.00    +0.000 A 
ATOM      9  C   UNL     1       6.277   4.881  14.433  0.00  0.00    +0.000 A 
ATOM     10  C   UNL     1       5.877   6.172  14.784  0.00  0.00    +0.000 A 
ATOM     11  C   UNL     1       5.067   6.373  15.909  0.00  0.00    +0.000 A 
BRANCH   9  12
ATOM     12  C   UNL     1       7.107   4.603  13.234  0.00  0.00    +0.000 C 
ATOM     13  O   UNL     1       7.949   5.383  12.822  0.00  0.00    +0.000 OA
BRANCH  12  14
ATOM     14  O   UNL     1       6.825   3.435  12.620  0.00  0.00    +0.000 OA
ATOM     15  H   UNL     1       5.880   3.218  12.541  0.00  0.00    +0.000 HD
ENDBRANCH  12  14
ENDBRANCH   9  12
ENDBRANCH   3   6
BRANCH   5  16
ATOM     16  C   UNL     1       1.821   7.644  20.026  0.00  0.00    +0.000 A 
ATOM     17  C   UNL     1       1.716   7.715  21.420  0.00  0.00    +0.000 A 
ATOM     18  C   UNL     1       1.017   8.759  22.026  0.00  0.00    +0.000 A 
ATOM     19  C   UNL     1       0.421   9.747  21.247  0.00  0.00    +0.000 A 
ATOM     20  C   UNL     1       0.547   9.710  19.860  0.00  0.00    +0.000 A 
ATOM     21  C   UNL     1       1.222   8.651  19.252  0.00  0.00    +0.000 A 
BRANCH  20  22
ATOM     22  O   UNL     1       0.043  10.656  19.007  0.00  0.00    +0.000 OA
BRANCH  22  23
ATOM     23  C   UNL     1      -1.304  11.045  19.279  0.00  0.00    +0.000 C 
BRANCH  23  24
ATOM     24  C   UNL     1      -2.144  10.807  18.052  0.00  0.00    +0.000 A 
ATOM     25  C   UNL     1      -3.357  11.488  17.871  0.00  0.00    +0.000 A 
ATOM     26  C   UNL     1      -4.108  11.290  16.714  0.00  0.00    +0.000 A 
ATOM     27  C   UNL     1      -3.646  10.415  15.738  0.00  0.00    +0.000 A 
ATOM     28  F   UNL     1      -4.371  10.226  14.626  0.00  0.00    +0.000 F 
ATOM     29  C   UNL     1      -2.443   9.737  15.892  0.00  0.00    +0.000 A 
ATOM     30  C   UNL     1      -1.690   9.934  17.049  0.00  0.00    +0.000 A 
ENDBRANCH  23  24
ENDBRANCH  22  23
ENDBRANCH  20  22
ENDBRANCH   5  16
BRANCH   1  32
ATOM     31  N   UNL     1       1.623   3.928  21.766  0.00  0.00    +0.000 NA
ATOM     32  C   UNL     1       2.082   4.482  20.856  0.00  0.00    +0.000 C 
ENDBRANCH   1  32
TORSDOF 8
ENDMDL
MODEL 7
REMARK VINA RESULT:      -7.9      3.806      9.731
REMARK  Name = 
REMARK  8 active torsions:
REMARK  status: ('A' for Active; 'I' for Inactive)
REMARK    1  A    between atoms: C_2  and  C_3
REMARK    2  A    between atoms: N_5  and  C_6
REMARK    3  A    between atoms: C_9  and  C_10
REMARK    4  A    between atoms: C_10  and  O_12
REMARK    5  A    between atoms: C_16  and  C_17
REMARK    6  A    between atoms: C_21  and  O_22
REMARK    7  A    between atoms: O_22  and  C_23
REMARK    8  A    between atoms: C_23  and  C_24
REMARK                            x       y       z     vdW  Elec       q    Type
REMARK                         _______ _______ _______ _____ _____    ______ ____
ROOT
ATOM      1  C   UNL     1       2.854   4.973  19.894  0.00  0.00    +0.000 A 
ATOM      2  C   UNL     1       3.671   4.425  18.923  0.00  0.00    +0.000 A 
ATOM      3  N   UNL     1       3.920   5.374  17.950  0.00  0.00    +0.000 N 
ATOM      4  C   UNL     1       3.224   6.511  18.309  0.00  0.00    +0.000 A 
ATOM      5  C   UNL     1       2.557   6.304  19.503  0.00  0.00    +0.000 A 
ENDROOT
BRANCH   3   6
ATOM      6  C   UNL     1       4.741   5.220  16.791  0.00  0.00    +0.000 A 
ATOM      7  C   UNL     1       5.163   6.338  16.059  0.00  0.00    +0.000 A 
ATOM      8  C   UNL     1       5.969   6.178  14.927  0.00  0.00    +0.000 A 
ATOM      9  C   UNL     1       6.358   4.902  14.504  0.00  0.00    +0.000 A 
ATOM     10  C   UNL     1       5.955   3.784  15.237  0.00  0.00    +0.000 A 
ATOM     11  C   UNL     1       5.145   3.943  16.369  0.00  0.00    +0.000 A 
BRANCH   9  12
ATOM     12  C   UNL     1       7.243   4.799  13.315  0.00  0.00    +0.000 C 
ATOM     13  O   UNL     1       7.028   4.019  12.403  0.00  0.00    +0.000 OA
BRANCH  12  14
ATOM     14  O   UNL     1       8.319   5.611  13.350  0.00  0.00    +0.000 OA
ATOM     15  H   UNL     1       8.138   6.541  13.569  0.00  0.00    +0.000 HD
ENDBRANCH  12  14
ENDBRANCH   9  12
ENDBRANCH   3   6
BRANCH   5  16
ATOM     16  C   UNL     1       1.725   7.333  20.116  0.00  0.00    +0.000 A 
ATOM     17  C   UNL     1       1.118   7.112  21.358  0.00  0.00    +0.000 A 
ATOM     18  C   UNL     1       0.301   8.088  21.930  0.00  0.00    +0.000 A 
ATOM     19  C   UNL     1       0.088   9.296  21.272  0.00  0.00    +0.000 A 
ATOM     20  C   UNL     1       0.713   9.545  20.053  0.00  0.00    +0.000 A 
ATOM     21  C   UNL     1       1.508   8.558  19.466  0.00  0.00    +0.000 A 
BRANCH  20  22
ATOM     22  O   UNL     1       0.611  10.714  19.348  0.00  0.00    +0.000 OA
BRANCH  22  23
ATOM     23  C   UNL     1      -0.566  11.474  19.625  0.00  0.00    +0.000 C 
BRANCH  23  24
ATOM     24  C   UNL     1      -1.590  11.205  18.553  0.00  0.00    +0.000 A 
ATOM     25  C   UNL     1      -1.304  10.331  17.493  0.00  0.00    +0.000 A 
ATOM     26  C   UNL     1      -2.272  10.059  16.528  0.00  0.00    +0.000 A 
ATOM     27  C   UNL     1      -3.523  10.656  16.623  0.00  0.00    +0.000 A 
ATOM     28  F   UNL     1      -4.452  10.392  15.692  0.00  0.00    +0.000 F 
ATOM     29  C   UNL     1      -3.830  11.517  17.669  0.00  0.00    +0.000 A 
ATOM     30  C   UNL     1      -2.864  11.791  18.636  0.00  0.00    +0.000 A 
ENDBRANCH  23  24
ENDBRANCH  22  23
ENDBRANCH  20  22
ENDBRANCH   5  16
BRANCH   1  32
ATOM     31  N   UNL     1       2.076   3.716  22.022  0.00  0.00    +0.000 NA
ATOM     32  C   UNL     1       2.430   4.274  21.069  0.00  0.00    +0.000 C 
ENDBRANCH   1  32
TORSDOF 8
ENDMDL
MODEL 8
REMARK VINA RESULT:      -7.9      0.667      1.537
REMARK  Name = 
REMARK  8 active torsions:
REMARK  status: ('A' for Active; 'I' for Inactive)
REMARK    1  A    between atoms: C_2  and  C_3
REMARK    2  A    between atoms: N_5  and  C_6
REMARK    3  A    between atoms: C_9  and  C_10
REMARK    4  A    between atoms: C_10  and  O_12
REMARK    5  A    between atoms: C_16  and  C_17
REMARK    6  A    between atoms: C_21  and  O_22
REMARK    7  A    between atoms: O_22  and  C_23
REMARK    8  A    between atoms: C_23  and  C_24
REMARK                            x       y       z     vdW  Elec       q    Type
REMARK                         _______ _______ _______ _____ _____    ______ ____
ROOT
ATOM      1  C   UNL     1       2.231   7.947  18.925  0.00  0.00    +0.000 A 
ATOM      2  C   UNL     1       1.535   9.096  19.251  0.00  0.00    +0.000 A 
ATOM      3  N   UNL     1       0.879   8.904  20.452  0.00  0.00    +0.000 N 
ATOM      4  C   UNL     1       1.147   7.611  20.855  0.00  0.00    +0.000 A 
ATOM      5  C   UNL     1       1.980   6.990  19.941  0.00  0.00    +0.000 A 
ENDROOT
BRANCH   3   6
ATOM      6  C   UNL     1       0.074   9.855  21.153  0.00  0.00    +0.000 A 
ATOM      7  C   UNL     1      -0.489  10.948  20.482  0.00  0.00    +0.000 A 
ATOM      8  C   UNL     1      -1.278  11.872  21.176  0.00  0.00    +0.000 A 
ATOM      9  C   UNL     1      -1.508  11.723  22.549  0.00  0.00    +0.000 A 
ATOM     10  C   UNL     1      -0.962  10.628  23.221  0.00  0.00    +0.000 A 
ATOM     11  C   UNL     1      -0.170   9.704  22.528  0.00  0.00    +0.000 A 
BRANCH   9  12
ATOM     12  C   UNL     1      -2.381  12.717  23.224  0.00  0.00    +0.000 C 
ATOM     13  O   UNL     1      -3.597  12.629  23.225  0.00  0.00    +0.000 OA
BRANCH  12  14
ATOM     14  O   UNL     1      -1.718  13.741  23.799  0.00  0.00    +0.000 OA
ATOM     15  H   UNL     1      -2.192  14.203  24.512  0.00  0.00    +0.000 HD
ENDBRANCH  12  14
ENDBRANCH   9  12
ENDBRANCH   3   6
BRANCH   5  16
ATOM     16  C   UNL     1       2.418   5.609  20.103  0.00  0.00    +0.000 A 
ATOM     17  C   UNL     1       1.894   4.810  21.127  0.00  0.00    +0.000 A 
ATOM     18  C   UNL     1       2.333   3.497  21.295  0.00  0.00    +0.000 A 
ATOM     19  C   UNL     1       3.294   2.965  20.440  0.00  0.00    +0.000 A 
ATOM     20  C   UNL     1       3.799   3.735  19.395  0.00  0.00    +0.000 A 
ATOM     21  C   UNL     1       3.381   5.058  19.243  0.00  0.00    +0.000 A 
BRANCH  20  22
ATOM     22  O   UNL     1       4.707   3.295  18.470  0.00  0.00    +0.000 OA
BRANCH  22  23
ATOM     23  C   UNL     1       4.220   3.263  17.128  0.00  0.00    +0.000 C 
BRANCH  23  24
ATOM     24  C   UNL     1       5.270   3.832  16.208  0.00  0.00    +0.000 A 
ATOM     25  C   UNL     1       5.197   3.622  14.823  0.00  0.00    +0.000 A 
ATOM     26  C   UNL     1       6.152   4.185  13.978  0.00  0.00    +0.000 A 
ATOM     27  C   UNL     1       7.174   4.958  14.515  0.00  0.00    +0.000 A 
ATOM     28  F   UNL     1       8.091   5.498  13.699  0.00  0.00    +0.000 F 
ATOM     29  C   UNL     1       7.258   5.186  15.883  0.00  0.00    +0.000 A 
ATOM     30  C   UNL     1       6.305   4.624  16.731  0.00  0.00    +0.000 A 
ENDBRANCH  23  24
ENDBRANCH  22  23
ENDBRANCH  20  22
ENDBRANCH   5  16
BRANCH   1  32
ATOM     31  N   UNL     1       3.718   7.720  16.815  0.00  0.00    +0.000 NA
ATOM     32  C   UNL     1       3.051   7.814  17.760  0.00  0.00    +0.000 C 
ENDBRANCH   1  32
TORSDOF 8
ENDMDL
MODEL 9
REMARK VINA RESULT:      -7.9      3.139      4.718
REMARK  Name = 
REMARK  8 active torsions:
REMARK  status: ('A' for Active; 'I' for Inactive)
REMARK    1  A    between atoms: C_2  and  C_3
REMARK    2  A    between atoms: N_5  and  C_6
REMARK    3  A    between atoms: C_9  and  C_10
REMARK    4  A    between atoms: C_10  and  O_12
REMARK    5  A    between atoms: C_16  and  C_17
REMARK    6  A    between atoms: C_21  and  O_22
REMARK    7  A    between atoms: O_22  and  C_23
REMARK    8  A    between atoms: C_23  and  C_24
REMARK                            x       y       z     vdW  Elec       q    Type
REMARK                         _______ _______ _______ _____ _____    ______ ____
ROOT
ATOM      1  C   UNL     1      -1.410  10.878  18.903  0.00  0.00    +0.000 A 
ATOM      2  C   UNL     1      -2.074  11.760  19.735  0.00  0.00    +0.000 A 
ATOM      3  N   UNL     1      -1.366  11.895  20.913  0.00  0.00    +0.000 N 
ATOM      4  C   UNL     1      -0.268  11.062  20.820  0.00  0.00    +0.000 A 
ATOM      5  C   UNL     1      -0.259  10.420  19.595  0.00  0.00    +0.000 A 
ENDROOT
BRANCH   3   6
ATOM      6  C   UNL     1      -1.695  12.734  22.022  0.00  0.00    +0.000 A 
ATOM      7  C   UNL     1      -0.741  13.601  22.571  0.00  0.00    +0.000 A 
ATOM      8  C   UNL     1      -1.073  14.421  23.655  0.00  0.00    +0.000 A 
ATOM      9  C   UNL     1      -2.357  14.381  24.211  0.00  0.00    +0.000 A 
ATOM     10  C   UNL     1      -3.317  13.531  23.660  0.00  0.00    +0.000 A 
ATOM     11  C   UNL     1      -2.985  12.707  22.576  0.00  0.00    +0.000 A 
BRANCH   9  12
ATOM     12  C   UNL     1      -2.660  15.300  25.338  0.00  0.00    +0.000 C 
ATOM     13  O   UNL     1      -3.617  16.054  25.331  0.00  0.00    +0.000 OA
BRANCH  12  14
ATOM     14  O   UNL     1      -1.767  15.255  26.347  0.00  0.00    +0.000 OA
ATOM     15  H   UNL     1      -0.915  14.832  26.139  0.00  0.00    +0.000 HD
ENDBRANCH  12  14
ENDBRANCH   9  12
ENDBRANCH   3   6
BRANCH   5  16
ATOM     16  C   UNL     1       0.779   9.465  19.226  0.00  0.00    +0.000 A 
ATOM     17  C   UNL     1       1.471   9.595  18.017  0.00  0.00    +0.000 A 
ATOM     18  C   UNL     1       2.446   8.665  17.655  0.00  0.00    +0.000 A 
ATOM     19  C   UNL     1       2.745   7.600  18.500  0.00  0.00    +0.000 A 
ATOM     20  C   UNL     1       2.091   7.477  19.723  0.00  0.00    +0.000 A 
ATOM     21  C   UNL     1       1.095   8.391  20.073  0.00  0.00    +0.000 A 
BRANCH  20  22
ATOM     22  O   UNL     1       2.343   6.499  20.648  0.00  0.00    +0.000 OA
BRANCH  22  23
ATOM     23  C   UNL     1       1.403   5.423  20.647  0.00  0.00    +0.000 C 
BRANCH  23  24
ATOM     24  C   UNL     1       2.027   4.224  19.981  0.00  0.00    +0.000 A 
ATOM     25  C   UNL     1       3.417   4.142  19.811  0.00  0.00    +0.000 A 
ATOM     26  C   UNL     1       3.988   3.012  19.229  0.00  0.00    +0.000 A 
ATOM     27  C   UNL     1       3.171   1.963  18.822  0.00  0.00    +0.000 A 
ATOM     28  F   UNL     1       3.723   0.877  18.262  0.00  0.00    +0.000 F 
ATOM     29  C   UNL     1       1.793   2.020  18.990  0.00  0.00    +0.000 A 
ATOM     30  C   UNL     1       1.220   3.150  19.571  0.00  0.00    +0.000 A 
ENDBRANCH  23  24
ENDBRANCH  22  23
ENDBRANCH  20  22
ENDBRANCH   5  16
BRANCH   1  32
ATOM     31  N   UNL     1      -2.204  10.274  16.512  0.00  0.00    +0.000 NA
ATOM     32  C   UNL     1      -1.850  10.538  17.585  0.00  0.00    +0.000 C 
ENDBRANCH   1  32
TORSDOF 8
ENDMDL
