MODEL 1
REMARK VINA RESULT:      -7.0      0.000      0.000
REMARK  Name = 
REMARK  1 active torsions:
REMARK  status: ('A' for Active; 'I' for Inactive)
REMARK    1  A    between atoms: C_4  and  N_5
REMARK                            x       y       z     vdW  Elec       q    Type
REMARK                         _______ _______ _______ _____ _____    ______ ____
ROOT
ATOM      1  O   UNL     1       6.197   3.590  14.538  0.00  0.00    +0.000 OA
ATOM      2  C   UNL     1       5.879   4.244  15.518  0.00  0.00    +0.000 C 
ATOM      3  C   UNL     1       4.561   4.228  16.138  0.00  0.00    +0.000 C 
ATOM      4  C   UNL     1       4.606   5.023  17.205  0.00  0.00    +0.000 C 
ATOM      5  C   UNL     1       6.002   5.583  17.364  0.00  0.00    +0.000 C 
ATOM      6  C   UNL     1       6.715   5.021  18.610  0.00  0.00    +0.000 C 
ATOM      7  C   UNL     1       8.148   5.543  18.734  0.00  0.00    +0.000 C 
ATOM      8  C   UNL     1       8.184   7.067  18.729  0.00  0.00    +0.000 C 
ATOM      9  C   UNL     1       7.494   7.642  17.495  0.00  0.00    +0.000 C 
ATOM     10  C   UNL     1       6.063   7.116  17.339  0.00  0.00    +0.000 C 
ATOM     11  O   UNL     1       6.696   5.086  16.201  0.00  0.00    +0.000 OA
ENDROOT
BRANCH   4  12
ATOM     12  N   UNL     1       3.625   5.214  18.173  0.00  0.00    +0.000 N 
ATOM     13  C   UNL     1       2.723   6.381  18.144  0.00  0.00    +0.000 C 
ATOM     14  C   UNL     1       2.379   6.779  19.584  0.00  0.00    +0.000 C 
ATOM     15  C   UNL     1       1.798   5.603  20.372  0.00  0.00    +0.000 C 
ATOM     16  C   UNL     1       2.681   4.362  20.249  0.00  0.00    +0.000 C 
ATOM     17  C   UNL     1       2.978   4.041  18.787  0.00  0.00    +0.000 C 
ENDBRANCH   4  12
TORSDOF 1
ENDMDL
MODEL 2
REMARK VINA RESULT:      -6.9      1.401      1.976
REMARK  Name = 
REMARK  1 active torsions:
REMARK  status: ('A' for Active; 'I' for Inactive)
REMARK    1  A    between atoms: C_4  and  N_5
REMARK                            x       y       z     vdW  Elec       q    Type
REMARK                         _______ _______ _______ _____ _____    ______ ____
ROOT
ATOM      1  O   UNL     1       7.153   4.495  13.428  0.00  0.00    +0.000 OA
ATOM      2  C   UNL     1       6.611   4.707  14.502  0.00  0.00    +0.000 C 
ATOM      3  C   UNL     1       5.283   4.237  14.871  0.00  0.00    +0.000 C 
ATOM      4  C   UNL     1       5.055   4.617  16.127  0.00  0.00    +0.000 C 
ATOM      5  C   UNL     1       6.268   5.338  16.669  0.00  0.00    +0.000 C 
ATOM      6  C   UNL     1       6.980   4.529  17.772  0.00  0.00    +0.000 C 
ATOM      7  C   UNL     1       8.241   5.235  18.276  0.00  0.00    +0.000 C 
ATOM      8  C   UNL     1       7.930   6.649  18.754  0.00  0.00    +0.000 C 
ATOM      9  C   UNL     1       7.237   7.470  17.670  0.00  0.00    +0.000 C 
ATOM     10  C   UNL     1       5.981   6.772  17.136  0.00  0.00    +0.000 C 
ATOM     11  O   UNL     1       7.154   5.403  15.533  0.00  0.00    +0.000 OA
ENDROOT
BRANCH   4  12
ATOM     12  N   UNL     1       3.976   4.281  16.940  0.00  0.00    +0.000 N 
ATOM     13  C   UNL     1       3.848   2.942  17.546  0.00  0.00    +0.000 C 
ATOM     14  C   UNL     1       2.361   2.583  17.649  0.00  0.00    +0.000 C 
ATOM     15  C   UNL     1       1.573   3.652  18.408  0.00  0.00    +0.000 C 
ATOM     16  C   UNL     1       1.853   5.048  17.852  0.00  0.00    +0.000 C 
ATOM     17  C   UNL     1       3.353   5.320  17.779  0.00  0.00    +0.000 C 
ENDBRANCH   4  12
TORSDOF 1
ENDMDL
MODEL 3
REMARK VINA RESULT:      -6.9      2.101      3.526
REMARK  Name = 
REMARK  1 active torsions:
REMARK  status: ('A' for Active; 'I' for Inactive)
REMARK    1  A    between atoms: C_4  and  N_5
REMARK                            x       y       z     vdW  Elec       q    Type
REMARK                         _______ _______ _______ _____ _____    ______ ____
ROOT
ATOM      1  O   UNL     1       2.777   8.819  17.221  0.00  0.00    +0.000 OA
ATOM      2  C   UNL     1       3.054   7.732  17.703  0.00  0.00    +0.000 C 
ATOM      3  C   UNL     1       2.195   6.978  18.605  0.00  0.00    +0.000 C 
ATOM      4  C   UNL     1       2.807   5.827  18.878  0.00  0.00    +0.000 C 
ATOM      5  C   UNL     1       4.112   5.751  18.118  0.00  0.00    +0.000 C 
ATOM      6  C   UNL     1       4.079   4.677  17.013  0.00  0.00    +0.000 C 
ATOM      7  C   UNL     1       5.379   4.645  16.206  0.00  0.00    +0.000 C 
ATOM      8  C   UNL     1       6.588   4.453  17.115  0.00  0.00    +0.000 C 
ATOM      9  C   UNL     1       6.646   5.517  18.208  0.00  0.00    +0.000 C 
ATOM     10  C   UNL     1       5.344   5.581  19.016  0.00  0.00    +0.000 C 
ATOM     11  O   UNL     1       4.198   7.039  17.474  0.00  0.00    +0.000 OA
ENDROOT
BRANCH   4  12
ATOM     12  N   UNL     1       2.307   4.739  19.589  0.00  0.00    +0.000 N 
ATOM     13  C   UNL     1       2.127   4.786  21.052  0.00  0.00    +0.000 C 
ATOM     14  C   UNL     1       2.373   3.387  21.629  0.00  0.00    +0.000 C 
ATOM     15  C   UNL     1       1.488   2.335  20.957  0.00  0.00    +0.000 C 
ATOM     16  C   UNL     1       1.582   2.421  19.435  0.00  0.00    +0.000 C 
ATOM     17  C   UNL     1       1.328   3.845  18.947  0.00  0.00    +0.000 C 
ENDBRANCH   4  12
TORSDOF 1
ENDMDL
MODEL 4
REMARK VINA RESULT:      -6.9      2.564      5.384
REMARK  Name = 
REMARK  1 active torsions:
REMARK  status: ('A' for Active; 'I' for Inactive)
REMARK    1  A    between atoms: C_4  and  N_5
REMARK                            x       y       z     vdW  Elec       q    Type
REMARK                         _______ _______ _______ _____ _____    ______ ____
ROOT
ATOM      1  O   UNL     1       1.902   7.926  19.733  0.00  0.00    +0.000 OA
ATOM      2  C   UNL     1       2.459   7.021  19.131  0.00  0.00    +0.000 C 
ATOM      3  C   UNL     1       3.555   7.199  18.189  0.00  0.00    +0.000 C 
ATOM      4  C   UNL     1       3.932   5.991  17.775  0.00  0.00    +0.000 C 
ATOM      5  C   UNL     1       3.108   4.933  18.474  0.00  0.00    +0.000 C 
ATOM      6  C   UNL     1       3.949   4.100  19.462  0.00  0.00    +0.000 C 
ATOM      7  C   UNL     1       3.099   3.071  20.211  0.00  0.00    +0.000 C 
ATOM      8  C   UNL     1       2.345   2.167  19.242  0.00  0.00    +0.000 C 
ATOM      9  C   UNL     1       1.495   2.973  18.264  0.00  0.00    +0.000 C 
ATOM     10  C   UNL     1       2.323   4.025  17.517  0.00  0.00    +0.000 C 
ATOM     11  O   UNL     1       2.162   5.701  19.244  0.00  0.00    +0.000 OA
ENDROOT
BRANCH   4  12
ATOM     12  N   UNL     1       5.023   5.662  16.974  0.00  0.00    +0.000 N 
ATOM     13  C   UNL     1       5.052   5.980  15.534  0.00  0.00    +0.000 C 
ATOM     14  C   UNL     1       5.843   4.891  14.800  0.00  0.00    +0.000 C 
ATOM     15  C   UNL     1       7.242   4.711  15.394  0.00  0.00    +0.000 C 
ATOM     16  C   UNL     1       7.182   4.541  16.911  0.00  0.00    +0.000 C 
ATOM     17  C   UNL     1       6.375   5.662  17.560  0.00  0.00    +0.000 C 
ENDBRANCH   4  12
TORSDOF 1
ENDMDL
MODEL 5
REMARK VINA RESULT:      -6.7      2.509      5.346
REMARK  Name = 
REMARK  1 active torsions:
REMARK  status: ('A' for Active; 'I' for Inactive)
REMARK    1  A    between atoms: C_4  and  N_5
REMARK                            x       y       z     vdW  Elec       q    Type
REMARK                         _______ _______ _______ _____ _____    ______ ____
ROOT
ATOM      1  O   UNL     1       1.711   8.753  17.887  0.00  0.00    +0.000 OA
ATOM      2  C   UNL     1       2.293   7.684  17.982  0.00  0.00    +0.000 C 
ATOM      3  C   UNL     1       3.684   7.458  17.615  0.00  0.00    +0.000 C 
ATOM      4  C   UNL     1       3.977   6.192  17.903  0.00  0.00    +0.000 C 
ATOM      5  C   UNL     1       2.775   5.520  18.526  0.00  0.00    +0.000 C 
ATOM      6  C   UNL     1       3.000   5.189  20.015  0.00  0.00    +0.000 C 
ATOM      7  C   UNL     1       1.759   4.564  20.657  0.00  0.00    +0.000 C 
ATOM      8  C   UNL     1       1.302   3.328  19.889  0.00  0.00    +0.000 C 
ATOM      9  C   UNL     1       1.060   3.640  18.414  0.00  0.00    +0.000 C 
ATOM     10  C   UNL     1       2.284   4.286  17.755  0.00  0.00    +0.000 C 
ATOM     11  O   UNL     1       1.751   6.533  18.453  0.00  0.00    +0.000 OA
ENDROOT
BRANCH   4  12
ATOM     12  N   UNL     1       5.220   5.565  17.844  0.00  0.00    +0.000 N 
ATOM     13  C   UNL     1       6.075   5.427  19.038  0.00  0.00    +0.000 C 
ATOM     14  C   UNL     1       7.544   5.494  18.607  0.00  0.00    +0.000 C 
ATOM     15  C   UNL     1       7.865   4.459  17.527  0.00  0.00    +0.000 C 
ATOM     16  C   UNL     1       6.861   4.528  16.377  0.00  0.00    +0.000 C 
ATOM     17  C   UNL     1       5.427   4.459  16.894  0.00  0.00    +0.000 C 
ENDBRANCH   4  12
TORSDOF 1
ENDMDL
MODEL 6
REMARK VINA RESULT:      -6.7      1.661      3.592
REMARK  Name = 
REMARK  1 active torsions:
REMARK  status: ('A' for Active; 'I' for Inactive)
REMARK    1  A    between atoms: C_4  and  N_5
REMARK                            x       y       z     vdW  Elec       q    Type
REMARK                         _______ _______ _______ _____ _____    ______ ____
ROOT
ATOM      1  O   UNL     1       8.229   6.466  19.062  0.00  0.00    +0.000 OA
ATOM      2  C   UNL     1       7.283   5.826  18.627  0.00  0.00    +0.000 C 
ATOM      3  C   UNL     1       6.235   5.231  19.444  0.00  0.00    +0.000 C 
ATOM      4  C   UNL     1       5.357   4.661  18.622  0.00  0.00    +0.000 C 
ATOM      5  C   UNL     1       5.775   4.895  17.188  0.00  0.00    +0.000 C 
ATOM      6  C   UNL     1       4.811   5.844  16.449  0.00  0.00    +0.000 C 
ATOM      7  C   UNL     1       5.271   6.126  15.016  0.00  0.00    +0.000 C 
ATOM      8  C   UNL     1       5.467   4.832  14.234  0.00  0.00    +0.000 C 
ATOM      9  C   UNL     1       6.431   3.885  14.944  0.00  0.00    +0.000 C 
ATOM     10  C   UNL     1       6.000   3.604  16.388  0.00  0.00    +0.000 C 
ATOM     11  O   UNL     1       7.042   5.572  17.316  0.00  0.00    +0.000 OA
ENDROOT
BRANCH   4  12
ATOM     12  N   UNL     1       4.130   4.086  18.944  0.00  0.00    +0.000 N 
ATOM     13  C   UNL     1       4.032   2.711  19.468  0.00  0.00    +0.000 C 
ATOM     14  C   UNL     1       2.722   2.084  18.977  0.00  0.00    +0.000 C 
ATOM     15  C   UNL     1       1.511   2.944  19.344  0.00  0.00    +0.000 C 
ATOM     16  C   UNL     1       1.717   4.399  18.925  0.00  0.00    +0.000 C 
ATOM     17  C   UNL     1       3.043   4.941  19.451  0.00  0.00    +0.000 C 
ENDBRANCH   4  12
TORSDOF 1
ENDMDL
MODEL 7
REMARK VINA RESULT:      -6.6      2.674      5.075
REMARK  Name = 
REMARK  1 active torsions:
REMARK  status: ('A' for Active; 'I' for Inactive)
REMARK    1  A    between atoms: C_4  and  N_5
REMARK                            x       y       z     vdW  Elec       q    Type
REMARK                         _______ _______ _______ _____ _____    ______ ____
ROOT
ATOM      1  O   UNL     1       6.032   4.028  18.914  0.00  0.00    +0.000 OA
ATOM      2  C   UNL     1       4.932   4.520  19.110  0.00  0.00    +0.000 C 
ATOM      3  C   UNL     1       4.632   5.943  19.042  0.00  0.00    +0.000 C 
ATOM      4  C   UNL     1       3.328   6.093  19.263  0.00  0.00    +0.000 C 
ATOM      5  C   UNL     1       2.685   4.737  19.452  0.00  0.00    +0.000 C 
ATOM      6  C   UNL     1       1.745   4.372  18.286  0.00  0.00    +0.000 C 
ATOM      7  C   UNL     1       1.143   2.975  18.451  0.00  0.00    +0.000 C 
ATOM      8  C   UNL     1       0.427   2.836  19.790  0.00  0.00    +0.000 C 
ATOM      9  C   UNL     1       1.347   3.180  20.959  0.00  0.00    +0.000 C 
ATOM     10  C   UNL     1       1.978   4.569  20.803  0.00  0.00    +0.000 C 
ATOM     11  O   UNL     1       3.804   3.829  19.413  0.00  0.00    +0.000 OA
ENDROOT
BRANCH   4  12
ATOM     12  N   UNL     1       2.571   7.257  19.165  0.00  0.00    +0.000 N 
ATOM     13  C   UNL     1       2.086   7.969  20.363  0.00  0.00    +0.000 C 
ATOM     14  C   UNL     1       0.733   8.615  20.043  0.00  0.00    +0.000 C 
ATOM     15  C   UNL     1       0.816   9.520  18.812  0.00  0.00    +0.000 C 
ATOM     16  C   UNL     1       1.470   8.796  17.636  0.00  0.00    +0.000 C 
ATOM     17  C   UNL     1       2.805   8.180  18.041  0.00  0.00    +0.000 C 
ENDBRANCH   4  12
TORSDOF 1
ENDMDL
MODEL 8
REMARK VINA RESULT:      -6.6      2.575      5.490
REMARK  Name = 
REMARK  1 active torsions:
REMARK  status: ('A' for Active; 'I' for Inactive)
REMARK    1  A    between atoms: C_4  and  N_5
REMARK                            x       y       z     vdW  Elec       q    Type
REMARK                         _______ _______ _______ _____ _____    ______ ____
ROOT
ATOM      1  O   UNL     1       1.908   7.921  19.784  0.00  0.00    +0.000 OA
ATOM      2  C   UNL     1       2.390   6.949  19.222  0.00  0.00    +0.000 C 
ATOM      3  C   UNL     1       3.495   6.998  18.276  0.00  0.00    +0.000 C 
ATOM      4  C   UNL     1       3.773   5.747  17.916  0.00  0.00    +0.000 C 
ATOM      5  C   UNL     1       2.869   4.789  18.658  0.00  0.00    +0.000 C 
ATOM      6  C   UNL     1       3.641   3.936  19.684  0.00  0.00    +0.000 C 
ATOM      7  C   UNL     1       2.714   3.012  20.475  0.00  0.00    +0.000 C 
ATOM      8  C   UNL     1       1.888   2.129  19.545  0.00  0.00    +0.000 C 
ATOM      9  C   UNL     1       1.104   2.958  18.532  0.00  0.00    +0.000 C 
ATOM     10  C   UNL     1       2.012   3.906  17.740  0.00  0.00    +0.000 C 
ATOM     11  O   UNL     1       1.988   5.664  19.392  0.00  0.00    +0.000 OA
ENDROOT
BRANCH   4  12
ATOM     12  N   UNL     1       4.833   5.297  17.132  0.00  0.00    +0.000 N 
ATOM     13  C   UNL     1       6.232   5.389  17.593  0.00  0.00    +0.000 C 
ATOM     14  C   UNL     1       7.140   5.620  16.381  0.00  0.00    +0.000 C 
ATOM     15  C   UNL     1       6.940   4.545  15.311  0.00  0.00    +0.000 C 
ATOM     16  C   UNL     1       5.461   4.367  14.973  0.00  0.00    +0.000 C 
ATOM     17  C   UNL     1       4.630   4.147  16.234  0.00  0.00    +0.000 C 
ENDBRANCH   4  12
TORSDOF 1
ENDMDL
MODEL 9
REMARK VINA RESULT:      -6.6      2.640      4.962
REMARK  Name = 
REMARK  1 active torsions:
REMARK  status: ('A' for Active; 'I' for Inactive)
REMARK    1  A    between atoms: C_4  and  N_5
REMARK                            x       y       z     vdW  Elec       q    Type
REMARK                         _______ _______ _______ _____ _____    ______ ____
ROOT
ATOM      1  O   UNL     1       6.161   4.090  18.864  0.00  0.00    +0.000 OA
ATOM      2  C   UNL     1       5.043   4.527  19.088  0.00  0.00    +0.000 C 
ATOM      3  C   UNL     1       4.676   5.936  19.043  0.00  0.00    +0.000 C 
ATOM      4  C   UNL     1       3.371   6.021  19.292  0.00  0.00    +0.000 C 
ATOM      5  C   UNL     1       2.796   4.634  19.478  0.00  0.00    +0.000 C 
ATOM      6  C   UNL     1       1.850   4.238  18.327  0.00  0.00    +0.000 C 
ATOM      7  C   UNL     1       1.318   2.812  18.487  0.00  0.00    +0.000 C 
ATOM      8  C   UNL     1       0.638   2.625  19.839  0.00  0.00    +0.000 C 
ATOM      9  C   UNL     1       1.565   2.999  20.992  0.00  0.00    +0.000 C 
ATOM     10  C   UNL     1       2.126   4.418  20.841  0.00  0.00    +0.000 C 
ATOM     11  O   UNL     1       3.956   3.780  19.405  0.00  0.00    +0.000 OA
ENDROOT
BRANCH   4  12
ATOM     12  N   UNL     1       2.557   7.149  19.225  0.00  0.00    +0.000 N 
ATOM     13  C   UNL     1       2.114   7.709  17.934  0.00  0.00    +0.000 C 
ATOM     14  C   UNL     1       1.990   9.231  18.068  0.00  0.00    +0.000 C 
ATOM     15  C   UNL     1       1.074   9.623  19.229  0.00  0.00    +0.000 C 
ATOM     16  C   UNL     1       1.469   8.901  20.516  0.00  0.00    +0.000 C 
ATOM     17  C   UNL     1       1.573   7.395  20.293  0.00  0.00    +0.000 C 
ENDBRANCH   4  12
TORSDOF 1
ENDMDL
