MODEL 1
REMARK VINA RESULT:      -6.9      0.000      0.000
REMARK  Name = 
REMARK  11 active torsions:
REMARK  status: ('A' for Active; 'I' for Inactive)
REMARK    1  A    between atoms: C_1  and  O_2
REMARK    2  A    between atoms: O_2  and  C_3
REMARK    3  A    between atoms: C_3  and  C_4
REMARK    4  A    between atoms: C_4  and  C_5
REMARK    5  A    between atoms: C_5  and  C_6
REMARK    6  A    between atoms: C_6  and  N_7
REMARK    7  A    between atoms: C_11  and  N_12
REMARK    8  A    between atoms: N_12  and  C_13
REMARK    9  A    between atoms: C_16  and  C_17
REMARK   10  A    between atoms: C_18  and  C_19
REMARK   11  A    between atoms: C_19  and  S_20
REMARK                            x       y       z     vdW  Elec       q    Type
REMARK                         _______ _______ _______ _____ _____    ______ ____
ROOT
ATOM      1  N   UNL     1       3.866   4.114  18.088  0.00  0.00    +0.000 N 
ATOM      2  C   UNL     1       2.490   4.215  17.998  0.00  0.00    +0.000 A 
ATOM      3  O   UNL     1       1.784   3.576  17.225  0.00  0.00    +0.000 OA
ATOM      4  C   UNL     1       1.859   5.205  18.883  0.00  0.00    +0.000 A 
ATOM      5  C   UNL     1       2.574   5.834  19.823  0.00  0.00    +0.000 A 
ATOM      6  N   UNL     1       3.894   5.519  19.951  0.00  0.00    +0.000 N 
ATOM      7  C   UNL     1       4.595   4.707  19.103  0.00  0.00    +0.000 A 
ATOM      8  O   UNL     1       5.805   4.560  19.274  0.00  0.00    +0.000 OA
ATOM      9  H   UNL     1       4.452   5.998  20.641  0.00  0.00    +0.000 HD
ENDROOT
BRANCH   5  10
ATOM     10  N   UNL     1       1.996   6.779  20.641  0.00  0.00    +0.000 N 
ATOM     11  H   UNL     1       2.462   6.872  21.538  0.00  0.00    +0.000 HD
BRANCH  10  12
ATOM     12  C   UNL     1       1.563   8.049  20.175  0.00  0.00    +0.000 A 
ATOM     13  C   UNL     1       1.896   8.429  18.871  0.00  0.00    +0.000 A 
ATOM     14  C   UNL     1       1.613   9.716  18.406  0.00  0.00    +0.000 A 
ATOM     15  C   UNL     1       0.997  10.665  19.236  0.00  0.00    +0.000 A 
ATOM     16  C   UNL     1       0.789  12.063  18.716  0.00  0.00    +0.000 C 
ATOM     17  C   UNL     1       0.626  10.296  20.543  0.00  0.00    +0.000 A 
ATOM     18  C   UNL     1       0.927   8.994  20.996  0.00  0.00    +0.000 A 
BRANCH  17  19
ATOM     19  C   UNL     1      -0.048  11.260  21.495  0.00  0.00    +0.000 C 
BRANCH  19  20
ATOM     20  S   UNL     1      -0.756  10.426  22.942  0.00  0.00    +0.000 S 
ATOM     21  H   UNL     1      -1.916  11.097  22.949  0.00  0.00    +0.000 HD
ENDBRANCH  19  20
ENDBRANCH  17  19
ENDBRANCH  10  12
ENDBRANCH   5  10
BRANCH   1  22
ATOM     22  C   UNL     1       4.564   3.319  17.084  0.00  0.00    +0.000 C 
BRANCH  22  23
ATOM     23  C   UNL     1       4.973   4.149  15.858  0.00  0.00    +0.000 C 
BRANCH  23  24
ATOM     24  C   UNL     1       6.453   4.009  15.506  0.00  0.00    +0.000 C 
BRANCH  24  25
ATOM     25  C   UNL     1       6.712   4.485  14.083  0.00  0.00    +0.000 C 
BRANCH  25  27
ATOM     26  C   UNL     1       6.447   3.330  12.057  0.00  0.00    +0.000 C 
ATOM     27  O   UNL     1       5.789   3.841  13.210  0.00  0.00    +0.000 OA
ENDBRANCH  25  27
ENDBRANCH  24  25
ENDBRANCH  23  24
ENDBRANCH  22  23
ENDBRANCH   1  22
TORSDOF 9
ENDMDL
MODEL 2
REMARK VINA RESULT:      -6.8      1.339      1.803
REMARK  Name = 
REMARK  11 active torsions:
REMARK  status: ('A' for Active; 'I' for Inactive)
REMARK    1  A    between atoms: C_1  and  O_2
REMARK    2  A    between atoms: O_2  and  C_3
REMARK    3  A    between atoms: C_3  and  C_4
REMARK    4  A    between atoms: C_4  and  C_5
REMARK    5  A    between atoms: C_5  and  C_6
REMARK    6  A    between atoms: C_6  and  N_7
REMARK    7  A    between atoms: C_11  and  N_12
REMARK    8  A    between atoms: N_12  and  C_13
REMARK    9  A    between atoms: C_16  and  C_17
REMARK   10  A    between atoms: C_18  and  C_19
REMARK   11  A    between atoms: C_19  and  S_20
REMARK                            x       y       z     vdW  Elec       q    Type
REMARK                         _______ _______ _______ _____ _____    ______ ____
ROOT
ATOM      1  N   UNL     1       4.014   4.070  18.004  0.00  0.00    +0.000 N 
ATOM      2  C   UNL     1       2.646   4.236  17.900  0.00  0.00    +0.000 A 
ATOM      3  O   UNL     1       1.920   3.647  17.106  0.00  0.00    +0.000 OA
ATOM      4  C   UNL     1       2.050   5.236  18.799  0.00  0.00    +0.000 A 
ATOM      5  C   UNL     1       2.782   5.811  19.760  0.00  0.00    +0.000 A 
ATOM      6  N   UNL     1       4.084   5.432  19.897  0.00  0.00    +0.000 N 
ATOM      7  C   UNL     1       4.757   4.606  19.040  0.00  0.00    +0.000 A 
ATOM      8  O   UNL     1       5.957   4.400  19.222  0.00  0.00    +0.000 OA
ATOM      9  H   UNL     1       4.655   5.871  20.604  0.00  0.00    +0.000 HD
ENDROOT
BRANCH   5  10
ATOM     10  N   UNL     1       2.238   6.766  20.591  0.00  0.00    +0.000 N 
ATOM     11  H   UNL     1       2.802   6.947  21.415  0.00  0.00    +0.000 HD
BRANCH  10  12
ATOM     12  C   UNL     1       1.657   7.971  20.114  0.00  0.00    +0.000 A 
ATOM     13  C   UNL     1       2.016   8.425  18.841  0.00  0.00    +0.000 A 
ATOM     14  C   UNL     1       1.580   9.668  18.376  0.00  0.00    +0.000 A 
ATOM     15  C   UNL     1       0.780  10.500  19.174  0.00  0.00    +0.000 A 
ATOM     16  C   UNL     1       0.406  11.864  18.660  0.00  0.00    +0.000 C 
ATOM     17  C   UNL     1       0.382  10.051  20.448  0.00  0.00    +0.000 A 
ATOM     18  C   UNL     1       0.839   8.796  20.903  0.00  0.00    +0.000 A 
BRANCH  17  19
ATOM     19  C   UNL     1      -0.486  10.885  21.365  0.00  0.00    +0.000 C 
BRANCH  19  20
ATOM     20  S   UNL     1      -0.660  10.151  23.014  0.00  0.00    +0.000 S 
ATOM     21  H   UNL     1      -0.815  11.306  23.677  0.00  0.00    +0.000 HD
ENDBRANCH  19  20
ENDBRANCH  17  19
ENDBRANCH  10  12
ENDBRANCH   5  10
BRANCH   1  22
ATOM     22  C   UNL     1       4.688   3.264  16.992  0.00  0.00    +0.000 C 
BRANCH  22  23
ATOM     23  C   UNL     1       5.720   4.069  16.192  0.00  0.00    +0.000 C 
BRANCH  23  24
ATOM     24  C   UNL     1       5.108   5.252  15.442  0.00  0.00    +0.000 C 
BRANCH  24  25
ATOM     25  C   UNL     1       5.645   6.568  15.989  0.00  0.00    +0.000 C 
BRANCH  25  27
ATOM     26  C   UNL     1       7.328   7.222  17.490  0.00  0.00    +0.000 C 
ATOM     27  O   UNL     1       6.998   6.377  16.394  0.00  0.00    +0.000 OA
ENDBRANCH  25  27
ENDBRANCH  24  25
ENDBRANCH  23  24
ENDBRANCH  22  23
ENDBRANCH   1  22
TORSDOF 9
ENDMDL
MODEL 3
REMARK VINA RESULT:      -6.6      3.886      7.956
REMARK  Name = 
REMARK  11 active torsions:
REMARK  status: ('A' for Active; 'I' for Inactive)
REMARK    1  A    between atoms: C_1  and  O_2
REMARK    2  A    between atoms: O_2  and  C_3
REMARK    3  A    between atoms: C_3  and  C_4
REMARK    4  A    between atoms: C_4  and  C_5
REMARK    5  A    between atoms: C_5  and  C_6
REMARK    6  A    between atoms: C_6  and  N_7
REMARK    7  A    between atoms: C_11  and  N_12
REMARK    8  A    between atoms: N_12  and  C_13
REMARK    9  A    between atoms: C_16  and  C_17
REMARK   10  A    between atoms: C_18  and  C_19
REMARK   11  A    between atoms: C_19  and  S_20
REMARK                            x       y       z     vdW  Elec       q    Type
REMARK                         _______ _______ _______ _____ _____    ______ ____
ROOT
ATOM      1  N   UNL     1       0.957   9.532  19.690  0.00  0.00    +0.000 N 
ATOM      2  C   UNL     1       1.644   9.250  18.523  0.00  0.00    +0.000 A 
ATOM      3  O   UNL     1       1.718   9.993  17.550  0.00  0.00    +0.000 OA
ATOM      4  C   UNL     1       2.291   7.932  18.461  0.00  0.00    +0.000 A 
ATOM      5  C   UNL     1       2.338   7.143  19.541  0.00  0.00    +0.000 A 
ATOM      6  N   UNL     1       1.791   7.601  20.702  0.00  0.00    +0.000 N 
ATOM      7  C   UNL     1       1.065   8.753  20.828  0.00  0.00    +0.000 A 
ATOM      8  O   UNL     1       0.550   9.024  21.913  0.00  0.00    +0.000 OA
ATOM      9  H   UNL     1       1.800   7.011  21.520  0.00  0.00    +0.000 HD
ENDROOT
BRANCH   5  10
ATOM     10  N   UNL     1       2.921   5.896  19.484  0.00  0.00    +0.000 N 
ATOM     11  H   UNL     1       2.311   5.154  19.811  0.00  0.00    +0.000 HD
BRANCH  10  12
ATOM     12  C   UNL     1       3.696   5.450  18.381  0.00  0.00    +0.000 A 
ATOM     13  C   UNL     1       3.254   4.335  17.664  0.00  0.00    +0.000 A 
ATOM     14  C   UNL     1       4.042   3.774  16.655  0.00  0.00    +0.000 A 
ATOM     15  C   UNL     1       5.302   4.305  16.342  0.00  0.00    +0.000 A 
ATOM     16  C   UNL     1       6.148   3.615  15.306  0.00  0.00    +0.000 C 
ATOM     17  C   UNL     1       5.756   5.447  17.031  0.00  0.00    +0.000 A 
ATOM     18  C   UNL     1       4.949   5.994  18.051  0.00  0.00    +0.000 A 
BRANCH  17  19
ATOM     19  C   UNL     1       7.099   6.083  16.746  0.00  0.00    +0.000 C 
BRANCH  19  20
ATOM     20  S   UNL     1       7.794   6.918  18.198  0.00  0.00    +0.000 S 
ATOM     21  H   UNL     1       6.851   6.521  19.065  0.00  0.00    +0.000 HD
ENDBRANCH  19  20
ENDBRANCH  17  19
ENDBRANCH  10  12
ENDBRANCH   5  10
BRANCH   1  22
ATOM     22  C   UNL     1       0.114  10.721  19.721  0.00  0.00    +0.000 C 
BRANCH  22  23
ATOM     23  C   UNL     1      -1.278  10.469  19.126  0.00  0.00    +0.000 C 
BRANCH  23  24
ATOM     24  C   UNL     1      -1.570  11.330  17.897  0.00  0.00    +0.000 C 
BRANCH  24  25
ATOM     25  C   UNL     1      -3.063  11.349  17.599  0.00  0.00    +0.000 C 
BRANCH  25  27
ATOM     26  C   UNL     1      -2.948  10.683  15.351  0.00  0.00    +0.000 C 
ATOM     27  O   UNL     1      -3.356  10.315  16.663  0.00  0.00    +0.000 OA
ENDBRANCH  25  27
ENDBRANCH  24  25
ENDBRANCH  23  24
ENDBRANCH  22  23
ENDBRANCH   1  22
TORSDOF 9
ENDMDL
MODEL 4
REMARK VINA RESULT:      -6.5      4.194      7.969
REMARK  Name = 
REMARK  11 active torsions:
REMARK  status: ('A' for Active; 'I' for Inactive)
REMARK    1  A    between atoms: C_1  and  O_2
REMARK    2  A    between atoms: O_2  and  C_3
REMARK    3  A    between atoms: C_3  and  C_4
REMARK    4  A    between atoms: C_4  and  C_5
REMARK    5  A    between atoms: C_5  and  C_6
REMARK    6  A    between atoms: C_6  and  N_7
REMARK    7  A    between atoms: C_11  and  N_12
REMARK    8  A    between atoms: N_12  and  C_13
REMARK    9  A    between atoms: C_16  and  C_17
REMARK   10  A    between atoms: C_18  and  C_19
REMARK   11  A    between atoms: C_19  and  S_20
REMARK                            x       y       z     vdW  Elec       q    Type
REMARK                         _______ _______ _______ _____ _____    ______ ____
ROOT
ATOM      1  N   UNL     1       0.248  10.154  19.667  0.00  0.00    +0.000 N 
ATOM      2  C   UNL     1       1.164   9.580  18.805  0.00  0.00    +0.000 A 
ATOM      3  O   UNL     1       1.466  10.019  17.700  0.00  0.00    +0.000 OA
ATOM      4  C   UNL     1       1.776   8.324  19.261  0.00  0.00    +0.000 A 
ATOM      5  C   UNL     1       1.568   7.875  20.504  0.00  0.00    +0.000 A 
ATOM      6  N   UNL     1       0.794   8.623  21.341  0.00  0.00    +0.000 N 
ATOM      7  C   UNL     1       0.087   9.735  20.975  0.00  0.00    +0.000 A 
ATOM      8  O   UNL     1      -0.644  10.281  21.801  0.00  0.00    +0.000 OA
ATOM      9  H   UNL     1       0.611   8.289  22.275  0.00  0.00    +0.000 HD
ENDROOT
BRANCH   5  10
ATOM     10  N   UNL     1       2.119   6.687  20.932  0.00  0.00    +0.000 N 
ATOM     11  H   UNL     1       1.809   6.414  21.860  0.00  0.00    +0.000 HD
BRANCH  10  12
ATOM     12  C   UNL     1       2.248   5.546  20.098  0.00  0.00    +0.000 A 
ATOM     13  C   UNL     1       1.315   4.513  20.233  0.00  0.00    +0.000 A 
ATOM     14  C   UNL     1       1.470   3.313  19.534  0.00  0.00    +0.000 A 
ATOM     15  C   UNL     1       2.569   3.106  18.686  0.00  0.00    +0.000 A 
ATOM     16  C   UNL     1       2.735   1.766  18.021  0.00  0.00    +0.000 C 
ATOM     17  C   UNL     1       3.506   4.143  18.512  0.00  0.00    +0.000 A 
ATOM     18  C   UNL     1       3.336   5.344  19.233  0.00  0.00    +0.000 A 
BRANCH  17  19
ATOM     19  C   UNL     1       4.713   4.000  17.611  0.00  0.00    +0.000 C 
BRANCH  19  20
ATOM     20  S   UNL     1       5.072   5.518  16.686  0.00  0.00    +0.000 S 
ATOM     21  H   UNL     1       4.677   5.061  15.489  0.00  0.00    +0.000 HD
ENDBRANCH  19  20
ENDBRANCH  17  19
ENDBRANCH  10  12
ENDBRANCH   5  10
BRANCH   1  22
ATOM     22  C   UNL     1      -0.552  11.270  19.176  0.00  0.00    +0.000 C 
BRANCH  22  23
ATOM     23  C   UNL     1      -1.900  10.816  18.599  0.00  0.00    +0.000 C 
BRANCH  23  24
ATOM     24  C   UNL     1      -2.233  11.478  17.262  0.00  0.00    +0.000 C 
BRANCH  24  25
ATOM     25  C   UNL     1      -2.516  10.424  16.199  0.00  0.00    +0.000 C 
BRANCH  25  27
ATOM     26  C   UNL     1      -3.507  10.112  14.094  0.00  0.00    +0.000 C 
ATOM     27  O   UNL     1      -3.067  11.067  15.052  0.00  0.00    +0.000 OA
ENDBRANCH  25  27
ENDBRANCH  24  25
ENDBRANCH  23  24
ENDBRANCH  22  23
ENDBRANCH   1  22
TORSDOF 9
ENDMDL
MODEL 5
REMARK VINA RESULT:      -6.4      3.414      5.105
REMARK  Name = 
REMARK  11 active torsions:
REMARK  status: ('A' for Active; 'I' for Inactive)
REMARK    1  A    between atoms: C_1  and  O_2
REMARK    2  A    between atoms: O_2  and  C_3
REMARK    3  A    between atoms: C_3  and  C_4
REMARK    4  A    between atoms: C_4  and  C_5
REMARK    5  A    between atoms: C_5  and  C_6
REMARK    6  A    between atoms: C_6  and  N_7
REMARK    7  A    between atoms: C_11  and  N_12
REMARK    8  A    between atoms: N_12  and  C_13
REMARK    9  A    between atoms: C_16  and  C_17
REMARK   10  A    between atoms: C_18  and  C_19
REMARK   11  A    between atoms: C_19  and  S_20
REMARK                            x       y       z     vdW  Elec       q    Type
REMARK                         _______ _______ _______ _____ _____    ______ ____
ROOT
ATOM      1  N   UNL     1       2.311   7.467  19.402  0.00  0.00    +0.000 N 
ATOM      2  C   UNL     1       1.556   8.134  20.349  0.00  0.00    +0.000 A 
ATOM      3  O   UNL     1       1.464   7.816  21.530  0.00  0.00    +0.000 OA
ATOM      4  C   UNL     1       0.783   9.285  19.861  0.00  0.00    +0.000 A 
ATOM      5  C   UNL     1       0.948   9.738  18.613  0.00  0.00    +0.000 A 
ATOM      6  N   UNL     1       1.864   9.120  17.816  0.00  0.00    +0.000 N 
ATOM      7  C   UNL     1       2.539   7.974  18.135  0.00  0.00    +0.000 A 
ATOM      8  O   UNL     1       3.284   7.462  17.299  0.00  0.00    +0.000 OA
ATOM      9  H   UNL     1       1.987   9.436  16.866  0.00  0.00    +0.000 HD
ENDROOT
BRANCH   5  10
ATOM     10  N   UNL     1       0.210  10.801  18.140  0.00  0.00    +0.000 N 
ATOM     11  H   UNL     1       0.555  11.167  17.258  0.00  0.00    +0.000 HD
BRANCH  10  12
ATOM     12  C   UNL     1      -1.209  10.836  18.170  0.00  0.00    +0.000 A 
ATOM     13  C   UNL     1      -1.913  10.063  17.242  0.00  0.00    +0.000 A 
ATOM     14  C   UNL     1      -3.303  10.161  17.139  0.00  0.00    +0.000 A 
ATOM     15  C   UNL     1      -4.030  11.043  17.953  0.00  0.00    +0.000 A 
ATOM     16  C   UNL     1      -5.515  11.173  17.745  0.00  0.00    +0.000 C 
ATOM     17  C   UNL     1      -3.344  11.810  18.915  0.00  0.00    +0.000 A 
ATOM     18  C   UNL     1      -1.940  11.703  18.999  0.00  0.00    +0.000 A 
BRANCH  17  19
ATOM     19  C   UNL     1      -4.056  12.778  19.834  0.00  0.00    +0.000 C 
BRANCH  19  20
ATOM     20  S   UNL     1      -3.340  12.807  21.500  0.00  0.00    +0.000 S 
ATOM     21  H   UNL     1      -2.298  12.009  21.229  0.00  0.00    +0.000 HD
ENDBRANCH  19  20
ENDBRANCH  17  19
ENDBRANCH  10  12
ENDBRANCH   5  10
BRANCH   1  22
ATOM     22  C   UNL     1       2.916   6.194  19.776  0.00  0.00    +0.000 C 
BRANCH  22  23
ATOM     23  C   UNL     1       1.909   5.035  19.746  0.00  0.00    +0.000 C 
BRANCH  23  24
ATOM     24  C   UNL     1       1.862   4.316  18.398  0.00  0.00    +0.000 C 
BRANCH  24  25
ATOM     25  C   UNL     1       1.236   2.937  18.549  0.00  0.00    +0.000 C 
BRANCH  25  27
ATOM     26  C   UNL     1       3.279   1.911  18.016  0.00  0.00    +0.000 C 
ATOM     27  O   UNL     1       2.241   2.023  18.982  0.00  0.00    +0.000 OA
ENDBRANCH  25  27
ENDBRANCH  24  25
ENDBRANCH  23  24
ENDBRANCH  22  23
ENDBRANCH   1  22
TORSDOF 9
ENDMDL
MODEL 6
REMARK VINA RESULT:      -6.4      2.318      3.365
REMARK  Name = 
REMARK  11 active torsions:
REMARK  status: ('A' for Active; 'I' for Inactive)
REMARK    1  A    between atoms: C_1  and  O_2
REMARK    2  A    between atoms: O_2  and  C_3
REMARK    3  A    between atoms: C_3  and  C_4
REMARK    4  A    between atoms: C_4  and  C_5
REMARK    5  A    between atoms: C_5  and  C_6
REMARK    6  A    between atoms: C_6  and  N_7
REMARK    7  A    between atoms: C_11  and  N_12
REMARK    8  A    between atoms: N_12  and  C_13
REMARK    9  A    between atoms: C_16  and  C_17
REMARK   10  A    between atoms: C_18  and  C_19
REMARK   11  A    between atoms: C_19  and  S_20
REMARK                            x       y       z     vdW  Elec       q    Type
REMARK                         _______ _______ _______ _____ _____    ______ ____
ROOT
ATOM      1  N   UNL     1       1.776   3.725  19.681  0.00  0.00    +0.000 N 
ATOM      2  C   UNL     1       1.538   4.510  18.568  0.00  0.00    +0.000 A 
ATOM      3  O   UNL     1       1.158   4.094  17.479  0.00  0.00    +0.000 OA
ATOM      4  C   UNL     1       1.812   5.945  18.725  0.00  0.00    +0.000 A 
ATOM      5  C   UNL     1       2.111   6.457  19.924  0.00  0.00    +0.000 A 
ATOM      6  N   UNL     1       2.134   5.618  20.998  0.00  0.00    +0.000 N 
ATOM      7  C   UNL     1       2.013   4.257  20.936  0.00  0.00    +0.000 A 
ATOM      8  O   UNL     1       2.131   3.595  21.967  0.00  0.00    +0.000 OA
ATOM      9  H   UNL     1       2.377   5.984  21.906  0.00  0.00    +0.000 HD
ENDROOT
BRANCH   5  10
ATOM     10  N   UNL     1       2.392   7.797  20.075  0.00  0.00    +0.000 N 
ATOM     11  H   UNL     1       2.791   8.218  19.241  0.00  0.00    +0.000 HD
BRANCH  10  12
ATOM     12  C   UNL     1       1.513   8.708  20.717  0.00  0.00    +0.000 A 
ATOM     13  C   UNL     1       1.420   8.671  22.112  0.00  0.00    +0.000 A 
ATOM     14  C   UNL     1       0.476   9.450  22.787  0.00  0.00    +0.000 A 
ATOM     15  C   UNL     1      -0.411  10.281  22.085  0.00  0.00    +0.000 A 
ATOM     16  C   UNL     1      -1.464  11.036  22.851  0.00  0.00    +0.000 C 
ATOM     17  C   UNL     1      -0.316  10.356  20.682  0.00  0.00    +0.000 A 
ATOM     18  C   UNL     1       0.639   9.556  20.019  0.00  0.00    +0.000 A 
BRANCH  17  19
ATOM     19  C   UNL     1      -1.230  11.233  19.855  0.00  0.00    +0.000 C 
BRANCH  19  20
ATOM     20  S   UNL     1      -1.634  10.496  18.248  0.00  0.00    +0.000 S 
ATOM     21  H   UNL     1      -2.403   9.507  18.726  0.00  0.00    +0.000 HD
ENDBRANCH  19  20
ENDBRANCH  17  19
ENDBRANCH  10  12
ENDBRANCH   5  10
BRANCH   1  22
ATOM     22  C   UNL     1       1.739   2.276  19.521  0.00  0.00    +0.000 C 
BRANCH  22  23
ATOM     23  C   UNL     1       3.000   1.728  18.838  0.00  0.00    +0.000 C 
BRANCH  23  24
ATOM     24  C   UNL     1       4.294   2.186  19.511  0.00  0.00    +0.000 C 
BRANCH  24  25
ATOM     25  C   UNL     1       4.907   3.355  18.752  0.00  0.00    +0.000 C 
BRANCH  25  27
ATOM     26  C   UNL     1       4.782   4.488  16.700  0.00  0.00    +0.000 C 
ATOM     27  O   UNL     1       4.513   3.270  17.385  0.00  0.00    +0.000 OA
ENDBRANCH  25  27
ENDBRANCH  24  25
ENDBRANCH  23  24
ENDBRANCH  22  23
ENDBRANCH   1  22
TORSDOF 9
ENDMDL
MODEL 7
REMARK VINA RESULT:      -6.4      5.582      6.763
REMARK  Name = 
REMARK  11 active torsions:
REMARK  status: ('A' for Active; 'I' for Inactive)
REMARK    1  A    between atoms: C_1  and  O_2
REMARK    2  A    between atoms: O_2  and  C_3
REMARK    3  A    between atoms: C_3  and  C_4
REMARK    4  A    between atoms: C_4  and  C_5
REMARK    5  A    between atoms: C_5  and  C_6
REMARK    6  A    between atoms: C_6  and  N_7
REMARK    7  A    between atoms: C_11  and  N_12
REMARK    8  A    between atoms: N_12  and  C_13
REMARK    9  A    between atoms: C_16  and  C_17
REMARK   10  A    between atoms: C_18  and  C_19
REMARK   11  A    between atoms: C_19  and  S_20
REMARK                            x       y       z     vdW  Elec       q    Type
REMARK                         _______ _______ _______ _____ _____    ______ ____
ROOT
ATOM      1  N   UNL     1       5.360   5.514  17.522  0.00  0.00    +0.000 N 
ATOM      2  C   UNL     1       6.006   5.057  18.656  0.00  0.00    +0.000 A 
ATOM      3  O   UNL     1       5.674   4.073  19.310  0.00  0.00    +0.000 OA
ATOM      4  C   UNL     1       7.151   5.859  19.111  0.00  0.00    +0.000 A 
ATOM      5  C   UNL     1       7.619   6.865  18.364  0.00  0.00    +0.000 A 
ATOM      6  N   UNL     1       7.022   7.113  17.164  0.00  0.00    +0.000 N 
ATOM      7  C   UNL     1       5.883   6.505  16.712  0.00  0.00    +0.000 A 
ATOM      8  O   UNL     1       5.390   6.871  15.645  0.00  0.00    +0.000 OA
ATOM      9  H   UNL     1       7.350   7.880  16.597  0.00  0.00    +0.000 HD
ENDROOT
BRANCH   5  10
ATOM     10  N   UNL     1       8.676   7.637  18.794  0.00  0.00    +0.000 N 
ATOM     11  H   UNL     1       9.581   7.254  18.538  0.00  0.00    +0.000 HD
BRANCH  10  12
ATOM     12  C   UNL     1       8.694   9.053  18.699  0.00  0.00    +0.000 A 
ATOM     13  C   UNL     1       7.988   9.659  17.655  0.00  0.00    +0.000 A 
ATOM     14  C   UNL     1       8.078  11.036  17.435  0.00  0.00    +0.000 A 
ATOM     15  C   UNL     1       8.886  11.847  18.246  0.00  0.00    +0.000 A 
ATOM     16  C   UNL     1       9.015  13.310  17.917  0.00  0.00    +0.000 C 
ATOM     17  C   UNL     1       9.583  11.263  19.322  0.00  0.00    +0.000 A 
ATOM     18  C   UNL     1       9.485   9.870  19.523  0.00  0.00    +0.000 A 
BRANCH  17  19
ATOM     19  C   UNL     1      10.468  12.071  20.246  0.00  0.00    +0.000 C 
BRANCH  19  20
ATOM     20  S   UNL     1      12.202  12.078  19.715  0.00  0.00    +0.000 S 
ATOM     21  H   UNL     1      12.050  11.225  18.692  0.00  0.00    +0.000 HD
ENDBRANCH  19  20
ENDBRANCH  17  19
ENDBRANCH  10  12
ENDBRANCH   5  10
BRANCH   1  22
ATOM     22  C   UNL     1       4.092   4.895  17.156  0.00  0.00    +0.000 C 
BRANCH  22  23
ATOM     23  C   UNL     1       2.897   5.532  17.878  0.00  0.00    +0.000 C 
BRANCH  23  24
ATOM     24  C   UNL     1       1.999   4.508  18.571  0.00  0.00    +0.000 C 
BRANCH  24  25
ATOM     25  C   UNL     1       2.073   3.163  17.860  0.00  0.00    +0.000 C 
BRANCH  25  27
ATOM     26  C   UNL     1       3.551   1.441  18.459  0.00  0.00    +0.000 C 
ATOM     27  O   UNL     1       2.374   2.153  18.820  0.00  0.00    +0.000 OA
ENDBRANCH  25  27
ENDBRANCH  24  25
ENDBRANCH  23  24
ENDBRANCH  22  23
ENDBRANCH   1  22
TORSDOF 9
ENDMDL
MODEL 8
REMARK VINA RESULT:      -6.4      1.044      1.066
REMARK  Name = 
REMARK  11 active torsions:
REMARK  status: ('A' for Active; 'I' for Inactive)
REMARK    1  A    between atoms: C_1  and  O_2
REMARK    2  A    between atoms: O_2  and  C_3
REMARK    3  A    between atoms: C_3  and  C_4
REMARK    4  A    between atoms: C_4  and  C_5
REMARK    5  A    between atoms: C_5  and  C_6
REMARK    6  A    between atoms: C_6  and  N_7
REMARK    7  A    between atoms: C_11  and  N_12
REMARK    8  A    between atoms: N_12  and  C_13
REMARK    9  A    between atoms: C_16  and  C_17
REMARK   10  A    between atoms: C_18  and  C_19
REMARK   11  A    between atoms: C_19  and  S_20
REMARK                            x       y       z     vdW  Elec       q    Type
REMARK                         _______ _______ _______ _____ _____    ______ ____
ROOT
ATOM      1  N   UNL     1       4.054   4.346  17.971  0.00  0.00    +0.000 N 
ATOM      2  C   UNL     1       2.674   4.260  17.950  0.00  0.00    +0.000 A 
ATOM      3  O   UNL     1       2.024   3.492  17.249  0.00  0.00    +0.000 OA
ATOM      4  C   UNL     1       1.958   5.206  18.819  0.00  0.00    +0.000 A 
ATOM      5  C   UNL     1       2.625   5.975  19.687  0.00  0.00    +0.000 A 
ATOM      6  N   UNL     1       3.980   5.843  19.760  0.00  0.00    +0.000 N 
ATOM      7  C   UNL     1       4.743   5.084  18.916  0.00  0.00    +0.000 A 
ATOM      8  O   UNL     1       5.969   5.107  19.029  0.00  0.00    +0.000 OA
ATOM      9  H   UNL     1       4.500   6.429  20.395  0.00  0.00    +0.000 HD
ENDROOT
BRANCH   5  10
ATOM     10  N   UNL     1       1.964   6.881  20.487  0.00  0.00    +0.000 N 
ATOM     11  H   UNL     1       2.335   6.925  21.431  0.00  0.00    +0.000 HD
BRANCH  10  12
ATOM     12  C   UNL     1       1.582   8.174  20.044  0.00  0.00    +0.000 A 
ATOM     13  C   UNL     1       1.874   8.540  18.727  0.00  0.00    +0.000 A 
ATOM     14  C   UNL     1       1.641   9.843  18.278  0.00  0.00    +0.000 A 
ATOM     15  C   UNL     1       1.119  10.822  19.137  0.00  0.00    +0.000 A 
ATOM     16  C   UNL     1       0.965  12.231  18.629  0.00  0.00    +0.000 C 
ATOM     17  C   UNL     1       0.790  10.469  20.460  0.00  0.00    +0.000 A 
ATOM     18  C   UNL     1       1.040   9.150  20.896  0.00  0.00    +0.000 A 
BRANCH  17  19
ATOM     19  C   UNL     1       0.217  11.465  21.444  0.00  0.00    +0.000 C 
BRANCH  19  20
ATOM     20  S   UNL     1      -1.507  11.890  21.077  0.00  0.00    +0.000 S 
ATOM     21  H   UNL     1      -1.936  11.889  22.347  0.00  0.00    +0.000 HD
ENDBRANCH  19  20
ENDBRANCH  17  19
ENDBRANCH  10  12
ENDBRANCH   5  10
BRANCH   1  22
ATOM     22  C   UNL     1       4.804   3.595  16.972  0.00  0.00    +0.000 C 
BRANCH  22  23
ATOM     23  C   UNL     1       4.759   4.254  15.586  0.00  0.00    +0.000 C 
BRANCH  23  24
ATOM     24  C   UNL     1       5.781   5.379  15.423  0.00  0.00    +0.000 C 
BRANCH  24  25
ATOM     25  C   UNL     1       7.194   4.815  15.374  0.00  0.00    +0.000 C 
BRANCH  25  27
ATOM     26  C   UNL     1       7.708   5.111  13.102  0.00  0.00    +0.000 C 
ATOM     27  O   UNL     1       7.953   5.564  14.428  0.00  0.00    +0.000 OA
ENDBRANCH  25  27
ENDBRANCH  24  25
ENDBRANCH  23  24
ENDBRANCH  22  23
ENDBRANCH   1  22
TORSDOF 9
ENDMDL
MODEL 9
REMARK VINA RESULT:      -6.4      3.933      7.935
REMARK  Name = 
REMARK  11 active torsions:
REMARK  status: ('A' for Active; 'I' for Inactive)
REMARK    1  A    between atoms: C_1  and  O_2
REMARK    2  A    between atoms: O_2  and  C_3
REMARK    3  A    between atoms: C_3  and  C_4
REMARK    4  A    between atoms: C_4  and  C_5
REMARK    5  A    between atoms: C_5  and  C_6
REMARK    6  A    between atoms: C_6  and  N_7
REMARK    7  A    between atoms: C_11  and  N_12
REMARK    8  A    between atoms: N_12  and  C_13
REMARK    9  A    between atoms: C_16  and  C_17
REMARK   10  A    between atoms: C_18  and  C_19
REMARK   11  A    between atoms: C_19  and  S_20
REMARK                            x       y       z     vdW  Elec       q    Type
REMARK                         _______ _______ _______ _____ _____    ______ ____
ROOT
ATOM      1  N   UNL     1       0.955   9.699  19.642  0.00  0.00    +0.000 N 
ATOM      2  C   UNL     1       0.728   8.893  20.743  0.00  0.00    +0.000 A 
ATOM      3  O   UNL     1      -0.026   9.162  21.672  0.00  0.00    +0.000 OA
ATOM      4  C   UNL     1       1.497   7.641  20.792  0.00  0.00    +0.000 A 
ATOM      5  C   UNL     1       2.236   7.252  19.747  0.00  0.00    +0.000 A 
ATOM      6  N   UNL     1       2.240   8.034  18.631  0.00  0.00    +0.000 N 
ATOM      7  C   UNL     1       1.658   9.268  18.532  0.00  0.00    +0.000 A 
ATOM      8  O   UNL     1       1.798   9.917  17.496  0.00  0.00    +0.000 OA
ATOM      9  H   UNL     1       2.807   7.766  17.841  0.00  0.00    +0.000 HD
ENDROOT
BRANCH   5  10
ATOM     10  N   UNL     1       2.979   6.093  19.795  0.00  0.00    +0.000 N 
ATOM     11  H   UNL     1       2.514   5.341  20.293  0.00  0.00    +0.000 HD
BRANCH  10  12
ATOM     12  C   UNL     1       3.692   5.582  18.679  0.00  0.00    +0.000 A 
ATOM     13  C   UNL     1       3.141   4.510  17.970  0.00  0.00    +0.000 A 
ATOM     14  C   UNL     1       3.859   3.882  16.949  0.00  0.00    +0.000 A 
ATOM     15  C   UNL     1       5.155   4.301  16.613  0.00  0.00    +0.000 A 
ATOM     16  C   UNL     1       5.919   3.539  15.563  0.00  0.00    +0.000 C 
ATOM     17  C   UNL     1       5.720   5.397  17.293  0.00  0.00    +0.000 A 
ATOM     18  C   UNL     1       4.981   6.012  18.326  0.00  0.00    +0.000 A 
BRANCH  17  19
ATOM     19  C   UNL     1       7.108   5.913  16.985  0.00  0.00    +0.000 C 
BRANCH  19  20
ATOM     20  S   UNL     1       7.887   6.709  18.415  0.00  0.00    +0.000 S 
ATOM     21  H   UNL     1       6.795   7.361  18.838  0.00  0.00    +0.000 HD
ENDBRANCH  19  20
ENDBRANCH  17  19
ENDBRANCH  10  12
ENDBRANCH   5  10
BRANCH   1  22
ATOM     22  C   UNL     1       0.396  11.045  19.649  0.00  0.00    +0.000 C 
BRANCH  22  23
ATOM     23  C   UNL     1      -1.114  11.056  19.373  0.00  0.00    +0.000 C 
BRANCH  23  24
ATOM     24  C   UNL     1      -1.475  10.510  17.992  0.00  0.00    +0.000 C 
BRANCH  24  25
ATOM     25  C   UNL     1      -2.659  11.269  17.409  0.00  0.00    +0.000 C 
BRANCH  25  27
ATOM     26  C   UNL     1      -3.179  10.705  15.190  0.00  0.00    +0.000 C 
ATOM     27  O   UNL     1      -3.394  10.390  16.560  0.00  0.00    +0.000 OA
ENDBRANCH  25  27
ENDBRANCH  24  25
ENDBRANCH  23  24
ENDBRANCH  22  23
ENDBRANCH   1  22
TORSDOF 9
ENDMDL
