MODEL 1
REMARK VINA RESULT:      -6.9      0.000      0.000
REMARK  Name = 
REMARK  12 active torsions:
REMARK  status: ('A' for Active; 'I' for Inactive)
REMARK    1  A    between atoms: C_1  and  O_2
REMARK    2  A    between atoms: O_2  and  C_3
REMARK    3  A    between atoms: C_6  and  C_7
REMARK    4  A    between atoms: C_8  and  C_9
REMARK    5  A    between atoms: C_8  and  C_11
REMARK    6  A    between atoms: C_11  and  C_13
REMARK    7  A    between atoms: C_15  and  O_16
REMARK    8  A    between atoms: O_16  and  C_17
REMARK    9  A    between atoms: C_18  and  O_19
REMARK   10  A    between atoms: O_19  and  C_20
REMARK   11  A    between atoms: C_21  and  O_22
REMARK   12  A    between atoms: O_22  and  C_23
REMARK                            x       y       z     vdW  Elec       q    Type
REMARK                         _______ _______ _______ _____ _____    ______ ____
ROOT
ATOM      1  C   UNL     1       3.051   7.648  17.644  0.00  0.00    +0.000 C 
ATOM      2  O   UNL     1       3.667   8.188  16.728  0.00  0.00    +0.000 OA
ENDROOT
BRANCH   1   3
ATOM      3  C   UNL     1       3.374   6.242  18.008  0.00  0.00    +0.000 A 
ATOM      4  C   UNL     1       2.369   5.283  18.132  0.00  0.00    +0.000 A 
ATOM      5  C   UNL     1       2.678   3.974  18.501  0.00  0.00    +0.000 A 
ATOM      6  C   UNL     1       4.025   3.600  18.707  0.00  0.00    +0.000 A 
ATOM      7  C   UNL     1       5.052   4.556  18.542  0.00  0.00    +0.000 A 
ATOM      8  C   UNL     1       4.714   5.871  18.187  0.00  0.00    +0.000 A 
BRANCH   5   9
ATOM      9  O   UNL     1       1.722   3.003  18.681  0.00  0.00    +0.000 OA
ATOM     10  C   UNL     1       0.853   3.158  19.800  0.00  0.00    +0.000 C 
ENDBRANCH   5   9
BRANCH   6  11
ATOM     11  O   UNL     1       4.213   2.307  19.136  0.00  0.00    +0.000 OA
ATOM     12  C   UNL     1       4.395   2.120  20.534  0.00  0.00    +0.000 C 
ENDBRANCH   6  11
BRANCH   7  13
ATOM     13  O   UNL     1       6.339   4.149  18.772  0.00  0.00    +0.000 OA
ATOM     14  C   UNL     1       7.379   4.693  17.971  0.00  0.00    +0.000 C 
ENDBRANCH   7  13
ENDBRANCH   1   3
BRANCH   1  16
ATOM     15  C   UNL     1       1.380   9.461  17.883  0.00  0.00    +0.000 C 
ATOM     16  C   UNL     1       2.010   8.388  18.414  0.00  0.00    +0.000 C 
BRANCH  15  20
ATOM     17  C   UNL     1      -1.441  11.982  19.988  0.00  0.00    +0.000 A 
ATOM     18  C   UNL     1      -0.100  11.933  20.367  0.00  0.00    +0.000 A 
ATOM     19  C   UNL     1       0.813  11.114  19.681  0.00  0.00    +0.000 A 
ATOM     20  C   UNL     1       0.398  10.310  18.605  0.00  0.00    +0.000 A 
ATOM     21  C   UNL     1      -0.960  10.338  18.266  0.00  0.00    +0.000 A 
ATOM     22  F   UNL     1      -1.416   9.560  17.272  0.00  0.00    +0.000 F 
ATOM     23  C   UNL     1      -1.869  11.153  18.939  0.00  0.00    +0.000 A 
BRANCH  17  25
ATOM     24  C   UNL     1      -2.026  14.017  21.077  0.00  0.00    +0.000 C 
ATOM     25  O   UNL     1      -2.416  12.754  20.558  0.00  0.00    +0.000 OA
ENDBRANCH  17  25
ENDBRANCH  15  20
BRANCH  16  26
ATOM     26  C   UNL     1       1.689   8.035  19.857  0.00  0.00    +0.000 C 
ATOM     27  N   UNL     1       1.421   7.743  21.054  0.00  0.00    +0.000 NA
ENDBRANCH  16  26
ENDBRANCH   1  16
TORSDOF 8
ENDMDL
MODEL 2
REMARK VINA RESULT:      -6.8      2.408      8.586
REMARK  Name = 
REMARK  12 active torsions:
REMARK  status: ('A' for Active; 'I' for Inactive)
REMARK    1  A    between atoms: C_1  and  O_2
REMARK    2  A    between atoms: O_2  and  C_3
REMARK    3  A    between atoms: C_6  and  C_7
REMARK    4  A    between atoms: C_8  and  C_9
REMARK    5  A    between atoms: C_8  and  C_11
REMARK    6  A    between atoms: C_11  and  C_13
REMARK    7  A    between atoms: C_15  and  O_16
REMARK    8  A    between atoms: O_16  and  C_17
REMARK    9  A    between atoms: C_18  and  O_19
REMARK   10  A    between atoms: O_19  and  C_20
REMARK   11  A    between atoms: C_21  and  O_22
REMARK   12  A    between atoms: O_22  and  C_23
REMARK                            x       y       z     vdW  Elec       q    Type
REMARK                         _______ _______ _______ _____ _____    ______ ____
ROOT
ATOM      1  C   UNL     1       1.104  10.409  18.583  0.00  0.00    +0.000 C 
ATOM      2  O   UNL     1       1.853  11.382  18.538  0.00  0.00    +0.000 OA
ENDROOT
BRANCH   1   3
ATOM      3  C   UNL     1      -0.361  10.610  18.422  0.00  0.00    +0.000 A 
ATOM      4  C   UNL     1      -1.068  11.456  19.275  0.00  0.00    +0.000 A 
ATOM      5  C   UNL     1      -2.446  11.617  19.134  0.00  0.00    +0.000 A 
ATOM      6  C   UNL     1      -3.129  10.955  18.088  0.00  0.00    +0.000 A 
ATOM      7  C   UNL     1      -2.411  10.130  17.194  0.00  0.00    +0.000 A 
ATOM      8  C   UNL     1      -1.028   9.971  17.368  0.00  0.00    +0.000 A 
BRANCH   5   9
ATOM      9  O   UNL     1      -3.198  12.403  19.975  0.00  0.00    +0.000 OA
ATOM     10  C   UNL     1      -2.516  13.465  20.637  0.00  0.00    +0.000 C 
ENDBRANCH   5   9
BRANCH   6  11
ATOM     11  O   UNL     1      -4.494  11.125  18.082  0.00  0.00    +0.000 OA
ATOM     12  C   UNL     1      -5.019  12.010  17.100  0.00  0.00    +0.000 C 
ENDBRANCH   6  11
BRANCH   7  13
ATOM     13  O   UNL     1      -3.122   9.495  16.210  0.00  0.00    +0.000 OA
ATOM     14  C   UNL     1      -3.015   9.974  14.877  0.00  0.00    +0.000 C 
ENDBRANCH   7  13
ENDBRANCH   1   3
BRANCH   1  16
ATOM     15  C   UNL     1       2.206   8.357  17.736  0.00  0.00    +0.000 C 
ATOM     16  C   UNL     1       1.643   9.030  18.766  0.00  0.00    +0.000 C 
BRANCH  15  20
ATOM     17  C   UNL     1       3.558   4.248  17.896  0.00  0.00    +0.000 A 
ATOM     18  C   UNL     1       2.214   4.568  18.074  0.00  0.00    +0.000 A 
ATOM     19  C   UNL     1       1.777   5.904  18.021  0.00  0.00    +0.000 A 
ATOM     20  C   UNL     1       2.686   6.954  17.803  0.00  0.00    +0.000 A 
ATOM     21  C   UNL     1       4.039   6.618  17.670  0.00  0.00    +0.000 A 
ATOM     22  F   UNL     1       4.953   7.586  17.500  0.00  0.00    +0.000 F 
ATOM     23  C   UNL     1       4.476   5.295  17.716  0.00  0.00    +0.000 A 
BRANCH  17  25
ATOM     24  C   UNL     1       3.239   1.915  18.247  0.00  0.00    +0.000 C 
ATOM     25  O   UNL     1       4.099   2.991  17.901  0.00  0.00    +0.000 OA
ENDBRANCH  17  25
ENDBRANCH  15  20
BRANCH  16  26
ATOM     26  C   UNL     1       1.490   8.287  20.083  0.00  0.00    +0.000 C 
ATOM     27  N   UNL     1       1.363   7.669  21.175  0.00  0.00    +0.000 NA
ENDBRANCH  16  26
ENDBRANCH   1  16
TORSDOF 8
ENDMDL
MODEL 3
REMARK VINA RESULT:      -6.8      0.794      2.561
REMARK  Name = 
REMARK  12 active torsions:
REMARK  status: ('A' for Active; 'I' for Inactive)
REMARK    1  A    between atoms: C_1  and  O_2
REMARK    2  A    between atoms: O_2  and  C_3
REMARK    3  A    between atoms: C_6  and  C_7
REMARK    4  A    between atoms: C_8  and  C_9
REMARK    5  A    between atoms: C_8  and  C_11
REMARK    6  A    between atoms: C_11  and  C_13
REMARK    7  A    between atoms: C_15  and  O_16
REMARK    8  A    between atoms: O_16  and  C_17
REMARK    9  A    between atoms: C_18  and  O_19
REMARK   10  A    between atoms: O_19  and  C_20
REMARK   11  A    between atoms: C_21  and  O_22
REMARK   12  A    between atoms: O_22  and  C_23
REMARK                            x       y       z     vdW  Elec       q    Type
REMARK                         _______ _______ _______ _____ _____    ______ ____
ROOT
ATOM      1  C   UNL     1       2.888   7.729  17.847  0.00  0.00    +0.000 C 
ATOM      2  O   UNL     1       3.510   8.205  16.901  0.00  0.00    +0.000 OA
ENDROOT
BRANCH   1   3
ATOM      3  C   UNL     1       3.196   6.346  18.299  0.00  0.00    +0.000 A 
ATOM      4  C   UNL     1       4.509   5.881  18.346  0.00  0.00    +0.000 A 
ATOM      5  C   UNL     1       4.787   4.574  18.744  0.00  0.00    +0.000 A 
ATOM      6  C   UNL     1       3.733   3.723  19.150  0.00  0.00    +0.000 A 
ATOM      7  C   UNL     1       2.405   4.201  19.145  0.00  0.00    +0.000 A 
ATOM      8  C   UNL     1       2.150   5.516  18.724  0.00  0.00    +0.000 A 
BRANCH   5   9
ATOM      9  O   UNL     1       6.058   4.052  18.766  0.00  0.00    +0.000 OA
ATOM     10  C   UNL     1       7.115   4.925  18.375  0.00  0.00    +0.000 C 
ENDBRANCH   5   9
BRANCH   6  11
ATOM     11  O   UNL     1       4.108   2.435  19.455  0.00  0.00    +0.000 OA
ATOM     12  C   UNL     1       3.774   1.433  18.502  0.00  0.00    +0.000 C 
ENDBRANCH   6  11
BRANCH   7  13
ATOM     13  O   UNL     1       1.418   3.332  19.528  0.00  0.00    +0.000 OA
ATOM     14  C   UNL     1       1.164   3.159  20.915  0.00  0.00    +0.000 C 
ENDBRANCH   7  13
ENDBRANCH   1   3
BRANCH   1  16
ATOM     15  C   UNL     1       1.176   9.519  17.943  0.00  0.00    +0.000 C 
ATOM     16  C   UNL     1       1.852   8.526  18.567  0.00  0.00    +0.000 C 
BRANCH  15  20
ATOM     17  C   UNL     1      -1.642  12.191  19.856  0.00  0.00    +0.000 A 
ATOM     18  C   UNL     1      -0.295  12.190  20.216  0.00  0.00    +0.000 A 
ATOM     19  C   UNL     1       0.618  11.321  19.593  0.00  0.00    +0.000 A 
ATOM     20  C   UNL     1       0.196  10.419  18.601  0.00  0.00    +0.000 A 
ATOM     21  C   UNL     1      -1.168  10.402  18.283  0.00  0.00    +0.000 A 
ATOM     22  F   UNL     1      -1.630   9.532  17.372  0.00  0.00    +0.000 F 
ATOM     23  C   UNL     1      -2.076  11.266  18.894  0.00  0.00    +0.000 A 
BRANCH  17  25
ATOM     24  C   UNL     1      -3.965  12.659  20.083  0.00  0.00    +0.000 C 
ATOM     25  O   UNL     1      -2.617  13.001  20.370  0.00  0.00    +0.000 OA
ENDBRANCH  17  25
ENDBRANCH  15  20
BRANCH  16  26
ATOM     26  C   UNL     1       1.588   8.330  20.051  0.00  0.00    +0.000 C 
ATOM     27  N   UNL     1       1.371   8.166  21.282  0.00  0.00    +0.000 NA
ENDBRANCH  16  26
ENDBRANCH   1  16
TORSDOF 8
ENDMDL
MODEL 4
REMARK VINA RESULT:      -6.8      3.296      8.253
REMARK  Name = 
REMARK  12 active torsions:
REMARK  status: ('A' for Active; 'I' for Inactive)
REMARK    1  A    between atoms: C_1  and  O_2
REMARK    2  A    between atoms: O_2  and  C_3
REMARK    3  A    between atoms: C_6  and  C_7
REMARK    4  A    between atoms: C_8  and  C_9
REMARK    5  A    between atoms: C_8  and  C_11
REMARK    6  A    between atoms: C_11  and  C_13
REMARK    7  A    between atoms: C_15  and  O_16
REMARK    8  A    between atoms: O_16  and  C_17
REMARK    9  A    between atoms: C_18  and  O_19
REMARK   10  A    between atoms: O_19  and  C_20
REMARK   11  A    between atoms: C_21  and  O_22
REMARK   12  A    between atoms: O_22  and  C_23
REMARK                            x       y       z     vdW  Elec       q    Type
REMARK                         _______ _______ _______ _____ _____    ______ ____
ROOT
ATOM      1  C   UNL     1       2.134   6.023  20.295  0.00  0.00    +0.000 C 
ATOM      2  O   UNL     1       2.027   5.300  21.283  0.00  0.00    +0.000 OA
ENDROOT
BRANCH   1   3
ATOM      3  C   UNL     1       1.674   7.435  20.374  0.00  0.00    +0.000 A 
ATOM      4  C   UNL     1       1.498   8.066  21.605  0.00  0.00    +0.000 A 
ATOM      5  C   UNL     1       1.041   9.381  21.671  0.00  0.00    +0.000 A 
ATOM      6  C   UNL     1       0.796  10.102  20.479  0.00  0.00    +0.000 A 
ATOM      7  C   UNL     1       1.013   9.483  19.229  0.00  0.00    +0.000 A 
ATOM      8  C   UNL     1       1.458   8.152  19.190  0.00  0.00    +0.000 A 
BRANCH   5   9
ATOM      9  O   UNL     1       0.808  10.034  22.858  0.00  0.00    +0.000 OA
ATOM     10  C   UNL     1      -0.469   9.834  23.459  0.00  0.00    +0.000 C 
ENDBRANCH   5   9
BRANCH   6  11
ATOM     11  O   UNL     1       0.281  11.365  20.656  0.00  0.00    +0.000 OA
ATOM     12  C   UNL     1       1.199  12.446  20.553  0.00  0.00    +0.000 C 
ENDBRANCH   6  11
BRANCH   7  13
ATOM     13  O   UNL     1       0.742  10.216  18.104  0.00  0.00    +0.000 OA
ATOM     14  C   UNL     1      -0.599  10.283  17.642  0.00  0.00    +0.000 C 
ENDBRANCH   7  13
ENDBRANCH   1   3
BRANCH   1  16
ATOM     15  C   UNL     1       4.010   5.842  18.687  0.00  0.00    +0.000 C 
ATOM     16  C   UNL     1       2.743   5.515  19.032  0.00  0.00    +0.000 C 
BRANCH  15  20
ATOM     17  C   UNL     1       5.956   4.775  14.969  0.00  0.00    +0.000 A 
ATOM     18  C   UNL     1       5.474   6.066  15.183  0.00  0.00    +0.000 A 
ATOM     19  C   UNL     1       4.842   6.409  16.391  0.00  0.00    +0.000 A 
ATOM     20  C   UNL     1       4.666   5.458  17.411  0.00  0.00    +0.000 A 
ATOM     21  C   UNL     1       5.116   4.155  17.163  0.00  0.00    +0.000 A 
ATOM     22  F   UNL     1       4.937   3.199  18.088  0.00  0.00    +0.000 F 
ATOM     23  C   UNL     1       5.748   3.811  15.969  0.00  0.00    +0.000 A 
BRANCH  17  25
ATOM     24  C   UNL     1       5.847   3.575  12.916  0.00  0.00    +0.000 C 
ATOM     25  O   UNL     1       6.605   4.328  13.852  0.00  0.00    +0.000 OA
ENDBRANCH  17  25
ENDBRANCH  15  20
BRANCH  16  26
ATOM     26  C   UNL     1       1.937   4.701  18.033  0.00  0.00    +0.000 C 
ATOM     27  N   UNL     1       1.268   4.025  17.205  0.00  0.00    +0.000 NA
ENDBRANCH  16  26
ENDBRANCH   1  16
TORSDOF 8
ENDMDL
MODEL 5
REMARK VINA RESULT:      -6.8      3.116      8.234
REMARK  Name = 
REMARK  12 active torsions:
REMARK  status: ('A' for Active; 'I' for Inactive)
REMARK    1  A    between atoms: C_1  and  O_2
REMARK    2  A    between atoms: O_2  and  C_3
REMARK    3  A    between atoms: C_6  and  C_7
REMARK    4  A    between atoms: C_8  and  C_9
REMARK    5  A    between atoms: C_8  and  C_11
REMARK    6  A    between atoms: C_11  and  C_13
REMARK    7  A    between atoms: C_15  and  O_16
REMARK    8  A    between atoms: O_16  and  C_17
REMARK    9  A    between atoms: C_18  and  O_19
REMARK   10  A    between atoms: O_19  and  C_20
REMARK   11  A    between atoms: C_21  and  O_22
REMARK   12  A    between atoms: O_22  and  C_23
REMARK                            x       y       z     vdW  Elec       q    Type
REMARK                         _______ _______ _______ _____ _____    ______ ____
ROOT
ATOM      1  C   UNL     1       1.801   6.352  20.315  0.00  0.00    +0.000 C 
ATOM      2  O   UNL     1       1.363   5.601  21.183  0.00  0.00    +0.000 OA
ENDROOT
BRANCH   1   3
ATOM      3  C   UNL     1       1.492   7.805  20.387  0.00  0.00    +0.000 A 
ATOM      4  C   UNL     1       1.151   8.409  21.597  0.00  0.00    +0.000 A 
ATOM      5  C   UNL     1       0.836   9.766  21.650  0.00  0.00    +0.000 A 
ATOM      6  C   UNL     1       0.907  10.551  20.477  0.00  0.00    +0.000 A 
ATOM      7  C   UNL     1       1.292   9.956  19.256  0.00  0.00    +0.000 A 
ATOM      8  C   UNL     1       1.588   8.584  19.226  0.00  0.00    +0.000 A 
BRANCH   5   9
ATOM      9  O   UNL     1       0.451  10.400  22.807  0.00  0.00    +0.000 OA
ATOM     10  C   UNL     1      -0.895  10.197  23.231  0.00  0.00    +0.000 C 
ENDBRANCH   5   9
BRANCH   6  11
ATOM     11  O   UNL     1       0.508  11.860  20.625  0.00  0.00    +0.000 OA
ATOM     12  C   UNL     1      -0.812  12.175  20.201  0.00  0.00    +0.000 C 
ENDBRANCH   6  11
BRANCH   7  13
ATOM     13  O   UNL     1       1.326  10.755  18.145  0.00  0.00    +0.000 OA
ATOM     14  C   UNL     1       2.408  11.663  17.992  0.00  0.00    +0.000 C 
ENDBRANCH   7  13
ENDBRANCH   1   3
BRANCH   1  16
ATOM     15  C   UNL     1       3.918   6.297  19.029  0.00  0.00    +0.000 C 
ATOM     16  C   UNL     1       2.659   5.835  19.211  0.00  0.00    +0.000 C 
BRANCH  15  20
ATOM     17  C   UNL     1       6.525   5.219  15.744  0.00  0.00    +0.000 A 
ATOM     18  C   UNL     1       5.503   6.152  15.574  0.00  0.00    +0.000 A 
ATOM     19  C   UNL     1       4.658   6.500  16.643  0.00  0.00    +0.000 A 
ATOM     20  C   UNL     1       4.810   5.907  17.908  0.00  0.00    +0.000 A 
ATOM     21  C   UNL     1       5.813   4.939  18.050  0.00  0.00    +0.000 A 
ATOM     22  F   UNL     1       5.974   4.313  19.226  0.00  0.00    +0.000 F 
ATOM     23  C   UNL     1       6.656   4.595  16.995  0.00  0.00    +0.000 A 
BRANCH  17  25
ATOM     24  C   UNL     1       6.902   4.444  13.525  0.00  0.00    +0.000 C 
ATOM     25  O   UNL     1       7.422   4.818  14.793  0.00  0.00    +0.000 OA
ENDBRANCH  17  25
ENDBRANCH  15  20
BRANCH  16  26
ATOM     26  C   UNL     1       2.125   4.849  18.184  0.00  0.00    +0.000 C 
ATOM     27  N   UNL     1       1.682   4.032  17.332  0.00  0.00    +0.000 NA
ENDBRANCH  16  26
ENDBRANCH   1  16
TORSDOF 8
ENDMDL
MODEL 6
REMARK VINA RESULT:      -6.7      2.925      8.244
REMARK  Name = 
REMARK  12 active torsions:
REMARK  status: ('A' for Active; 'I' for Inactive)
REMARK    1  A    between atoms: C_1  and  O_2
REMARK    2  A    between atoms: O_2  and  C_3
REMARK    3  A    between atoms: C_6  and  C_7
REMARK    4  A    between atoms: C_8  and  C_9
REMARK    5  A    between atoms: C_8  and  C_11
REMARK    6  A    between atoms: C_11  and  C_13
REMARK    7  A    between atoms: C_15  and  O_16
REMARK    8  A    between atoms: O_16  and  C_17
REMARK    9  A    between atoms: C_18  and  O_19
REMARK   10  A    between atoms: O_19  and  C_20
REMARK   11  A    between atoms: C_21  and  O_22
REMARK   12  A    between atoms: O_22  and  C_23
REMARK                            x       y       z     vdW  Elec       q    Type
REMARK                         _______ _______ _______ _____ _____    ______ ____
ROOT
ATOM      1  C   UNL     1       2.044   6.186  20.367  0.00  0.00    +0.000 C 
ATOM      2  O   UNL     1       1.838   5.448  21.327  0.00  0.00    +0.000 OA
ENDROOT
BRANCH   1   3
ATOM      3  C   UNL     1       1.608   7.606  20.433  0.00  0.00    +0.000 A 
ATOM      4  C   UNL     1       1.549   8.395  19.285  0.00  0.00    +0.000 A 
ATOM      5  C   UNL     1       1.166   9.733  19.361  0.00  0.00    +0.000 A 
ATOM      6  C   UNL     1       0.788  10.288  20.604  0.00  0.00    +0.000 A 
ATOM      7  C   UNL     1       0.804   9.483  21.765  0.00  0.00    +0.000 A 
ATOM      8  C   UNL     1       1.210   8.143  21.665  0.00  0.00    +0.000 A 
BRANCH   5   9
ATOM      9  O   UNL     1       1.135  10.566  18.267  0.00  0.00    +0.000 OA
ATOM     10  C   UNL     1       2.392  11.023  17.774  0.00  0.00    +0.000 C 
ENDBRANCH   5   9
BRANCH   6  11
ATOM     11  O   UNL     1       0.496  11.632  20.580  0.00  0.00    +0.000 OA
ATOM     12  C   UNL     1       1.562  12.520  20.891  0.00  0.00    +0.000 C 
ENDBRANCH   6  11
BRANCH   7  13
ATOM     13  O   UNL     1       0.447  10.072  22.948  0.00  0.00    +0.000 OA
ATOM     14  C   UNL     1      -0.930  10.307  23.204  0.00  0.00    +0.000 C 
ENDBRANCH   7  13
ENDBRANCH   1   3
BRANCH   1  16
ATOM     15  C   UNL     1       4.028   6.046  18.888  0.00  0.00    +0.000 C 
ATOM     16  C   UNL     1       2.750   5.688  19.150  0.00  0.00    +0.000 C 
BRANCH  15  20
ATOM     17  C   UNL     1       6.196   4.898  15.321  0.00  0.00    +0.000 A 
ATOM     18  C   UNL     1       6.283   4.142  16.489  0.00  0.00    +0.000 A 
ATOM     19  C   UNL     1       5.577   4.517  17.646  0.00  0.00    +0.000 A 
ATOM     20  C   UNL     1       4.778   5.673  17.662  0.00  0.00    +0.000 A 
ATOM     21  C   UNL     1       4.737   6.446  16.495  0.00  0.00    +0.000 A 
ATOM     22  F   UNL     1       4.020   7.580  16.469  0.00  0.00    +0.000 F 
ATOM     23  C   UNL     1       5.430   6.074  15.343  0.00  0.00    +0.000 A 
BRANCH  17  25
ATOM     24  C   UNL     1       6.193   3.670  13.282  0.00  0.00    +0.000 C 
ATOM     25  O   UNL     1       6.813   4.624  14.131  0.00  0.00    +0.000 OA
ENDBRANCH  17  25
ENDBRANCH  15  20
BRANCH  16  26
ATOM     26  C   UNL     1       2.034   4.846  18.106  0.00  0.00    +0.000 C 
ATOM     27  N   UNL     1       1.440   4.149  17.240  0.00  0.00    +0.000 NA
ENDBRANCH  16  26
ENDBRANCH   1  16
TORSDOF 8
ENDMDL
MODEL 7
REMARK VINA RESULT:      -6.7      2.417      8.541
REMARK  Name = 
REMARK  12 active torsions:
REMARK  status: ('A' for Active; 'I' for Inactive)
REMARK    1  A    between atoms: C_1  and  O_2
REMARK    2  A    between atoms: O_2  and  C_3
REMARK    3  A    between atoms: C_6  and  C_7
REMARK    4  A    between atoms: C_8  and  C_9
REMARK    5  A    between atoms: C_8  and  C_11
REMARK    6  A    between atoms: C_11  and  C_13
REMARK    7  A    between atoms: C_15  and  O_16
REMARK    8  A    between atoms: O_16  and  C_17
REMARK    9  A    between atoms: C_18  and  O_19
REMARK   10  A    between atoms: O_19  and  C_20
REMARK   11  A    between atoms: C_21  and  O_22
REMARK   12  A    between atoms: O_22  and  C_23
REMARK                            x       y       z     vdW  Elec       q    Type
REMARK                         _______ _______ _______ _____ _____    ______ ____
ROOT
ATOM      1  C   UNL     1       1.046  10.505  18.523  0.00  0.00    +0.000 C 
ATOM      2  O   UNL     1       1.809  11.463  18.419  0.00  0.00    +0.000 OA
ENDROOT
BRANCH   1   3
ATOM      3  C   UNL     1      -0.416  10.716  18.346  0.00  0.00    +0.000 A 
ATOM      4  C   UNL     1      -1.121  10.054  17.342  0.00  0.00    +0.000 A 
ATOM      5  C   UNL     1      -2.485  10.279  17.165  0.00  0.00    +0.000 A 
ATOM      6  C   UNL     1      -3.174  11.151  18.039  0.00  0.00    +0.000 A 
ATOM      7  C   UNL     1      -2.475  11.792  19.085  0.00  0.00    +0.000 A 
ATOM      8  C   UNL     1      -1.098  11.562  19.231  0.00  0.00    +0.000 A 
BRANCH   5   9
ATOM      9  O   UNL     1      -3.218   9.687  16.164  0.00  0.00    +0.000 OA
ATOM     10  C   UNL     1      -3.016  10.183  14.843  0.00  0.00    +0.000 C 
ENDBRANCH   5   9
BRANCH   6  11
ATOM     11  O   UNL     1      -4.500  11.357  17.734  0.00  0.00    +0.000 OA
ATOM     12  C   UNL     1      -5.450  10.649  18.520  0.00  0.00    +0.000 C 
ENDBRANCH   6  11
BRANCH   7  13
ATOM     13  O   UNL     1      -3.183  12.642  19.892  0.00  0.00    +0.000 OA
ATOM     14  C   UNL     1      -2.880  12.673  21.280  0.00  0.00    +0.000 C 
ENDBRANCH   7  13
ENDBRANCH   1   3
BRANCH   1  16
ATOM     15  C   UNL     1       2.116   8.387  17.809  0.00  0.00    +0.000 C 
ATOM     16  C   UNL     1       1.565   9.133  18.794  0.00  0.00    +0.000 C 
BRANCH  15  20
ATOM     17  C   UNL     1       3.410   4.277  18.230  0.00  0.00    +0.000 A 
ATOM     18  C   UNL     1       2.067   4.626  18.371  0.00  0.00    +0.000 A 
ATOM     19  C   UNL     1       1.650   5.961  18.233  0.00  0.00    +0.000 A 
ATOM     20  C   UNL     1       2.576   6.984  17.965  0.00  0.00    +0.000 A 
ATOM     21  C   UNL     1       3.926   6.624  17.871  0.00  0.00    +0.000 A 
ATOM     22  F   UNL     1       4.855   7.567  17.655  0.00  0.00    +0.000 F 
ATOM     23  C   UNL     1       4.344   5.300  18.001  0.00  0.00    +0.000 A 
BRANCH  17  25
ATOM     24  C   UNL     1       3.090   1.935  17.946  0.00  0.00    +0.000 C 
ATOM     25  O   UNL     1       3.933   3.016  18.317  0.00  0.00    +0.000 OA
ENDBRANCH  17  25
ENDBRANCH  15  20
BRANCH  16  26
ATOM     26  C   UNL     1       1.404   8.478  20.156  0.00  0.00    +0.000 C 
ATOM     27  N   UNL     1       1.271   7.935  21.286  0.00  0.00    +0.000 NA
ENDBRANCH  16  26
ENDBRANCH   1  16
TORSDOF 8
ENDMDL
MODEL 8
REMARK VINA RESULT:      -6.7      1.191      2.852
REMARK  Name = 
REMARK  12 active torsions:
REMARK  status: ('A' for Active; 'I' for Inactive)
REMARK    1  A    between atoms: C_1  and  O_2
REMARK    2  A    between atoms: O_2  and  C_3
REMARK    3  A    between atoms: C_6  and  C_7
REMARK    4  A    between atoms: C_8  and  C_9
REMARK    5  A    between atoms: C_8  and  C_11
REMARK    6  A    between atoms: C_11  and  C_13
REMARK    7  A    between atoms: C_15  and  O_16
REMARK    8  A    between atoms: O_16  and  C_17
REMARK    9  A    between atoms: C_18  and  O_19
REMARK   10  A    between atoms: O_19  and  C_20
REMARK   11  A    between atoms: C_21  and  O_22
REMARK   12  A    between atoms: O_22  and  C_23
REMARK                            x       y       z     vdW  Elec       q    Type
REMARK                         _______ _______ _______ _____ _____    ______ ____
ROOT
ATOM      1  C   UNL     1       2.849   7.669  17.861  0.00  0.00    +0.000 C 
ATOM      2  O   UNL     1       3.459   8.097  16.884  0.00  0.00    +0.000 OA
ENDROOT
BRANCH   1   3
ATOM      3  C   UNL     1       3.184   6.322  18.395  0.00  0.00    +0.000 A 
ATOM      4  C   UNL     1       4.507   5.892  18.482  0.00  0.00    +0.000 A 
ATOM      5  C   UNL     1       4.810   4.616  18.958  0.00  0.00    +0.000 A 
ATOM      6  C   UNL     1       3.772   3.765  19.400  0.00  0.00    +0.000 A 
ATOM      7  C   UNL     1       2.433   4.210  19.355  0.00  0.00    +0.000 A 
ATOM      8  C   UNL     1       2.153   5.492  18.855  0.00  0.00    +0.000 A 
BRANCH   5   9
ATOM      9  O   UNL     1       6.094   4.127  19.022  0.00  0.00    +0.000 OA
ATOM     10  C   UNL     1       7.036   4.679  18.106  0.00  0.00    +0.000 C 
ENDBRANCH   5   9
BRANCH   6  11
ATOM     11  O   UNL     1       4.173   2.506  19.783  0.00  0.00    +0.000 OA
ATOM     12  C   UNL     1       4.001   1.466  18.828  0.00  0.00    +0.000 C 
ENDBRANCH   6  11
BRANCH   7  13
ATOM     13  O   UNL     1       1.463   3.341  19.776  0.00  0.00    +0.000 OA
ATOM     14  C   UNL     1       0.702   2.644  18.799  0.00  0.00    +0.000 C 
ENDBRANCH   7  13
ENDBRANCH   1   3
BRANCH   1  16
ATOM     15  C   UNL     1       1.111   9.436  17.858  0.00  0.00    +0.000 C 
ATOM     16  C   UNL     1       1.803   8.490  18.536  0.00  0.00    +0.000 C 
BRANCH  15  20
ATOM     17  C   UNL     1      -1.819  12.074  19.646  0.00  0.00    +0.000 A 
ATOM     18  C   UNL     1      -2.209  11.026  18.815  0.00  0.00    +0.000 A 
ATOM     19  C   UNL     1      -1.255  10.170  18.236  0.00  0.00    +0.000 A 
ATOM     20  C   UNL     1       0.119  10.357  18.466  0.00  0.00    +0.000 A 
ATOM     21  C   UNL     1       0.496  11.442  19.268  0.00  0.00    +0.000 A 
ATOM     22  F   UNL     1       1.797  11.689  19.488  0.00  0.00    +0.000 F 
ATOM     23  C   UNL     1      -0.446  12.289  19.849  0.00  0.00    +0.000 A 
BRANCH  17  25
ATOM     24  C   UNL     1      -4.046  12.718  20.187  0.00  0.00    +0.000 C 
ATOM     25  O   UNL     1      -2.649  12.954  20.284  0.00  0.00    +0.000 OA
ENDBRANCH  17  25
ENDBRANCH  15  20
BRANCH  16  26
ATOM     26  C   UNL     1       1.543   8.373  20.029  0.00  0.00    +0.000 C 
ATOM     27  N   UNL     1       1.328   8.276  21.268  0.00  0.00    +0.000 NA
ENDBRANCH  16  26
ENDBRANCH   1  16
TORSDOF 8
ENDMDL
MODEL 9
REMARK VINA RESULT:      -6.7      1.499      1.754
REMARK  Name = 
REMARK  12 active torsions:
REMARK  status: ('A' for Active; 'I' for Inactive)
REMARK    1  A    between atoms: C_1  and  O_2
REMARK    2  A    between atoms: O_2  and  C_3
REMARK    3  A    between atoms: C_6  and  C_7
REMARK    4  A    between atoms: C_8  and  C_9
REMARK    5  A    between atoms: C_8  and  C_11
REMARK    6  A    between atoms: C_11  and  C_13
REMARK    7  A    between atoms: C_15  and  O_16
REMARK    8  A    between atoms: O_16  and  C_17
REMARK    9  A    between atoms: C_18  and  O_19
REMARK   10  A    between atoms: O_19  and  C_20
REMARK   11  A    between atoms: C_21  and  O_22
REMARK   12  A    between atoms: O_22  and  C_23
REMARK                            x       y       z     vdW  Elec       q    Type
REMARK                         _______ _______ _______ _____ _____    ______ ____
ROOT
ATOM      1  C   UNL     1       3.255   7.565  17.977  0.00  0.00    +0.000 C 
ATOM      2  O   UNL     1       4.297   8.134  17.658  0.00  0.00    +0.000 OA
ENDROOT
BRANCH   1   3
ATOM      3  C   UNL     1       3.165   6.086  17.850  0.00  0.00    +0.000 A 
ATOM      4  C   UNL     1       2.080   5.384  18.374  0.00  0.00    +0.000 A 
ATOM      5  C   UNL     1       2.017   3.995  18.276  0.00  0.00    +0.000 A 
ATOM      6  C   UNL     1       3.039   3.291  17.599  0.00  0.00    +0.000 A 
ATOM      7  C   UNL     1       4.120   3.998  17.029  0.00  0.00    +0.000 A 
ATOM      8  C   UNL     1       4.168   5.395  17.157  0.00  0.00    +0.000 A 
BRANCH   5   9
ATOM      9  O   UNL     1       0.993   3.252  18.813  0.00  0.00    +0.000 OA
ATOM     10  C   UNL     1       0.877   3.256  20.234  0.00  0.00    +0.000 C 
ENDBRANCH   5   9
BRANCH   6  11
ATOM     11  O   UNL     1       2.917   1.920  17.621  0.00  0.00    +0.000 OA
ATOM     12  C   UNL     1       3.709   1.227  18.577  0.00  0.00    +0.000 C 
ENDBRANCH   6  11
BRANCH   7  13
ATOM     13  O   UNL     1       5.094   3.268  16.401  0.00  0.00    +0.000 OA
ATOM     14  C   UNL     1       6.137   3.961  15.729  0.00  0.00    +0.000 C 
ENDBRANCH   7  13
ENDBRANCH   1   3
BRANCH   1  16
ATOM     15  C   UNL     1       1.434   9.231  17.749  0.00  0.00    +0.000 C 
ATOM     16  C   UNL     1       2.094   8.331  18.515  0.00  0.00    +0.000 C 
BRANCH  15  20
ATOM     17  C   UNL     1      -1.824  11.712  19.152  0.00  0.00    +0.000 A 
ATOM     18  C   UNL     1      -2.062  10.610  18.332  0.00  0.00    +0.000 A 
ATOM     19  C   UNL     1      -1.002   9.806  17.879  0.00  0.00    +0.000 A 
ATOM     20  C   UNL     1       0.328  10.099  18.225  0.00  0.00    +0.000 A 
ATOM     21  C   UNL     1       0.554  11.235  19.012  0.00  0.00    +0.000 A 
ATOM     22  F   UNL     1       1.809  11.583  19.339  0.00  0.00    +0.000 F 
ATOM     23  C   UNL     1      -0.494  12.033  19.469  0.00  0.00    +0.000 A 
BRANCH  17  25
ATOM     24  C   UNL     1      -2.887  12.599  21.089  0.00  0.00    +0.000 C 
ATOM     25  O   UNL     1      -2.768  12.553  19.674  0.00  0.00    +0.000 OA
ENDBRANCH  17  25
ENDBRANCH  15  20
BRANCH  16  26
ATOM     26  C   UNL     1       1.669   8.211  19.970  0.00  0.00    +0.000 C 
ATOM     27  N   UNL     1       1.318   8.112  21.176  0.00  0.00    +0.000 NA
ENDBRANCH  16  26
ENDBRANCH   1  16
TORSDOF 8
ENDMDL
