MODEL 1
REMARK VINA RESULT:      -6.7      0.000      0.000
REMARK  Name = 
REMARK  5 active torsions:
REMARK  status: ('A' for Active; 'I' for Inactive)
REMARK    1  A    between atoms: C_1  and  C_2
REMARK    2  A    between atoms: CA_3  and  N_4
REMARK    3  A    between atoms: CA_3  and  C_14
REMARK    4  A    between atoms: C_5  and  C_7
REMARK    5  A    between atoms: C_14  and  OXT_16
REMARK                            x       y       z     vdW  Elec       q    Type
REMARK                         _______ _______ _______ _____ _____    ______ ____
ROOT
ATOM      1  N   UNL     1       5.250   3.729  16.053  0.00  0.00    +0.000 N 
ATOM      2  C   UNL     1       4.427   4.539  16.824  0.00  0.00    +0.000 C 
ATOM      3  O   UNL     1       4.365   5.763  16.745  0.00  0.00    +0.000 OA
ATOM      4  H   UNL     1       5.272   2.737  16.261  0.00  0.00    +0.000 HD
ENDROOT
BRANCH   2   5
ATOM      5  C   UNL     1       3.623   3.901  17.914  0.00  0.00    +0.000 A 
ATOM      6  C   UNL     1       4.169   3.059  18.889  0.00  0.00    +0.000 A 
ATOM      7  C   UNL     1       3.380   2.646  19.973  0.00  0.00    +0.000 A 
ATOM      8  C   UNL     1       2.055   3.067  20.082  0.00  0.00    +0.000 A 
ATOM      9 CL   UNL     1       1.122   2.622  21.456  0.00  0.00    +0.000 Cl
ATOM     10  C   UNL     1       1.492   3.872  19.099  0.00  0.00    +0.000 A 
ATOM     11  C   UNL     1       2.275   4.286  18.017  0.00  0.00    +0.000 A 
ENDBRANCH   2   5
BRANCH   1  14
ATOM     12  C   UNL     1       4.932   3.356  12.907  0.00  0.00    +0.000 C 
ATOM     13  C   UNL     1       5.980   4.054  13.715  0.00  0.00    +0.000 C 
ATOM     14  CA  UNL     1       6.127   4.134  15.049  0.00  0.00    +0.000 C 
BRANCH  14  15
ATOM     15  C   UNL     1       7.441   4.732  15.498  0.00  0.00    +0.000 C 
ATOM     16  O   UNL     1       7.991   4.526  16.561  0.00  0.00    +0.000 OA
BRANCH  15  17
ATOM     17  OXT UNL     1       7.934   5.576  14.556  0.00  0.00    +0.000 OA
ATOM     18  HXT UNL     1       8.434   5.086  13.876  0.00  0.00    +0.000 HD
ENDBRANCH  15  17
ENDBRANCH  14  15
ENDBRANCH   1  14
TORSDOF 4
ENDMDL
MODEL 2
REMARK VINA RESULT:      -6.6      4.093      6.398
REMARK  Name = 
REMARK  5 active torsions:
REMARK  status: ('A' for Active; 'I' for Inactive)
REMARK    1  A    between atoms: C_1  and  C_2
REMARK    2  A    between atoms: CA_3  and  N_4
REMARK    3  A    between atoms: CA_3  and  C_14
REMARK    4  A    between atoms: C_5  and  C_7
REMARK    5  A    between atoms: C_14  and  OXT_16
REMARK                            x       y       z     vdW  Elec       q    Type
REMARK                         _______ _______ _______ _____ _____    ______ ____
ROOT
ATOM      1  N   UNL     1       3.108   4.014  18.880  0.00  0.00    +0.000 N 
ATOM      2  C   UNL     1       4.478   3.846  19.037  0.00  0.00    +0.000 C 
ATOM      3  O   UNL     1       5.012   2.939  19.669  0.00  0.00    +0.000 OA
ATOM      4  H   UNL     1       2.781   4.845  18.401  0.00  0.00    +0.000 HD
ENDROOT
BRANCH   2   5
ATOM      5  C   UNL     1       5.388   4.902  18.490  0.00  0.00    +0.000 A 
ATOM      6  C   UNL     1       5.002   5.830  17.515  0.00  0.00    +0.000 A 
ATOM      7  C   UNL     1       5.858   6.892  17.188  0.00  0.00    +0.000 A 
ATOM      8  C   UNL     1       7.092   7.026  17.825  0.00  0.00    +0.000 A 
ATOM      9 CL   UNL     1       8.097   8.376  17.475  0.00  0.00    +0.000 Cl
ATOM     10  C   UNL     1       7.500   6.089  18.767  0.00  0.00    +0.000 A 
ATOM     11  C   UNL     1       6.650   5.029  19.096  0.00  0.00    +0.000 A 
ENDBRANCH   2   5
BRANCH   1  14
ATOM     12  C   UNL     1       2.273   3.557  21.919  0.00  0.00    +0.000 C 
ATOM     13  C   UNL     1       1.680   3.040  20.646  0.00  0.00    +0.000 C 
ATOM     14  CA  UNL     1       2.099   3.192  19.377  0.00  0.00    +0.000 C 
BRANCH  14  15
ATOM     15  C   UNL     1       1.372   2.328  18.372  0.00  0.00    +0.000 C 
ATOM     16  O   UNL     1       0.191   2.045  18.399  0.00  0.00    +0.000 OA
BRANCH  15  17
ATOM     17  OXT UNL     1       2.227   1.866  17.425  0.00  0.00    +0.000 OA
ATOM     18  HXT UNL     1       1.744   1.608  16.616  0.00  0.00    +0.000 HD
ENDBRANCH  15  17
ENDBRANCH  14  15
ENDBRANCH   1  14
TORSDOF 4
ENDMDL
MODEL 3
REMARK VINA RESULT:      -6.6      0.792      1.073
REMARK  Name = 
REMARK  5 active torsions:
REMARK  status: ('A' for Active; 'I' for Inactive)
REMARK    1  A    between atoms: C_1  and  C_2
REMARK    2  A    between atoms: CA_3  and  N_4
REMARK    3  A    between atoms: CA_3  and  C_14
REMARK    4  A    between atoms: C_5  and  C_7
REMARK    5  A    between atoms: C_14  and  OXT_16
REMARK                            x       y       z     vdW  Elec       q    Type
REMARK                         _______ _______ _______ _____ _____    ______ ____
ROOT
ATOM      1  N   UNL     1       5.131   4.014  16.460  0.00  0.00    +0.000 N 
ATOM      2  C   UNL     1       4.225   4.817  17.140  0.00  0.00    +0.000 C 
ATOM      3  O   UNL     1       4.146   6.038  17.034  0.00  0.00    +0.000 OA
ATOM      4  H   UNL     1       5.154   3.025  16.685  0.00  0.00    +0.000 HD
ENDROOT
BRANCH   2   5
ATOM      5  C   UNL     1       3.339   4.177  18.163  0.00  0.00    +0.000 A 
ATOM      6  C   UNL     1       3.298   2.799  18.400  0.00  0.00    +0.000 A 
ATOM      7  C   UNL     1       2.572   2.301  19.493  0.00  0.00    +0.000 A 
ATOM      8  C   UNL     1       1.890   3.173  20.342  0.00  0.00    +0.000 A 
ATOM      9 CL   UNL     1       1.073   2.561  21.725  0.00  0.00    +0.000 Cl
ATOM     10  C   UNL     1       1.895   4.541  20.093  0.00  0.00    +0.000 A 
ATOM     11  C   UNL     1       2.616   5.040  19.005  0.00  0.00    +0.000 A 
ENDBRANCH   2   5
BRANCH   1  14
ATOM     12  C   UNL     1       5.115   3.570  13.307  0.00  0.00    +0.000 C 
ATOM     13  C   UNL     1       6.066   4.313  14.192  0.00  0.00    +0.000 C 
ATOM     14  CA  UNL     1       6.087   4.423  15.532  0.00  0.00    +0.000 C 
BRANCH  14  15
ATOM     15  C   UNL     1       7.338   5.066  16.086  0.00  0.00    +0.000 C 
ATOM     16  O   UNL     1       7.724   6.192  15.848  0.00  0.00    +0.000 OA
BRANCH  15  17
ATOM     17  OXT UNL     1       8.015   4.199  16.881  0.00  0.00    +0.000 OA
ATOM     18  HXT UNL     1       7.704   4.258  17.804  0.00  0.00    +0.000 HD
ENDBRANCH  15  17
ENDBRANCH  14  15
ENDBRANCH   1  14
TORSDOF 4
ENDMDL
MODEL 4
REMARK VINA RESULT:      -6.5      3.952      6.559
REMARK  Name = 
REMARK  5 active torsions:
REMARK  status: ('A' for Active; 'I' for Inactive)
REMARK    1  A    between atoms: C_1  and  C_2
REMARK    2  A    between atoms: CA_3  and  N_4
REMARK    3  A    between atoms: CA_3  and  C_14
REMARK    4  A    between atoms: C_5  and  C_7
REMARK    5  A    between atoms: C_14  and  OXT_16
REMARK                            x       y       z     vdW  Elec       q    Type
REMARK                         _______ _______ _______ _____ _____    ______ ____
ROOT
ATOM      1  N   UNL     1       2.968   5.281  19.467  0.00  0.00    +0.000 N 
ATOM      2  C   UNL     1       2.806   4.887  18.145  0.00  0.00    +0.000 C 
ATOM      3  O   UNL     1       1.760   4.472  17.654  0.00  0.00    +0.000 OA
ATOM      4  H   UNL     1       3.899   5.534  19.778  0.00  0.00    +0.000 HD
ENDROOT
BRANCH   2   5
ATOM      5  C   UNL     1       4.014   4.861  17.260  0.00  0.00    +0.000 A 
ATOM      6  C   UNL     1       4.586   3.684  16.763  0.00  0.00    +0.000 A 
ATOM      7  C   UNL     1       5.606   3.757  15.802  0.00  0.00    +0.000 A 
ATOM      8  C   UNL     1       6.054   4.995  15.343  0.00  0.00    +0.000 A 
ATOM      9 CL   UNL     1       7.246   5.073  14.106  0.00  0.00    +0.000 Cl
ATOM     10  C   UNL     1       5.518   6.170  15.858  0.00  0.00    +0.000 A 
ATOM     11  C   UNL     1       4.503   6.101  16.815  0.00  0.00    +0.000 A 
ENDBRANCH   2   5
BRANCH   1  14
ATOM     12  C   UNL     1       1.548   7.819  20.763  0.00  0.00    +0.000 C 
ATOM     13  C   UNL     1       1.328   6.354  20.972  0.00  0.00    +0.000 C 
ATOM     14  CA  UNL     1       1.994   5.302  20.463  0.00  0.00    +0.000 C 
BRANCH  14  15
ATOM     15  C   UNL     1       1.633   3.973  21.086  0.00  0.00    +0.000 C 
ATOM     16  O   UNL     1       2.194   3.453  22.029  0.00  0.00    +0.000 OA
BRANCH  15  17
ATOM     17  OXT UNL     1       0.595   3.398  20.427  0.00  0.00    +0.000 OA
ATOM     18  HXT UNL     1       0.111   4.058  19.896  0.00  0.00    +0.000 HD
ENDBRANCH  15  17
ENDBRANCH  14  15
ENDBRANCH   1  14
TORSDOF 4
ENDMDL
MODEL 5
REMARK VINA RESULT:      -6.5      4.519      6.178
REMARK  Name = 
REMARK  5 active torsions:
REMARK  status: ('A' for Active; 'I' for Inactive)
REMARK    1  A    between atoms: C_1  and  C_2
REMARK    2  A    between atoms: CA_3  and  N_4
REMARK    3  A    between atoms: CA_3  and  C_14
REMARK    4  A    between atoms: C_5  and  C_7
REMARK    5  A    between atoms: C_14  and  OXT_16
REMARK                            x       y       z     vdW  Elec       q    Type
REMARK                         _______ _______ _______ _____ _____    ______ ____
ROOT
ATOM      1  N   UNL     1       1.836   4.693  19.087  0.00  0.00    +0.000 N 
ATOM      2  C   UNL     1       2.766   5.689  19.355  0.00  0.00    +0.000 C 
ATOM      3  O   UNL     1       3.911   5.498  19.754  0.00  0.00    +0.000 OA
ATOM      4  H   UNL     1       0.895   4.974  18.835  0.00  0.00    +0.000 HD
ENDROOT
BRANCH   2   5
ATOM      5  C   UNL     1       2.324   7.116  19.254  0.00  0.00    +0.000 A 
ATOM      6  C   UNL     1       2.353   7.855  18.067  0.00  0.00    +0.000 A 
ATOM      7  C   UNL     1       1.758   9.125  18.022  0.00  0.00    +0.000 A 
ATOM      8  C   UNL     1       1.142   9.655  19.156  0.00  0.00    +0.000 A 
ATOM      9 CL   UNL     1       0.345  11.177  19.069  0.00  0.00    +0.000 Cl
ATOM     10  C   UNL     1       1.142   8.945  20.351  0.00  0.00    +0.000 A 
ATOM     11  C   UNL     1       1.733   7.679  20.399  0.00  0.00    +0.000 A 
ENDBRANCH   2   5
BRANCH   1  14
ATOM     12  C   UNL     1       1.656   2.892  21.707  0.00  0.00    +0.000 C 
ATOM     13  C   UNL     1       1.880   2.525  20.275  0.00  0.00    +0.000 C 
ATOM     14  CA  UNL     1       2.024   3.316  19.196  0.00  0.00    +0.000 C 
BRANCH  14  15
ATOM     15  C   UNL     1       2.468   2.592  17.945  0.00  0.00    +0.000 C 
ATOM     16  O   UNL     1       2.354   3.002  16.808  0.00  0.00    +0.000 OA
BRANCH  15  17
ATOM     17  OXT UNL     1       2.997   1.381  18.252  0.00  0.00    +0.000 OA
ATOM     18  HXT UNL     1       2.315   0.784  18.614  0.00  0.00    +0.000 HD
ENDBRANCH  15  17
ENDBRANCH  14  15
ENDBRANCH   1  14
TORSDOF 4
ENDMDL
MODEL 6
REMARK VINA RESULT:      -6.4      1.394      2.245
REMARK  Name = 
REMARK  5 active torsions:
REMARK  status: ('A' for Active; 'I' for Inactive)
REMARK    1  A    between atoms: C_1  and  C_2
REMARK    2  A    between atoms: CA_3  and  N_4
REMARK    3  A    between atoms: CA_3  and  C_14
REMARK    4  A    between atoms: C_5  and  C_7
REMARK    5  A    between atoms: C_14  and  OXT_16
REMARK                            x       y       z     vdW  Elec       q    Type
REMARK                         _______ _______ _______ _____ _____    ______ ____
ROOT
ATOM      1  N   UNL     1       5.756   4.605  17.265  0.00  0.00    +0.000 N 
ATOM      2  C   UNL     1       4.484   5.062  17.585  0.00  0.00    +0.000 C 
ATOM      3  O   UNL     1       3.991   6.115  17.192  0.00  0.00    +0.000 OA
ATOM      4  H   UNL     1       6.084   3.756  17.710  0.00  0.00    +0.000 HD
ENDROOT
BRANCH   2   5
ATOM      5  C   UNL     1       3.675   4.273  18.568  0.00  0.00    +0.000 A 
ATOM      6  C   UNL     1       4.194   3.225  19.336  0.00  0.00    +0.000 A 
ATOM      7  C   UNL     1       3.416   2.658  20.356  0.00  0.00    +0.000 A 
ATOM      8  C   UNL     1       2.128   3.131  20.606  0.00  0.00    +0.000 A 
ATOM      9 CL   UNL     1       1.213   2.485  21.911  0.00  0.00    +0.000 Cl
ATOM     10  C   UNL     1       1.589   4.146  19.824  0.00  0.00    +0.000 A 
ATOM     11  C   UNL     1       2.361   4.714  18.807  0.00  0.00    +0.000 A 
ENDBRANCH   2   5
BRANCH   1  14
ATOM     12  C   UNL     1       7.495   7.201  17.879  0.00  0.00    +0.000 C 
ATOM     13  C   UNL     1       7.487   6.277  16.702  0.00  0.00    +0.000 C 
ATOM     14  CA  UNL     1       6.689   5.228  16.438  0.00  0.00    +0.000 C 
BRANCH  14  15
ATOM     15  C   UNL     1       6.827   4.676  15.037  0.00  0.00    +0.000 C 
ATOM     16  O   UNL     1       6.252   3.701  14.596  0.00  0.00    +0.000 OA
BRANCH  15  17
ATOM     17  OXT UNL     1       7.721   5.402  14.318  0.00  0.00    +0.000 OA
ATOM     18  HXT UNL     1       8.413   5.774  14.897  0.00  0.00    +0.000 HD
ENDBRANCH  15  17
ENDBRANCH  14  15
ENDBRANCH   1  14
TORSDOF 4
ENDMDL
MODEL 7
REMARK VINA RESULT:      -6.4      1.067      1.671
REMARK  Name = 
REMARK  5 active torsions:
REMARK  status: ('A' for Active; 'I' for Inactive)
REMARK    1  A    between atoms: C_1  and  C_2
REMARK    2  A    between atoms: CA_3  and  N_4
REMARK    3  A    between atoms: CA_3  and  C_14
REMARK    4  A    between atoms: C_5  and  C_7
REMARK    5  A    between atoms: C_14  and  OXT_16
REMARK                            x       y       z     vdW  Elec       q    Type
REMARK                         _______ _______ _______ _____ _____    ______ ____
ROOT
ATOM      1  N   UNL     1       5.252   4.097  15.269  0.00  0.00    +0.000 N 
ATOM      2  C   UNL     1       4.758   5.053  16.148  0.00  0.00    +0.000 C 
ATOM      3  O   UNL     1       5.096   6.233  16.171  0.00  0.00    +0.000 OA
ATOM      4  H   UNL     1       4.955   3.136  15.393  0.00  0.00    +0.000 HD
ENDROOT
BRANCH   2   5
ATOM      5  C   UNL     1       3.818   4.607  17.224  0.00  0.00    +0.000 A 
ATOM      6  C   UNL     1       3.038   5.485  17.986  0.00  0.00    +0.000 A 
ATOM      7  C   UNL     1       2.057   4.975  18.849  0.00  0.00    +0.000 A 
ATOM      8  C   UNL     1       1.858   3.599  18.955  0.00  0.00    +0.000 A 
ATOM      9 CL   UNL     1       0.599   2.987  19.954  0.00  0.00    +0.000 Cl
ATOM     10  C   UNL     1       2.652   2.717  18.231  0.00  0.00    +0.000 A 
ATOM     11  C   UNL     1       3.631   3.222  17.370  0.00  0.00    +0.000 A 
ENDBRANCH   2   5
BRANCH   1  14
ATOM     12  C   UNL     1       5.076   3.146  12.236  0.00  0.00    +0.000 C 
ATOM     13  C   UNL     1       6.102   3.965  12.952  0.00  0.00    +0.000 C 
ATOM     14  CA  UNL     1       6.187   4.292  14.254  0.00  0.00    +0.000 C 
BRANCH  14  15
ATOM     15  C   UNL     1       7.493   4.941  14.652  0.00  0.00    +0.000 C 
ATOM     16  O   UNL     1       8.180   5.650  13.944  0.00  0.00    +0.000 OA
BRANCH  15  17
ATOM     17  OXT UNL     1       7.834   4.602  15.921  0.00  0.00    +0.000 OA
ATOM     18  HXT UNL     1       8.731   4.921  16.137  0.00  0.00    +0.000 HD
ENDBRANCH  15  17
ENDBRANCH  14  15
ENDBRANCH   1  14
TORSDOF 4
ENDMDL
MODEL 8
REMARK VINA RESULT:      -6.4      3.464      3.997
REMARK  Name = 
REMARK  5 active torsions:
REMARK  status: ('A' for Active; 'I' for Inactive)
REMARK    1  A    between atoms: C_1  and  C_2
REMARK    2  A    between atoms: CA_3  and  N_4
REMARK    3  A    between atoms: CA_3  and  C_14
REMARK    4  A    between atoms: C_5  and  C_7
REMARK    5  A    between atoms: C_14  and  OXT_16
REMARK                            x       y       z     vdW  Elec       q    Type
REMARK                         _______ _______ _______ _____ _____    ______ ____
ROOT
ATOM      1  N   UNL     1       5.365   6.121  17.645  0.00  0.00    +0.000 N 
ATOM      2  C   UNL     1       4.139   5.695  18.139  0.00  0.00    +0.000 C 
ATOM      3  O   UNL     1       3.777   4.524  18.218  0.00  0.00    +0.000 OA
ATOM      4  H   UNL     1       5.523   7.119  17.558  0.00  0.00    +0.000 HD
ENDROOT
BRANCH   2   5
ATOM      5  C   UNL     1       3.126   6.733  18.513  0.00  0.00    +0.000 A 
ATOM      6  C   UNL     1       2.469   6.765  19.748  0.00  0.00    +0.000 A 
ATOM      7  C   UNL     1       1.669   7.868  20.082  0.00  0.00    +0.000 A 
ATOM      8  C   UNL     1       1.523   8.930  19.189  0.00  0.00    +0.000 A 
ATOM      9 CL   UNL     1       0.607  10.313  19.641  0.00  0.00    +0.000 Cl
ATOM     10  C   UNL     1       2.142   8.889  17.945  0.00  0.00    +0.000 A 
ATOM     11  C   UNL     1       2.939   7.792  17.609  0.00  0.00    +0.000 A 
ENDBRANCH   2   5
BRANCH   1  14
ATOM     12  C   UNL     1       5.694   4.840  14.749  0.00  0.00    +0.000 C 
ATOM     13  C   UNL     1       6.603   4.833  15.937  0.00  0.00    +0.000 C 
ATOM     14  CA  UNL     1       6.405   5.323  17.174  0.00  0.00    +0.000 C 
BRANCH  14  15
ATOM     15  C   UNL     1       7.460   4.923  18.180  0.00  0.00    +0.000 C 
ATOM     16  O   UNL     1       7.573   5.362  19.307  0.00  0.00    +0.000 OA
BRANCH  15  17
ATOM     17  OXT UNL     1       8.312   4.009  17.649  0.00  0.00    +0.000 OA
ATOM     18  HXT UNL     1       7.932   3.111  17.694  0.00  0.00    +0.000 HD
ENDBRANCH  15  17
ENDBRANCH  14  15
ENDBRANCH   1  14
TORSDOF 4
ENDMDL
MODEL 9
REMARK VINA RESULT:      -6.4      2.006      2.665
REMARK  Name = 
REMARK  5 active torsions:
REMARK  status: ('A' for Active; 'I' for Inactive)
REMARK    1  A    between atoms: C_1  and  C_2
REMARK    2  A    between atoms: CA_3  and  N_4
REMARK    3  A    between atoms: CA_3  and  C_14
REMARK    4  A    between atoms: C_5  and  C_7
REMARK    5  A    between atoms: C_14  and  OXT_16
REMARK                            x       y       z     vdW  Elec       q    Type
REMARK                         _______ _______ _______ _____ _____    ______ ____
ROOT
ATOM      1  N   UNL     1       5.919   5.305  18.128  0.00  0.00    +0.000 N 
ATOM      2  C   UNL     1       4.543   5.490  18.165  0.00  0.00    +0.000 C 
ATOM      3  O   UNL     1       3.908   6.226  17.414  0.00  0.00    +0.000 OA
ATOM      4  H   UNL     1       6.343   4.731  18.848  0.00  0.00    +0.000 HD
ENDROOT
BRANCH   2   5
ATOM      5  C   UNL     1       3.769   4.832  19.264  0.00  0.00    +0.000 A 
ATOM      6  C   UNL     1       2.724   5.454  19.958  0.00  0.00    +0.000 A 
ATOM      7  C   UNL     1       1.939   4.707  20.849  0.00  0.00    +0.000 A 
ATOM      8  C   UNL     1       2.195   3.351  21.049  0.00  0.00    +0.000 A 
ATOM      9 CL   UNL     1       1.176   2.427  22.080  0.00  0.00    +0.000 Cl
ATOM     10  C   UNL     1       3.254   2.733  20.393  0.00  0.00    +0.000 A 
ATOM     11  C   UNL     1       4.039   3.473  19.505  0.00  0.00    +0.000 A 
ENDBRANCH   2   5
BRANCH   1  14
ATOM     12  C   UNL     1       6.649   4.357  15.177  0.00  0.00    +0.000 C 
ATOM     13  C   UNL     1       7.091   5.549  15.966  0.00  0.00    +0.000 C 
ATOM     14  CA  UNL     1       6.821   5.887  17.239  0.00  0.00    +0.000 C 
BRANCH  14  15
ATOM     15  C   UNL     1       7.636   7.048  17.763  0.00  0.00    +0.000 C 
ATOM     16  O   UNL     1       7.781   8.121  17.213  0.00  0.00    +0.000 OA
BRANCH  15  17
ATOM     17  OXT UNL     1       8.229   6.728  18.942  0.00  0.00    +0.000 OA
ATOM     18  HXT UNL     1       8.883   6.014  18.820  0.00  0.00    +0.000 HD
ENDBRANCH  15  17
ENDBRANCH  14  15
ENDBRANCH   1  14
TORSDOF 4
ENDMDL
