MODEL 1
REMARK VINA RESULT:      -7.8      0.000      0.000
REMARK  Name = 
REMARK  4 active torsions:
REMARK  status: ('A' for Active; 'I' for Inactive)
REMARK    1  A    between atoms: C_2  and  C_3
REMARK    2  A    between atoms: C_3  and  C_4
REMARK    3  A    between atoms: N_10  and  C_11
REMARK    4  A    between atoms: C_14  and  C_15
REMARK                            x       y       z     vdW  Elec       q    Type
REMARK                         _______ _______ _______ _____ _____    ______ ____
ROOT
ATOM      1  C   UNL     1       0.335  10.284  19.758  0.00  0.00    +0.000 A 
ATOM      2  C   UNL     1       0.759  10.369  18.427  0.00  0.00    +0.000 A 
ATOM      3  C   UNL     1       1.589   9.390  17.880  0.00  0.00    +0.000 A 
ATOM      4  C   UNL     1       2.012   8.291  18.639  0.00  0.00    +0.000 A 
ATOM      5  C   UNL     1       1.606   8.219  19.983  0.00  0.00    +0.000 A 
ATOM      6  C   UNL     1       0.787   9.211  20.539  0.00  0.00    +0.000 A 
ATOM      7 CL   UNL     1       0.277   9.034  22.183  0.00  0.00    +0.000 Cl
ENDROOT
BRANCH   4   8
ATOM      8  C   UNL     1       2.856   7.225  18.080  0.00  0.00    +0.000 A 
ATOM      9  N   UNL     1       3.935   7.443  17.358  0.00  0.00    +0.000 NA
ATOM     10  C   UNL     1       4.520   6.243  16.974  0.00  0.00    +0.000 A 
ATOM     11  C   UNL     1       5.674   6.094  16.180  0.00  0.00    +0.000 A 
ATOM     12  C   UNL     1       6.156   4.814  15.883  0.00  0.00    +0.000 A 
ATOM     13  C   UNL     1       5.499   3.685  16.362  0.00  0.00    +0.000 A 
ATOM     14  C   UNL     1       4.344   3.807  17.142  0.00  0.00    +0.000 A 
ATOM     15  C   UNL     1       3.873   5.098  17.434  0.00  0.00    +0.000 A 
ATOM     16  S   UNL     1       2.504   5.564  18.359  0.00  0.00    +0.000 S 
ENDBRANCH   4   8
BRANCH   1  19
ATOM     17  O   UNL     1       1.161  12.635  21.178  0.00  0.00    +0.000 OA
ATOM     18  C   UNL     1      -0.025  12.357  21.032  0.00  0.00    +0.000 C 
ATOM     19  N   UNL     1      -0.509  11.277  20.314  0.00  0.00    +0.000 N 
ATOM     20  H   UNL     1      -1.430  11.368  19.899  0.00  0.00    +0.000 HD
BRANCH  18  21
ATOM     21  C   UNL     1      -1.097  13.226  21.665  0.00  0.00    +0.000 C 
BRANCH  21  22
ATOM     22  C   UNL     1      -1.316  12.918  23.160  0.00  0.00    +0.000 C 
ATOM     23  C   UNL     1      -1.441  14.173  24.041  0.00  0.00    +0.000 C 
ATOM     24  C   UNL     1      -2.722  14.958  23.769  0.00  0.00    +0.000 C 
ATOM     25  C   UNL     1      -3.959  14.084  23.947  0.00  0.00    +0.000 C 
ATOM     26  C   UNL     1      -3.879  12.790  23.140  0.00  0.00    +0.000 C 
ATOM     27  C   UNL     1      -2.565  12.038  23.359  0.00  0.00    +0.000 C 
ENDBRANCH  21  22
ENDBRANCH  18  21
ENDBRANCH   1  19
TORSDOF 4
ENDMDL
MODEL 2
REMARK VINA RESULT:      -7.7      1.466      2.084
REMARK  Name = 
REMARK  4 active torsions:
REMARK  status: ('A' for Active; 'I' for Inactive)
REMARK    1  A    between atoms: C_2  and  C_3
REMARK    2  A    between atoms: C_3  and  C_4
REMARK    3  A    between atoms: N_10  and  C_11
REMARK    4  A    between atoms: C_14  and  C_15
REMARK                            x       y       z     vdW  Elec       q    Type
REMARK                         _______ _______ _______ _____ _____    ______ ____
ROOT
ATOM      1  C   UNL     1       0.432   9.334  20.617  0.00  0.00    +0.000 A 
ATOM      2  C   UNL     1       0.874   8.120  21.153  0.00  0.00    +0.000 A 
ATOM      3  C   UNL     1       1.758   7.307  20.441  0.00  0.00    +0.000 A 
ATOM      4  C   UNL     1       2.237   7.687  19.181  0.00  0.00    +0.000 A 
ATOM      5  C   UNL     1       1.773   8.895  18.633  0.00  0.00    +0.000 A 
ATOM      6  C   UNL     1       0.871   9.703  19.338  0.00  0.00    +0.000 A 
ATOM      7 CL   UNL     1       0.382  11.205  18.631  0.00  0.00    +0.000 Cl
ENDROOT
BRANCH   4   8
ATOM      8  C   UNL     1       3.197   6.870  18.424  0.00  0.00    +0.000 A 
ATOM      9  N   UNL     1       3.720   7.228  17.270  0.00  0.00    +0.000 NA
ATOM     10  C   UNL     1       4.591   6.254  16.802  0.00  0.00    +0.000 A 
ATOM     11  C   UNL     1       5.312   6.290  15.592  0.00  0.00    +0.000 A 
ATOM     12  C   UNL     1       6.167   5.234  15.257  0.00  0.00    +0.000 A 
ATOM     13  C   UNL     1       6.306   4.142  16.108  0.00  0.00    +0.000 A 
ATOM     14  C   UNL     1       5.592   4.077  17.309  0.00  0.00    +0.000 A 
ATOM     15  C   UNL     1       4.738   5.146  17.634  0.00  0.00    +0.000 A 
ATOM     16  S   UNL     1       3.749   5.353  19.021  0.00  0.00    +0.000 S 
ENDBRANCH   4   8
BRANCH   1  19
ATOM     17  O   UNL     1       0.501   9.887  23.430  0.00  0.00    +0.000 OA
ATOM     18  C   UNL     1      -0.388  10.331  22.711  0.00  0.00    +0.000 C 
ATOM     19  N   UNL     1      -0.465  10.160  21.339  0.00  0.00    +0.000 N 
ATOM     20  H   UNL     1      -0.943  10.879  20.806  0.00  0.00    +0.000 HD
BRANCH  18  21
ATOM     21  C   UNL     1      -1.525  11.139  23.311  0.00  0.00    +0.000 C 
BRANCH  21  22
ATOM     22  C   UNL     1      -1.992  12.290  22.397  0.00  0.00    +0.000 C 
ATOM     23  C   UNL     1      -3.467  12.682  22.596  0.00  0.00    +0.000 C 
ATOM     24  C   UNL     1      -3.726  13.333  23.952  0.00  0.00    +0.000 C 
ATOM     25  C   UNL     1      -2.840  14.557  24.160  0.00  0.00    +0.000 C 
ATOM     26  C   UNL     1      -1.362  14.254  23.924  0.00  0.00    +0.000 C 
ATOM     27  C   UNL     1      -1.111  13.538  22.596  0.00  0.00    +0.000 C 
ENDBRANCH  21  22
ENDBRANCH  18  21
ENDBRANCH   1  19
TORSDOF 4
ENDMDL
MODEL 3
REMARK VINA RESULT:      -7.7      1.221      1.722
REMARK  Name = 
REMARK  4 active torsions:
REMARK  status: ('A' for Active; 'I' for Inactive)
REMARK    1  A    between atoms: C_2  and  C_3
REMARK    2  A    between atoms: C_3  and  C_4
REMARK    3  A    between atoms: N_10  and  C_11
REMARK    4  A    between atoms: C_14  and  C_15
REMARK                            x       y       z     vdW  Elec       q    Type
REMARK                         _______ _______ _______ _____ _____    ______ ____
ROOT
ATOM      1  C   UNL     1       0.155   9.947  20.673  0.00  0.00    +0.000 A 
ATOM      2  C   UNL     1       0.792   8.887  21.328  0.00  0.00    +0.000 A 
ATOM      3  C   UNL     1       1.589   7.987  20.618  0.00  0.00    +0.000 A 
ATOM      4  C   UNL     1       1.785   8.124  19.237  0.00  0.00    +0.000 A 
ATOM      5  C   UNL     1       1.125   9.175  18.577  0.00  0.00    +0.000 A 
ATOM      6  C   UNL     1       0.310  10.068  19.284  0.00  0.00    +0.000 A 
ATOM      7 CL   UNL     1      -0.430  11.372  18.421  0.00  0.00    +0.000 Cl
ENDROOT
BRANCH   4   8
ATOM      8  C   UNL     1       2.647   7.215  18.470  0.00  0.00    +0.000 A 
ATOM      9  N   UNL     1       3.551   7.615  17.601  0.00  0.00    +0.000 NA
ATOM     10  C   UNL     1       4.208   6.529  17.039  0.00  0.00    +0.000 A 
ATOM     11  C   UNL     1       5.219   6.580  16.058  0.00  0.00    +0.000 A 
ATOM     12  C   UNL     1       5.799   5.396  15.592  0.00  0.00    +0.000 A 
ATOM     13  C   UNL     1       5.382   4.163  16.086  0.00  0.00    +0.000 A 
ATOM     14  C   UNL     1       4.372   4.086  17.050  0.00  0.00    +0.000 A 
ATOM     15  C   UNL     1       3.798   5.284  17.510  0.00  0.00    +0.000 A 
ATOM     16  S   UNL     1       2.560   5.509  18.678  0.00  0.00    +0.000 S 
ENDBRANCH   4   8
BRANCH   1  19
ATOM     17  O   UNL     1       0.934  12.537  21.626  0.00  0.00    +0.000 OA
ATOM     18  C   UNL     1      -0.177  12.075  21.861  0.00  0.00    +0.000 C 
ATOM     19  N   UNL     1      -0.653  10.862  21.392  0.00  0.00    +0.000 N 
ATOM     20  H   UNL     1      -1.655  10.771  21.267  0.00  0.00    +0.000 HD
BRANCH  18  21
ATOM     21  C   UNL     1      -1.157  12.843  22.729  0.00  0.00    +0.000 C 
BRANCH  21  22
ATOM     22  C   UNL     1      -2.620  12.401  22.522  0.00  0.00    +0.000 C 
ATOM     23  C   UNL     1      -3.425  12.284  23.828  0.00  0.00    +0.000 C 
ATOM     24  C   UNL     1      -3.676  13.636  24.489  0.00  0.00    +0.000 C 
ATOM     25  C   UNL     1      -4.382  14.598  23.540  0.00  0.00    +0.000 C 
ATOM     26  C   UNL     1      -3.666  14.723  22.196  0.00  0.00    +0.000 C 
ATOM     27  C   UNL     1      -3.351  13.363  21.567  0.00  0.00    +0.000 C 
ENDBRANCH  21  22
ENDBRANCH  18  21
ENDBRANCH   1  19
TORSDOF 4
ENDMDL
MODEL 4
REMARK VINA RESULT:      -7.6      2.948     10.159
REMARK  Name = 
REMARK  4 active torsions:
REMARK  status: ('A' for Active; 'I' for Inactive)
REMARK    1  A    between atoms: C_2  and  C_3
REMARK    2  A    between atoms: C_3  and  C_4
REMARK    3  A    between atoms: N_10  and  C_11
REMARK    4  A    between atoms: C_14  and  C_15
REMARK                            x       y       z     vdW  Elec       q    Type
REMARK                         _______ _______ _______ _____ _____    ______ ____
ROOT
ATOM      1  C   UNL     1       1.470   8.487  20.511  0.00  0.00    +0.000 A 
ATOM      2  C   UNL     1       1.189   8.619  21.875  0.00  0.00    +0.000 A 
ATOM      3  C   UNL     1       0.332   9.622  22.332  0.00  0.00    +0.000 A 
ATOM      4  C   UNL     1      -0.281  10.513  21.442  0.00  0.00    +0.000 A 
ATOM      5  C   UNL     1       0.020  10.394  20.074  0.00  0.00    +0.000 A 
ATOM      6  C   UNL     1       0.895   9.400  19.615  0.00  0.00    +0.000 A 
ATOM      7 CL   UNL     1       1.180   9.272  17.914  0.00  0.00    +0.000 Cl
ENDROOT
BRANCH   4   8
ATOM      8  C   UNL     1      -1.217  11.554  21.889  0.00  0.00    +0.000 A 
ATOM      9  N   UNL     1      -1.947  11.469  22.982  0.00  0.00    +0.000 NA
ATOM     10  C   UNL     1      -2.729  12.604  23.140  0.00  0.00    +0.000 A 
ATOM     11  C   UNL     1      -3.645  12.848  24.183  0.00  0.00    +0.000 A 
ATOM     12  C   UNL     1      -4.359  14.051  24.217  0.00  0.00    +0.000 A 
ATOM     13  C   UNL     1      -4.176  15.009  23.224  0.00  0.00    +0.000 A 
ATOM     14  C   UNL     1      -3.282  14.785  22.172  0.00  0.00    +0.000 A 
ATOM     15  C   UNL     1      -2.570  13.573  22.151  0.00  0.00    +0.000 A 
ATOM     16  S   UNL     1      -1.414  13.020  21.010  0.00  0.00    +0.000 S 
ENDBRANCH   4   8
BRANCH   1  19
ATOM     17  O   UNL     1       1.109   5.658  20.812  0.00  0.00    +0.000 OA
ATOM     18  C   UNL     1       2.112   6.123  20.282  0.00  0.00    +0.000 C 
ATOM     19  N   UNL     1       2.338   7.469  20.046  0.00  0.00    +0.000 N 
ATOM     20  H   UNL     1       2.935   7.710  19.263  0.00  0.00    +0.000 HD
BRANCH  18  21
ATOM     21  C   UNL     1       3.232   5.206  19.826  0.00  0.00    +0.000 C 
BRANCH  21  22
ATOM     22  C   UNL     1       3.241   4.978  18.301  0.00  0.00    +0.000 C 
ATOM     23  C   UNL     1       4.232   3.895  17.840  0.00  0.00    +0.000 C 
ATOM     24  C   UNL     1       3.824   2.494  18.287  0.00  0.00    +0.000 C 
ATOM     25  C   UNL     1       2.421   2.142  17.803  0.00  0.00    +0.000 C 
ATOM     26  C   UNL     1       1.390   3.204  18.179  0.00  0.00    +0.000 C 
ATOM     27  C   UNL     1       1.832   4.618  17.794  0.00  0.00    +0.000 C 
ENDBRANCH  21  22
ENDBRANCH  18  21
ENDBRANCH   1  19
TORSDOF 4
ENDMDL
MODEL 5
REMARK VINA RESULT:      -7.4      7.347      9.790
REMARK  Name = 
REMARK  4 active torsions:
REMARK  status: ('A' for Active; 'I' for Inactive)
REMARK    1  A    between atoms: C_2  and  C_3
REMARK    2  A    between atoms: C_3  and  C_4
REMARK    3  A    between atoms: N_10  and  C_11
REMARK    4  A    between atoms: C_14  and  C_15
REMARK                            x       y       z     vdW  Elec       q    Type
REMARK                         _______ _______ _______ _____ _____    ______ ____
ROOT
ATOM      1  C   UNL     1       6.807   6.190  18.115  0.00  0.00    +0.000 A 
ATOM      2  C   UNL     1       7.882   6.267  19.008  0.00  0.00    +0.000 A 
ATOM      3  C   UNL     1       8.617   7.446  19.136  0.00  0.00    +0.000 A 
ATOM      4  C   UNL     1       8.295   8.587  18.390  0.00  0.00    +0.000 A 
ATOM      5  C   UNL     1       7.230   8.501  17.476  0.00  0.00    +0.000 A 
ATOM      6  C   UNL     1       6.503   7.312  17.332  0.00  0.00    +0.000 A 
ATOM      7 CL   UNL     1       5.169   7.289  16.230  0.00  0.00    +0.000 Cl
ENDROOT
BRANCH   4   8
ATOM      8  C   UNL     1       9.027   9.854  18.531  0.00  0.00    +0.000 A 
ATOM      9  N   UNL     1       9.463  10.570  17.516  0.00  0.00    +0.000 NA
ATOM     10  C   UNL     1      10.114  11.711  17.964  0.00  0.00    +0.000 A 
ATOM     11  C   UNL     1      10.724  12.694  17.159  0.00  0.00    +0.000 A 
ATOM     12  C   UNL     1      11.336  13.803  17.755  0.00  0.00    +0.000 A 
ATOM     13  C   UNL     1      11.352  13.940  19.139  0.00  0.00    +0.000 A 
ATOM     14  C   UNL     1      10.764  12.972  19.960  0.00  0.00    +0.000 A 
ATOM     15  C   UNL     1      10.152  11.864  19.348  0.00  0.00    +0.000 A 
ATOM     16  S   UNL     1       9.353  10.533  20.079  0.00  0.00    +0.000 S 
ENDBRANCH   4   8
BRANCH   1  19
ATOM     17  O   UNL     1       4.568   5.386  19.717  0.00  0.00    +0.000 OA
ATOM     18  C   UNL     1       5.021   4.660  18.838  0.00  0.00    +0.000 C 
ATOM     19  N   UNL     1       6.060   4.993  17.985  0.00  0.00    +0.000 N 
ATOM     20  H   UNL     1       6.070   4.554  17.071  0.00  0.00    +0.000 HD
BRANCH  18  21
ATOM     21  C   UNL     1       4.444   3.274  18.619  0.00  0.00    +0.000 C 
BRANCH  21  22
ATOM     22  C   UNL     1       3.272   3.262  17.617  0.00  0.00    +0.000 C 
ATOM     23  C   UNL     1       2.462   1.953  17.623  0.00  0.00    +0.000 C 
ATOM     24  C   UNL     1       1.673   1.755  18.915  0.00  0.00    +0.000 C 
ATOM     25  C   UNL     1       0.743   2.933  19.185  0.00  0.00    +0.000 C 
ATOM     26  C   UNL     1       1.471   4.275  19.139  0.00  0.00    +0.000 C 
ATOM     27  C   UNL     1       2.318   4.443  17.876  0.00  0.00    +0.000 C 
ENDBRANCH  21  22
ENDBRANCH  18  21
ENDBRANCH   1  19
TORSDOF 4
ENDMDL
MODEL 6
REMARK VINA RESULT:      -7.4      1.014      1.020
REMARK  Name = 
REMARK  4 active torsions:
REMARK  status: ('A' for Active; 'I' for Inactive)
REMARK    1  A    between atoms: C_2  and  C_3
REMARK    2  A    between atoms: C_3  and  C_4
REMARK    3  A    between atoms: N_10  and  C_11
REMARK    4  A    between atoms: C_14  and  C_15
REMARK                            x       y       z     vdW  Elec       q    Type
REMARK                         _______ _______ _______ _____ _____    ______ ____
ROOT
ATOM      1  C   UNL     1       0.613  10.175  19.928  0.00  0.00    +0.000 A 
ATOM      2  C   UNL     1       1.061  10.349  18.614  0.00  0.00    +0.000 A 
ATOM      3  C   UNL     1       1.851   9.379  17.996  0.00  0.00    +0.000 A 
ATOM      4  C   UNL     1       2.206   8.200  18.664  0.00  0.00    +0.000 A 
ATOM      5  C   UNL     1       1.775   8.036  19.992  0.00  0.00    +0.000 A 
ATOM      6  C   UNL     1       0.998   9.018  20.621  0.00  0.00    +0.000 A 
ATOM      7 CL   UNL     1       0.453   8.730  22.237  0.00  0.00    +0.000 Cl
ENDROOT
BRANCH   4   8
ATOM      8  C   UNL     1       3.005   7.143  18.027  0.00  0.00    +0.000 A 
ATOM      9  N   UNL     1       4.070   7.370  17.287  0.00  0.00    +0.000 NA
ATOM     10  C   UNL     1       4.611   6.178  16.826  0.00  0.00    +0.000 A 
ATOM     11  C   UNL     1       5.740   6.040  15.993  0.00  0.00    +0.000 A 
ATOM     12  C   UNL     1       6.177   4.766  15.616  0.00  0.00    +0.000 A 
ATOM     13  C   UNL     1       5.502   3.630  16.054  0.00  0.00    +0.000 A 
ATOM     14  C   UNL     1       4.372   3.741  16.871  0.00  0.00    +0.000 A 
ATOM     15  C   UNL     1       3.945   5.028  17.242  0.00  0.00    +0.000 A 
ATOM     16  S   UNL     1       2.614   5.479  18.228  0.00  0.00    +0.000 S 
ENDBRANCH   4   8
BRANCH   1  19
ATOM     17  O   UNL     1      -1.966  11.086  19.067  0.00  0.00    +0.000 OA
ATOM     18  C   UNL     1      -1.405  11.577  20.041  0.00  0.00    +0.000 C 
ATOM     19  N   UNL     1      -0.190  11.159  20.556  0.00  0.00    +0.000 N 
ATOM     20  H   UNL     1      -0.029  11.305  21.546  0.00  0.00    +0.000 HD
BRANCH  18  21
ATOM     21  C   UNL     1      -2.039  12.739  20.783  0.00  0.00    +0.000 C 
BRANCH  21  22
ATOM     22  C   UNL     1      -1.516  12.888  22.226  0.00  0.00    +0.000 C 
ATOM     23  C   UNL     1      -1.471  14.344  22.723  0.00  0.00    +0.000 C 
ATOM     24  C   UNL     1      -2.862  14.945  22.910  0.00  0.00    +0.000 C 
ATOM     25  C   UNL     1      -3.707  14.107  23.863  0.00  0.00    +0.000 C 
ATOM     26  C   UNL     1      -3.752  12.634  23.460  0.00  0.00    +0.000 C 
ATOM     27  C   UNL     1      -2.361  12.050  23.204  0.00  0.00    +0.000 C 
ENDBRANCH  21  22
ENDBRANCH  18  21
ENDBRANCH   1  19
TORSDOF 4
ENDMDL
MODEL 7
REMARK VINA RESULT:      -7.4      1.540      2.184
REMARK  Name = 
REMARK  4 active torsions:
REMARK  status: ('A' for Active; 'I' for Inactive)
REMARK    1  A    between atoms: C_2  and  C_3
REMARK    2  A    between atoms: C_3  and  C_4
REMARK    3  A    between atoms: N_10  and  C_11
REMARK    4  A    between atoms: C_14  and  C_15
REMARK                            x       y       z     vdW  Elec       q    Type
REMARK                         _______ _______ _______ _____ _____    ______ ____
ROOT
ATOM      1  C   UNL     1       0.616   8.858  20.399  0.00  0.00    +0.000 A 
ATOM      2  C   UNL     1       1.037   7.607  20.863  0.00  0.00    +0.000 A 
ATOM      3  C   UNL     1       1.934   6.837  20.120  0.00  0.00    +0.000 A 
ATOM      4  C   UNL     1       2.448   7.298  18.901  0.00  0.00    +0.000 A 
ATOM      5  C   UNL     1       2.006   8.544  18.425  0.00  0.00    +0.000 A 
ATOM      6  C   UNL     1       1.091   9.310  19.160  0.00  0.00    +0.000 A 
ATOM      7 CL   UNL     1       0.630  10.860  18.545  0.00  0.00    +0.000 Cl
ENDROOT
BRANCH   4   8
ATOM      8  C   UNL     1       3.422   6.527  18.116  0.00  0.00    +0.000 A 
ATOM      9  N   UNL     1       4.556   7.018  17.660  0.00  0.00    +0.000 NA
ATOM     10  C   UNL     1       5.263   6.052  16.958  0.00  0.00    +0.000 A 
ATOM     11  C   UNL     1       6.505   6.229  16.316  0.00  0.00    +0.000 A 
ATOM     12  C   UNL     1       7.107   5.154  15.652  0.00  0.00    +0.000 A 
ATOM     13  C   UNL     1       6.485   3.910  15.616  0.00  0.00    +0.000 A 
ATOM     14  C   UNL     1       5.246   3.712  16.235  0.00  0.00    +0.000 A 
ATOM     15  C   UNL     1       4.654   4.801  16.899  0.00  0.00    +0.000 A 
ATOM     16  S   UNL     1       3.162   4.866  17.746  0.00  0.00    +0.000 S 
ENDBRANCH   4   8
BRANCH   1  19
ATOM     17  O   UNL     1       1.032   9.902  23.038  0.00  0.00    +0.000 OA
ATOM     18  C   UNL     1      -0.030  10.061  22.446  0.00  0.00    +0.000 C 
ATOM     19  N   UNL     1      -0.293   9.641  21.153  0.00  0.00    +0.000 N 
ATOM     20  H   UNL     1      -0.980  10.166  20.623  0.00  0.00    +0.000 HD
BRANCH  18  21
ATOM     21  C   UNL     1      -1.189  10.764  23.129  0.00  0.00    +0.000 C 
BRANCH  21  22
ATOM     22  C   UNL     1      -1.139  12.297  22.971  0.00  0.00    +0.000 C 
ATOM     23  C   UNL     1      -0.990  12.767  21.513  0.00  0.00    +0.000 C 
ATOM     24  C   UNL     1      -2.231  12.481  20.672  0.00  0.00    +0.000 C 
ATOM     25  C   UNL     1      -3.477  13.110  21.285  0.00  0.00    +0.000 C 
ATOM     26  C   UNL     1      -3.660  12.729  22.753  0.00  0.00    +0.000 C 
ATOM     27  C   UNL     1      -2.393  12.951  23.582  0.00  0.00    +0.000 C 
ENDBRANCH  21  22
ENDBRANCH  18  21
ENDBRANCH   1  19
TORSDOF 4
ENDMDL
MODEL 8
REMARK VINA RESULT:      -7.3      1.117      1.419
REMARK  Name = 
REMARK  4 active torsions:
REMARK  status: ('A' for Active; 'I' for Inactive)
REMARK    1  A    between atoms: C_2  and  C_3
REMARK    2  A    between atoms: C_3  and  C_4
REMARK    3  A    between atoms: N_10  and  C_11
REMARK    4  A    between atoms: C_14  and  C_15
REMARK                            x       y       z     vdW  Elec       q    Type
REMARK                         _______ _______ _______ _____ _____    ______ ____
ROOT
ATOM      1  C   UNL     1       0.516  10.423  19.798  0.00  0.00    +0.000 A 
ATOM      2  C   UNL     1       1.090  10.584  18.532  0.00  0.00    +0.000 A 
ATOM      3  C   UNL     1       1.875   9.575  17.973  0.00  0.00    +0.000 A 
ATOM      4  C   UNL     1       2.101   8.371  18.653  0.00  0.00    +0.000 A 
ATOM      5  C   UNL     1       1.545   8.220  19.934  0.00  0.00    +0.000 A 
ATOM      6  C   UNL     1       0.771   9.240  20.505  0.00  0.00    +0.000 A 
ATOM      7 CL   UNL     1       0.068   8.969  22.063  0.00  0.00    +0.000 Cl
ENDROOT
BRANCH   4   8
ATOM      8  C   UNL     1       2.893   7.276  18.074  0.00  0.00    +0.000 A 
ATOM      9  N   UNL     1       3.927   7.455  17.278  0.00  0.00    +0.000 NA
ATOM     10  C   UNL     1       4.469   6.236  16.895  0.00  0.00    +0.000 A 
ATOM     11  C   UNL     1       5.568   6.045  16.034  0.00  0.00    +0.000 A 
ATOM     12  C   UNL     1       6.012   4.749  15.746  0.00  0.00    +0.000 A 
ATOM     13  C   UNL     1       5.371   3.645  16.300  0.00  0.00    +0.000 A 
ATOM     14  C   UNL     1       4.270   3.808  17.148  0.00  0.00    +0.000 A 
ATOM     15  C   UNL     1       3.836   5.115  17.429  0.00  0.00    +0.000 A 
ATOM     16  S   UNL     1       2.536   5.630  18.424  0.00  0.00    +0.000 S 
ENDBRANCH   4   8
BRANCH   1  19
ATOM     17  O   UNL     1      -2.158  11.128  19.040  0.00  0.00    +0.000 OA
ATOM     18  C   UNL     1      -1.550  11.754  19.902  0.00  0.00    +0.000 C 
ATOM     19  N   UNL     1      -0.283  11.446  20.366  0.00  0.00    +0.000 N 
ATOM     20  H   UNL     1      -0.056  11.718  21.316  0.00  0.00    +0.000 HD
BRANCH  18  21
ATOM     21  C   UNL     1      -2.181  12.973  20.549  0.00  0.00    +0.000 C 
BRANCH  21  22
ATOM     22  C   UNL     1      -3.041  12.624  21.780  0.00  0.00    +0.000 C 
ATOM     23  C   UNL     1      -2.225  12.385  23.062  0.00  0.00    +0.000 C 
ATOM     24  C   UNL     1      -1.565  13.657  23.586  0.00  0.00    +0.000 C 
ATOM     25  C   UNL     1      -2.592  14.756  23.834  0.00  0.00    +0.000 C 
ATOM     26  C   UNL     1      -3.479  15.011  22.617  0.00  0.00    +0.000 C 
ATOM     27  C   UNL     1      -4.085  13.725  22.048  0.00  0.00    +0.000 C 
ENDBRANCH  21  22
ENDBRANCH  18  21
ENDBRANCH   1  19
TORSDOF 4
ENDMDL
MODEL 9
REMARK VINA RESULT:      -7.3      1.269      1.920
REMARK  Name = 
REMARK  4 active torsions:
REMARK  status: ('A' for Active; 'I' for Inactive)
REMARK    1  A    between atoms: C_2  and  C_3
REMARK    2  A    between atoms: C_3  and  C_4
REMARK    3  A    between atoms: N_10  and  C_11
REMARK    4  A    between atoms: C_14  and  C_15
REMARK                            x       y       z     vdW  Elec       q    Type
REMARK                         _______ _______ _______ _____ _____    ______ ____
ROOT
ATOM      1  C   UNL     1       0.153   9.921  20.806  0.00  0.00    +0.000 A 
ATOM      2  C   UNL     1       0.795   8.854  21.445  0.00  0.00    +0.000 A 
ATOM      3  C   UNL     1       1.592   7.966  20.720  0.00  0.00    +0.000 A 
ATOM      4  C   UNL     1       1.784   8.124  19.342  0.00  0.00    +0.000 A 
ATOM      5  C   UNL     1       1.121   9.181  18.697  0.00  0.00    +0.000 A 
ATOM      6  C   UNL     1       0.305  10.063  19.420  0.00  0.00    +0.000 A 
ATOM      7 CL   UNL     1      -0.440  11.377  18.576  0.00  0.00    +0.000 Cl
ENDROOT
BRANCH   4   8
ATOM      8  C   UNL     1       2.648   7.227  18.560  0.00  0.00    +0.000 A 
ATOM      9  N   UNL     1       3.482   7.637  17.627  0.00  0.00    +0.000 NA
ATOM     10  C   UNL     1       4.160   6.562  17.068  0.00  0.00    +0.000 A 
ATOM     11  C   UNL     1       5.112   6.624  16.031  0.00  0.00    +0.000 A 
ATOM     12  C   UNL     1       5.725   5.451  15.575  0.00  0.00    +0.000 A 
ATOM     13  C   UNL     1       5.396   4.220  16.135  0.00  0.00    +0.000 A 
ATOM     14  C   UNL     1       4.445   4.132  17.156  0.00  0.00    +0.000 A 
ATOM     15  C   UNL     1       3.839   5.318  17.606  0.00  0.00    +0.000 A 
ATOM     16  S   UNL     1       2.657   5.528  18.832  0.00  0.00    +0.000 S 
ENDBRANCH   4   8
BRANCH   1  19
ATOM     17  O   UNL     1       0.859  12.578  21.623  0.00  0.00    +0.000 OA
ATOM     18  C   UNL     1      -0.214  12.073  21.938  0.00  0.00    +0.000 C 
ATOM     19  N   UNL     1      -0.656  10.823  21.540  0.00  0.00    +0.000 N 
ATOM     20  H   UNL     1      -1.658  10.682  21.478  0.00  0.00    +0.000 HD
BRANCH  18  21
ATOM     21  C   UNL     1      -1.178  12.827  22.836  0.00  0.00    +0.000 C 
BRANCH  21  22
ATOM     22  C   UNL     1      -1.797  14.062  22.152  0.00  0.00    +0.000 C 
ATOM     23  C   UNL     1      -2.502  13.747  20.820  0.00  0.00    +0.000 C 
ATOM     24  C   UNL     1      -3.769  12.917  21.006  0.00  0.00    +0.000 C 
ATOM     25  C   UNL     1      -4.749  13.601  21.952  0.00  0.00    +0.000 C 
ATOM     26  C   UNL     1      -4.102  13.994  23.279  0.00  0.00    +0.000 C 
ATOM     27  C   UNL     1      -2.794  14.766  23.092  0.00  0.00    +0.000 C 
ENDBRANCH  21  22
ENDBRANCH  18  21
ENDBRANCH   1  19
TORSDOF 4
ENDMDL
