MODEL 1
REMARK VINA RESULT:      -6.9      0.000      0.000
REMARK  Name = 
REMARK  12 active torsions:
REMARK  status: ('A' for Active; 'I' for Inactive)
REMARK    1  A    between atoms: C_1  and  O_2
REMARK    2  A    between atoms: O_2  and  C_3
REMARK    3  A    between atoms: C_3  and  C_5
REMARK    4  A    between atoms: C_5  and  C_6
REMARK    5  A    between atoms: C_6  and  C_7
REMARK    6  A    between atoms: C_7  and  N_8
REMARK    7  A    between atoms: C_11  and  C_12
REMARK    8  A    between atoms: C_12  and  N_13
REMARK    9  A    between atoms: C_16  and  O_17
REMARK   10  A    between atoms: O_17  and  C_18
REMARK   11  A    between atoms: C_21  and  C_22
REMARK   12  A    between atoms: C_22  and  O_23
REMARK                            x       y       z     vdW  Elec       q    Type
REMARK                         _______ _______ _______ _____ _____    ______ ____
ROOT
ATOM      1  N   UNL     1       3.678   3.969  18.995  0.00  0.00    +0.000 NA
ATOM      2  C   UNL     1       3.789   4.518  20.363  0.00  0.00    +0.000 C 
ATOM      3  C   UNL     1       2.429   4.661  21.033  0.00  0.00    +0.000 C 
ATOM      4  C   UNL     1       1.551   5.635  20.241  0.00  0.00    +0.000 C 
ATOM      5  C   UNL     1       1.352   4.986  18.868  0.00  0.00    +0.000 C 
ATOM      6  C   UNL     1       2.695   4.699  18.176  0.00  0.00    +0.000 C 
ENDROOT
BRANCH   1   7
ATOM      7  C   UNL     1       5.028   3.974  18.381  0.00  0.00    +0.000 C 
BRANCH   7  11
ATOM      8  N   UNL     1       7.013   5.573  15.758  0.00  0.00    +0.000 NA
ATOM      9  C   UNL     1       5.628   5.950  16.090  0.00  0.00    +0.000 C 
ATOM     10  C   UNL     1       5.514   6.402  17.540  0.00  0.00    +0.000 C 
ATOM     11  C   UNL     1       5.893   5.265  18.490  0.00  0.00    +0.000 C 
ATOM     12  C   UNL     1       7.370   4.949  18.181  0.00  0.00    +0.000 C 
ATOM     13  C   UNL     1       7.590   4.594  16.700  0.00  0.00    +0.000 C 
BRANCH   8  14
ATOM     14  C   UNL     1       7.117   5.075  14.374  0.00  0.00    +0.000 C 
BRANCH  14  15
ATOM     15  C   UNL     1       6.319   3.793  14.111  0.00  0.00    +0.000 C 
BRANCH  15  16
ATOM     16  C   UNL     1       5.393   3.874  12.887  0.00  0.00    +0.000 C 
BRANCH  16  17
ATOM     17  C   UNL     1       5.831   2.867  11.859  0.00  0.00    +0.000 C 
ATOM     18  O   UNL     1       7.000   2.572  11.618  0.00  0.00    +0.000 OA
BRANCH  17  20
ATOM     19  C   UNL     1       3.708   3.251  10.998  0.00  0.00    +0.000 C 
ATOM     20  O   UNL     1       4.758   2.315  11.233  0.00  0.00    +0.000 OA
ENDBRANCH  17  20
ENDBRANCH  16  17
ENDBRANCH  15  16
ENDBRANCH  14  15
ENDBRANCH   8  14
ENDBRANCH   7  11
ENDBRANCH   1   7
BRANCH   4  21
ATOM     21  O   UNL     1       2.155   6.931  20.033  0.00  0.00    +0.000 OA
BRANCH  21  22
ATOM     22  C   UNL     1       1.468   8.041  20.436  0.00  0.00    +0.000 A 
ATOM     23  C   UNL     1       0.948   8.222  21.707  0.00  0.00    +0.000 A 
ATOM     24  C   UNL     1       0.297   9.395  22.066  0.00  0.00    +0.000 A 
ATOM     25  C   UNL     1       0.138  10.443  21.151  0.00  0.00    +0.000 A 
ATOM     26  C   UNL     1       0.682  10.273  19.863  0.00  0.00    +0.000 A 
ATOM     27 CL   UNL     1       0.595  11.520  18.669  0.00  0.00    +0.000 Cl
ATOM     28  C   UNL     1       1.345   9.084  19.515  0.00  0.00    +0.000 A 
BRANCH  25  29
ATOM     29  C   UNL     1      -0.542  11.690  21.648  0.00  0.00    +0.000 C 
BRANCH  29  30
ATOM     30  O   UNL     1       0.389  12.745  21.890  0.00  0.00    +0.000 OA
ATOM     31  H   UNL     1       0.145  13.181  22.724  0.00  0.00    +0.000 HD
ENDBRANCH  29  30
ENDBRANCH  25  29
ENDBRANCH  21  22
ENDBRANCH   4  21
TORSDOF 11
ENDMDL
MODEL 2
REMARK VINA RESULT:      -6.9      3.797      5.921
REMARK  Name = 
REMARK  12 active torsions:
REMARK  status: ('A' for Active; 'I' for Inactive)
REMARK    1  A    between atoms: C_1  and  O_2
REMARK    2  A    between atoms: O_2  and  C_3
REMARK    3  A    between atoms: C_3  and  C_5
REMARK    4  A    between atoms: C_5  and  C_6
REMARK    5  A    between atoms: C_6  and  C_7
REMARK    6  A    between atoms: C_7  and  N_8
REMARK    7  A    between atoms: C_11  and  C_12
REMARK    8  A    between atoms: C_12  and  N_13
REMARK    9  A    between atoms: C_16  and  O_17
REMARK   10  A    between atoms: O_17  and  C_18
REMARK   11  A    between atoms: C_21  and  C_22
REMARK   12  A    between atoms: C_22  and  O_23
REMARK                            x       y       z     vdW  Elec       q    Type
REMARK                         _______ _______ _______ _____ _____    ______ ____
ROOT
ATOM      1  N   UNL     1       2.681   8.101  18.690  0.00  0.00    +0.000 NA
ATOM      2  C   UNL     1       2.426   8.969  17.520  0.00  0.00    +0.000 C 
ATOM      3  C   UNL     1       1.992  10.369  17.932  0.00  0.00    +0.000 C 
ATOM      4  C   UNL     1       0.681  10.304  18.723  0.00  0.00    +0.000 C 
ATOM      5  C   UNL     1       1.003   9.502  19.987  0.00  0.00    +0.000 C 
ATOM      6  C   UNL     1       1.564   8.110  19.650  0.00  0.00    +0.000 C 
ENDROOT
BRANCH   1   7
ATOM      7  C   UNL     1       2.983   6.735  18.199  0.00  0.00    +0.000 C 
BRANCH   7  11
ATOM      8  N   UNL     1       4.467   3.394  18.095  0.00  0.00    +0.000 NA
ATOM      9  C   UNL     1       3.965   4.111  16.910  0.00  0.00    +0.000 C 
ATOM     10  C   UNL     1       4.699   5.432  16.715  0.00  0.00    +0.000 C 
ATOM     11  C   UNL     1       4.467   6.357  17.911  0.00  0.00    +0.000 C 
ATOM     12  C   UNL     1       5.077   5.622  19.121  0.00  0.00    +0.000 C 
ATOM     13  C   UNL     1       4.469   4.222  19.318  0.00  0.00    +0.000 C 
BRANCH   8  14
ATOM     14  C   UNL     1       3.718   2.145  18.325  0.00  0.00    +0.000 C 
BRANCH  14  15
ATOM     15  C   UNL     1       2.289   2.164  17.773  0.00  0.00    +0.000 C 
BRANCH  15  16
ATOM     16  C   UNL     1       1.218   1.762  18.799  0.00  0.00    +0.000 C 
BRANCH  16  17
ATOM     17  C   UNL     1       1.342   2.632  20.020  0.00  0.00    +0.000 C 
ATOM     18  O   UNL     1       1.746   2.250  21.117  0.00  0.00    +0.000 OA
BRANCH  17  20
ATOM     19  C   UNL     1       1.332   4.831  20.768  0.00  0.00    +0.000 C 
ATOM     20  O   UNL     1       0.957   3.907  19.748  0.00  0.00    +0.000 OA
ENDBRANCH  17  20
ENDBRANCH  16  17
ENDBRANCH  15  16
ENDBRANCH  14  15
ENDBRANCH   8  14
ENDBRANCH   7  11
ENDBRANCH   1   7
BRANCH   4  21
ATOM     21  O   UNL     1      -0.388   9.623  18.028  0.00  0.00    +0.000 OA
BRANCH  21  22
ATOM     22  C   UNL     1      -1.598  10.248  17.923  0.00  0.00    +0.000 A 
ATOM     23  C   UNL     1      -2.539   9.974  16.946  0.00  0.00    +0.000 A 
ATOM     24  C   UNL     1      -3.771  10.617  16.921  0.00  0.00    +0.000 A 
ATOM     25  C   UNL     1      -4.106  11.574  17.887  0.00  0.00    +0.000 A 
ATOM     26  C   UNL     1      -3.159  11.843  18.895  0.00  0.00    +0.000 A 
ATOM     27 CL   UNL     1      -3.486  12.964  20.170  0.00  0.00    +0.000 Cl
ATOM     28  C   UNL     1      -1.921  11.181  18.912  0.00  0.00    +0.000 A 
BRANCH  25  29
ATOM     29  C   UNL     1      -5.480  12.182  17.802  0.00  0.00    +0.000 C 
BRANCH  29  30
ATOM     30  O   UNL     1      -6.492  11.192  17.625  0.00  0.00    +0.000 OA
ATOM     31  H   UNL     1      -6.239  10.628  16.875  0.00  0.00    +0.000 HD
ENDBRANCH  29  30
ENDBRANCH  25  29
ENDBRANCH  21  22
ENDBRANCH   4  21
TORSDOF 11
ENDMDL
MODEL 3
REMARK VINA RESULT:      -6.8      3.764      5.460
REMARK  Name = 
REMARK  12 active torsions:
REMARK  status: ('A' for Active; 'I' for Inactive)
REMARK    1  A    between atoms: C_1  and  O_2
REMARK    2  A    between atoms: O_2  and  C_3
REMARK    3  A    between atoms: C_3  and  C_5
REMARK    4  A    between atoms: C_5  and  C_6
REMARK    5  A    between atoms: C_6  and  C_7
REMARK    6  A    between atoms: C_7  and  N_8
REMARK    7  A    between atoms: C_11  and  C_12
REMARK    8  A    between atoms: C_12  and  N_13
REMARK    9  A    between atoms: C_16  and  O_17
REMARK   10  A    between atoms: O_17  and  C_18
REMARK   11  A    between atoms: C_21  and  C_22
REMARK   12  A    between atoms: C_22  and  O_23
REMARK                            x       y       z     vdW  Elec       q    Type
REMARK                         _______ _______ _______ _____ _____    ______ ____
ROOT
ATOM      1  N   UNL     1       2.088   8.531  19.080  0.00  0.00    +0.000 NA
ATOM      2  C   UNL     1       2.081   9.498  17.962  0.00  0.00    +0.000 C 
ATOM      3  C   UNL     1       1.532  10.854  18.383  0.00  0.00    +0.000 C 
ATOM      4  C   UNL     1       0.078  10.713  18.846  0.00  0.00    +0.000 C 
ATOM      5  C   UNL     1       0.126   9.804  20.077  0.00  0.00    +0.000 C 
ATOM      6  C   UNL     1       0.782   8.450  19.758  0.00  0.00    +0.000 C 
ENDROOT
BRANCH   1   7
ATOM      7  C   UNL     1       2.526   7.216  18.555  0.00  0.00    +0.000 C 
BRANCH   7  11
ATOM      8  N   UNL     1       4.004   3.883  18.264  0.00  0.00    +0.000 NA
ATOM      9  C   UNL     1       4.435   4.894  19.246  0.00  0.00    +0.000 C 
ATOM     10  C   UNL     1       3.287   5.296  20.161  0.00  0.00    +0.000 C 
ATOM     11  C   UNL     1       2.153   5.931  19.354  0.00  0.00    +0.000 C 
ATOM     12  C   UNL     1       1.664   4.827  18.397  0.00  0.00    +0.000 C 
ATOM     13  C   UNL     1       2.797   4.281  17.512  0.00  0.00    +0.000 C 
BRANCH   8  14
ATOM     14  C   UNL     1       5.095   3.536  17.336  0.00  0.00    +0.000 C 
BRANCH  14  15
ATOM     15  C   UNL     1       4.961   4.175  15.949  0.00  0.00    +0.000 C 
BRANCH  15  16
ATOM     16  C   UNL     1       5.517   5.605  15.865  0.00  0.00    +0.000 C 
BRANCH  16  17
ATOM     17  C   UNL     1       7.016   5.554  15.745  0.00  0.00    +0.000 C 
ATOM     18  O   UNL     1       7.648   4.644  15.210  0.00  0.00    +0.000 OA
BRANCH  17  20
ATOM     19  C   UNL     1       7.177   6.876  17.648  0.00  0.00    +0.000 C 
ATOM     20  O   UNL     1       7.585   6.657  16.299  0.00  0.00    +0.000 OA
ENDBRANCH  17  20
ENDBRANCH  16  17
ENDBRANCH  15  16
ENDBRANCH  14  15
ENDBRANCH   8  14
ENDBRANCH   7  11
ENDBRANCH   1   7
BRANCH   4  21
ATOM     21  O   UNL     1      -0.789  10.091  17.872  0.00  0.00    +0.000 OA
BRANCH  21  22
ATOM     22  C   UNL     1      -2.027  10.632  17.663  0.00  0.00    +0.000 A 
ATOM     23  C   UNL     1      -2.773  10.459  16.509  0.00  0.00    +0.000 A 
ATOM     24  C   UNL     1      -4.045  11.001  16.378  0.00  0.00    +0.000 A 
ATOM     25  C   UNL     1      -4.621  11.751  17.411  0.00  0.00    +0.000 A 
ATOM     26  C   UNL     1      -3.874  11.914  18.594  0.00  0.00    +0.000 A 
ATOM     27 CL   UNL     1      -4.507  12.772  19.955  0.00  0.00    +0.000 Cl
ATOM     28  C   UNL     1      -2.592  11.354  18.717  0.00  0.00    +0.000 A 
BRANCH  25  29
ATOM     29  C   UNL     1      -6.021  12.259  17.191  0.00  0.00    +0.000 C 
BRANCH  29  30
ATOM     30  O   UNL     1      -6.999  11.398  17.773  0.00  0.00    +0.000 OA
ATOM     31  H   UNL     1      -7.481  10.955  17.055  0.00  0.00    +0.000 HD
ENDBRANCH  29  30
ENDBRANCH  25  29
ENDBRANCH  21  22
ENDBRANCH   4  21
TORSDOF 11
ENDMDL
MODEL 4
REMARK VINA RESULT:      -6.7      1.286      1.600
REMARK  Name = 
REMARK  12 active torsions:
REMARK  status: ('A' for Active; 'I' for Inactive)
REMARK    1  A    between atoms: C_1  and  O_2
REMARK    2  A    between atoms: O_2  and  C_3
REMARK    3  A    between atoms: C_3  and  C_5
REMARK    4  A    between atoms: C_5  and  C_6
REMARK    5  A    between atoms: C_6  and  C_7
REMARK    6  A    between atoms: C_7  and  N_8
REMARK    7  A    between atoms: C_11  and  C_12
REMARK    8  A    between atoms: C_12  and  N_13
REMARK    9  A    between atoms: C_16  and  O_17
REMARK   10  A    between atoms: O_17  and  C_18
REMARK   11  A    between atoms: C_21  and  C_22
REMARK   12  A    between atoms: C_22  and  O_23
REMARK                            x       y       z     vdW  Elec       q    Type
REMARK                         _______ _______ _______ _____ _____    ______ ____
ROOT
ATOM      1  N   UNL     1       3.582   3.748  18.205  0.00  0.00    +0.000 NA
ATOM      2  C   UNL     1       3.967   3.970  19.615  0.00  0.00    +0.000 C 
ATOM      3  C   UNL     1       2.754   4.055  20.532  0.00  0.00    +0.000 C 
ATOM      4  C   UNL     1       1.870   5.239  20.127  0.00  0.00    +0.000 C 
ATOM      5  C   UNL     1       1.387   4.927  18.709  0.00  0.00    +0.000 C 
ATOM      6  C   UNL     1       2.564   4.707  17.743  0.00  0.00    +0.000 C 
ENDROOT
BRANCH   1   7
ATOM      7  C   UNL     1       4.810   3.794  17.375  0.00  0.00    +0.000 C 
BRANCH   7  11
ATOM      8  N   UNL     1       6.920   5.421  14.871  0.00  0.00    +0.000 NA
ATOM      9  C   UNL     1       5.588   5.909  15.269  0.00  0.00    +0.000 C 
ATOM     10  C   UNL     1       5.543   6.228  16.758  0.00  0.00    +0.000 C 
ATOM     11  C   UNL     1       5.810   4.970  17.586  0.00  0.00    +0.000 C 
ATOM     12  C   UNL     1       7.240   4.531  17.214  0.00  0.00    +0.000 C 
ATOM     13  C   UNL     1       7.402   4.300  15.702  0.00  0.00    +0.000 C 
BRANCH   8  14
ATOM     14  C   UNL     1       6.953   5.051  13.444  0.00  0.00    +0.000 C 
BRANCH  14  15
ATOM     15  C   UNL     1       6.363   3.669  13.144  0.00  0.00    +0.000 C 
BRANCH  15  16
ATOM     16  C   UNL     1       4.854   3.683  12.854  0.00  0.00    +0.000 C 
BRANCH  16  17
ATOM     17  C   UNL     1       4.571   2.856  11.630  0.00  0.00    +0.000 C 
ATOM     18  O   UNL     1       5.340   2.026  11.149  0.00  0.00    +0.000 OA
BRANCH  17  20
ATOM     19  C   UNL     1       3.394   3.843   9.888  0.00  0.00    +0.000 C 
ATOM     20  O   UNL     1       3.340   3.139  11.127  0.00  0.00    +0.000 OA
ENDBRANCH  17  20
ENDBRANCH  16  17
ENDBRANCH  15  16
ENDBRANCH  14  15
ENDBRANCH   8  14
ENDBRANCH   7  11
ENDBRANCH   1   7
BRANCH   4  21
ATOM     21  O   UNL     1       2.568   6.504  20.087  0.00  0.00    +0.000 OA
BRANCH  21  22
ATOM     22  C   UNL     1       1.830   7.653  20.036  0.00  0.00    +0.000 A 
ATOM     23  C   UNL     1       1.704   8.453  18.913  0.00  0.00    +0.000 A 
ATOM     24  C   UNL     1       0.901   9.587  18.914  0.00  0.00    +0.000 A 
ATOM     25  C   UNL     1       0.190   9.968  20.059  0.00  0.00    +0.000 A 
ATOM     26  C   UNL     1       0.300   9.147  21.199  0.00  0.00    +0.000 A 
ATOM     27 CL   UNL     1      -0.575   9.488  22.650  0.00  0.00    +0.000 Cl
ATOM     28  C   UNL     1       1.110   7.999  21.182  0.00  0.00    +0.000 A 
BRANCH  25  29
ATOM     29  C   UNL     1      -0.686  11.186  19.949  0.00  0.00    +0.000 C 
BRANCH  29  30
ATOM     30  O   UNL     1       0.057  12.395  20.104  0.00  0.00    +0.000 OA
ATOM     31  H   UNL     1       1.003  12.173  20.112  0.00  0.00    +0.000 HD
ENDBRANCH  29  30
ENDBRANCH  25  29
ENDBRANCH  21  22
ENDBRANCH   4  21
TORSDOF 11
ENDMDL
MODEL 5
REMARK VINA RESULT:      -6.7      3.825      5.998
REMARK  Name = 
REMARK  12 active torsions:
REMARK  status: ('A' for Active; 'I' for Inactive)
REMARK    1  A    between atoms: C_1  and  O_2
REMARK    2  A    between atoms: O_2  and  C_3
REMARK    3  A    between atoms: C_3  and  C_5
REMARK    4  A    between atoms: C_5  and  C_6
REMARK    5  A    between atoms: C_6  and  C_7
REMARK    6  A    between atoms: C_7  and  N_8
REMARK    7  A    between atoms: C_11  and  C_12
REMARK    8  A    between atoms: C_12  and  N_13
REMARK    9  A    between atoms: C_16  and  O_17
REMARK   10  A    between atoms: O_17  and  C_18
REMARK   11  A    between atoms: C_21  and  C_22
REMARK   12  A    between atoms: C_22  and  O_23
REMARK                            x       y       z     vdW  Elec       q    Type
REMARK                         _______ _______ _______ _____ _____    ______ ____
ROOT
ATOM      1  N   UNL     1       2.768   8.116  18.747  0.00  0.00    +0.000 NA
ATOM      2  C   UNL     1       2.519   8.886  17.510  0.00  0.00    +0.000 C 
ATOM      3  C   UNL     1       2.054  10.305  17.805  0.00  0.00    +0.000 C 
ATOM      4  C   UNL     1       0.730  10.276  18.577  0.00  0.00    +0.000 C 
ATOM      5  C   UNL     1       1.043   9.581  19.904  0.00  0.00    +0.000 C 
ATOM      6  C   UNL     1       1.634   8.178  19.685  0.00  0.00    +0.000 C 
ENDROOT
BRANCH   1   7
ATOM      7  C   UNL     1       3.103   6.722  18.368  0.00  0.00    +0.000 C 
BRANCH   7  11
ATOM      8  N   UNL     1       4.530   3.441  17.611  0.00  0.00    +0.000 NA
ATOM      9  C   UNL     1       4.024   4.376  16.591  0.00  0.00    +0.000 C 
ATOM     10  C   UNL     1       4.775   5.700  16.636  0.00  0.00    +0.000 C 
ATOM     11  C   UNL     1       4.576   6.385  17.989  0.00  0.00    +0.000 C 
ATOM     12  C   UNL     1       5.192   5.427  19.028  0.00  0.00    +0.000 C 
ATOM     13  C   UNL     1       4.564   4.024  18.967  0.00  0.00    +0.000 C 
BRANCH   8  14
ATOM     14  C   UNL     1       3.765   2.181  17.613  0.00  0.00    +0.000 C 
BRANCH  14  15
ATOM     15  C   UNL     1       3.306   1.733  19.005  0.00  0.00    +0.000 C 
BRANCH  15  16
ATOM     16  C   UNL     1       1.780   1.724  19.187  0.00  0.00    +0.000 C 
BRANCH  16  17
ATOM     17  C   UNL     1       1.400   2.683  20.281  0.00  0.00    +0.000 C 
ATOM     18  O   UNL     1       1.310   2.390  21.472  0.00  0.00    +0.000 OA
BRANCH  17  20
ATOM     19  C   UNL     1       1.301   4.953  20.764  0.00  0.00    +0.000 C 
ATOM     20  O   UNL     1       1.176   3.927  19.781  0.00  0.00    +0.000 OA
ENDBRANCH  17  20
ENDBRANCH  16  17
ENDBRANCH  15  16
ENDBRANCH  14  15
ENDBRANCH   8  14
ENDBRANCH   7  11
ENDBRANCH   1   7
BRANCH   4  21
ATOM     21  O   UNL     1      -0.314   9.524  17.920  0.00  0.00    +0.000 OA
BRANCH  21  22
ATOM     22  C   UNL     1      -1.527  10.124  17.728  0.00  0.00    +0.000 A 
ATOM     23  C   UNL     1      -2.158  10.930  18.660  0.00  0.00    +0.000 A 
ATOM     24  C   UNL     1      -3.372  11.547  18.386  0.00  0.00    +0.000 A 
ATOM     25  C   UNL     1      -4.008  11.372  17.150  0.00  0.00    +0.000 A 
ATOM     26  C   UNL     1      -3.361  10.568  16.191  0.00  0.00    +0.000 A 
ATOM     27 CL   UNL     1      -4.026  10.326  14.613  0.00  0.00    +0.000 Cl
ATOM     28  C   UNL     1      -2.130   9.956  16.479  0.00  0.00    +0.000 A 
BRANCH  25  29
ATOM     29  C   UNL     1      -5.298  12.117  16.931  0.00  0.00    +0.000 C 
BRANCH  29  30
ATOM     30  O   UNL     1      -6.419  11.415  17.469  0.00  0.00    +0.000 OA
ATOM     31  H   UNL     1      -6.877  12.004  18.091  0.00  0.00    +0.000 HD
ENDBRANCH  29  30
ENDBRANCH  25  29
ENDBRANCH  21  22
ENDBRANCH   4  21
TORSDOF 11
ENDMDL
MODEL 6
REMARK VINA RESULT:      -6.6      1.108      1.623
REMARK  Name = 
REMARK  12 active torsions:
REMARK  status: ('A' for Active; 'I' for Inactive)
REMARK    1  A    between atoms: C_1  and  O_2
REMARK    2  A    between atoms: O_2  and  C_3
REMARK    3  A    between atoms: C_3  and  C_5
REMARK    4  A    between atoms: C_5  and  C_6
REMARK    5  A    between atoms: C_6  and  C_7
REMARK    6  A    between atoms: C_7  and  N_8
REMARK    7  A    between atoms: C_11  and  C_12
REMARK    8  A    between atoms: C_12  and  N_13
REMARK    9  A    between atoms: C_16  and  O_17
REMARK   10  A    between atoms: O_17  and  C_18
REMARK   11  A    between atoms: C_21  and  C_22
REMARK   12  A    between atoms: C_22  and  O_23
REMARK                            x       y       z     vdW  Elec       q    Type
REMARK                         _______ _______ _______ _____ _____    ______ ____
ROOT
ATOM      1  N   UNL     1       3.733   3.970  18.921  0.00  0.00    +0.000 NA
ATOM      2  C   UNL     1       3.790   4.588  20.263  0.00  0.00    +0.000 C 
ATOM      3  C   UNL     1       2.402   4.810  20.848  0.00  0.00    +0.000 C 
ATOM      4  C   UNL     1       1.603   5.769  19.959  0.00  0.00    +0.000 C 
ATOM      5  C   UNL     1       1.455   5.055  18.613  0.00  0.00    +0.000 C 
ATOM      6  C   UNL     1       2.822   4.687  18.012  0.00  0.00    +0.000 C 
ENDROOT
BRANCH   1   7
ATOM      7  C   UNL     1       5.113   3.897  18.383  0.00  0.00    +0.000 C 
BRANCH   7  11
ATOM      8  N   UNL     1       7.174   5.577  15.872  0.00  0.00    +0.000 NA
ATOM      9  C   UNL     1       5.818   6.011  16.251  0.00  0.00    +0.000 C 
ATOM     10  C   UNL     1       5.744   6.351  17.733  0.00  0.00    +0.000 C 
ATOM     11  C   UNL     1       6.058   5.119  18.584  0.00  0.00    +0.000 C 
ATOM     12  C   UNL     1       7.510   4.739  18.232  0.00  0.00    +0.000 C 
ATOM     13  C   UNL     1       7.696   4.492  16.725  0.00  0.00    +0.000 C 
BRANCH   8  14
ATOM     14  C   UNL     1       7.236   5.186  14.452  0.00  0.00    +0.000 C 
BRANCH  14  15
ATOM     15  C   UNL     1       5.869   4.893  13.824  0.00  0.00    +0.000 C 
BRANCH  15  16
ATOM     16  C   UNL     1       5.586   3.397  13.615  0.00  0.00    +0.000 C 
BRANCH  16  17
ATOM     17  C   UNL     1       5.581   3.089  12.143  0.00  0.00    +0.000 C 
ATOM     18  O   UNL     1       4.577   3.068  11.433  0.00  0.00    +0.000 OA
BRANCH  17  20
ATOM     19  C   UNL     1       6.963   1.580  11.044  0.00  0.00    +0.000 C 
ATOM     20  O   UNL     1       6.840   2.844  11.694  0.00  0.00    +0.000 OA
ENDBRANCH  17  20
ENDBRANCH  16  17
ENDBRANCH  15  16
ENDBRANCH  14  15
ENDBRANCH   8  14
ENDBRANCH   7  11
ENDBRANCH   1   7
BRANCH   4  21
ATOM     21  O   UNL     1       2.264   7.032  19.719  0.00  0.00    +0.000 OA
BRANCH  21  22
ATOM     22  C   UNL     1       1.615   8.183  20.067  0.00  0.00    +0.000 A 
ATOM     23  C   UNL     1       1.318   9.211  19.189  0.00  0.00    +0.000 A 
ATOM     24  C   UNL     1       0.616  10.338  19.599  0.00  0.00    +0.000 A 
ATOM     25  C   UNL     1       0.183  10.477  20.924  0.00  0.00    +0.000 A 
ATOM     26  C   UNL     1       0.465   9.425  21.817  0.00  0.00    +0.000 A 
ATOM     27 CL   UNL     1      -0.069   9.463  23.460  0.00  0.00    +0.000 Cl
ATOM     28  C   UNL     1       1.170   8.288  21.387  0.00  0.00    +0.000 A 
BRANCH  25  29
ATOM     29  C   UNL     1      -0.609  11.712  21.260  0.00  0.00    +0.000 C 
BRANCH  29  30
ATOM     30  O   UNL     1       0.170  12.667  21.980  0.00  0.00    +0.000 OA
ATOM     31  H   UNL     1      -0.421  13.377  22.281  0.00  0.00    +0.000 HD
ENDBRANCH  29  30
ENDBRANCH  25  29
ENDBRANCH  21  22
ENDBRANCH   4  21
TORSDOF 11
ENDMDL
MODEL 7
REMARK VINA RESULT:      -6.5      3.672      5.168
REMARK  Name = 
REMARK  12 active torsions:
REMARK  status: ('A' for Active; 'I' for Inactive)
REMARK    1  A    between atoms: C_1  and  O_2
REMARK    2  A    between atoms: O_2  and  C_3
REMARK    3  A    between atoms: C_3  and  C_5
REMARK    4  A    between atoms: C_5  and  C_6
REMARK    5  A    between atoms: C_6  and  C_7
REMARK    6  A    between atoms: C_7  and  N_8
REMARK    7  A    between atoms: C_11  and  C_12
REMARK    8  A    between atoms: C_12  and  N_13
REMARK    9  A    between atoms: C_16  and  O_17
REMARK   10  A    between atoms: O_17  and  C_18
REMARK   11  A    between atoms: C_21  and  C_22
REMARK   12  A    between atoms: C_22  and  O_23
REMARK                            x       y       z     vdW  Elec       q    Type
REMARK                         _______ _______ _______ _____ _____    ______ ____
ROOT
ATOM      1  N   UNL     1       2.329   8.445  18.963  0.00  0.00    +0.000 NA
ATOM      2  C   UNL     1       1.761   9.237  17.852  0.00  0.00    +0.000 C 
ATOM      3  C   UNL     1       1.278  10.605  18.314  0.00  0.00    +0.000 C 
ATOM      4  C   UNL     1       0.162  10.446  19.353  0.00  0.00    +0.000 C 
ATOM      5  C   UNL     1       0.807   9.730  20.542  0.00  0.00    +0.000 C 
ATOM      6  C   UNL     1       1.428   8.386  20.128  0.00  0.00    +0.000 C 
ENDROOT
BRANCH   1   7
ATOM      7  C   UNL     1       2.665   7.096  18.449  0.00  0.00    +0.000 C 
BRANCH   7  11
ATOM      8  N   UNL     1       3.971   3.693  18.145  0.00  0.00    +0.000 NA
ATOM      9  C   UNL     1       4.531   4.714  19.048  0.00  0.00    +0.000 C 
ATOM     10  C   UNL     1       3.487   5.195  20.048  0.00  0.00    +0.000 C 
ATOM     11  C   UNL     1       2.313   5.855  19.323  0.00  0.00    +0.000 C 
ATOM     12  C   UNL     1       1.693   4.744  18.453  0.00  0.00    +0.000 C 
ATOM     13  C   UNL     1       2.719   4.120  17.490  0.00  0.00    +0.000 C 
BRANCH   8  14
ATOM     14  C   UNL     1       4.958   3.269  17.136  0.00  0.00    +0.000 C 
BRANCH  14  15
ATOM     15  C   UNL     1       4.653   3.764  15.718  0.00  0.00    +0.000 C 
BRANCH  15  16
ATOM     16  C   UNL     1       5.905   4.048  14.873  0.00  0.00    +0.000 C 
BRANCH  16  17
ATOM     17  C   UNL     1       6.505   5.362  15.292  0.00  0.00    +0.000 C 
ATOM     18  O   UNL     1       7.710   5.600  15.343  0.00  0.00    +0.000 OA
BRANCH  17  20
ATOM     19  C   UNL     1       5.836   7.027  16.768  0.00  0.00    +0.000 C 
ATOM     20  O   UNL     1       5.535   6.262  15.602  0.00  0.00    +0.000 OA
ENDBRANCH  17  20
ENDBRANCH  16  17
ENDBRANCH  15  16
ENDBRANCH  14  15
ENDBRANCH   8  14
ENDBRANCH   7  11
ENDBRANCH   1   7
BRANCH   4  21
ATOM     21  O   UNL     1      -0.948   9.639  18.901  0.00  0.00    +0.000 OA
BRANCH  21  22
ATOM     22  C   UNL     1      -2.054  10.272  18.406  0.00  0.00    +0.000 A 
ATOM     23  C   UNL     1      -2.798  11.208  19.103  0.00  0.00    +0.000 A 
ATOM     24  C   UNL     1      -3.887  11.848  18.525  0.00  0.00    +0.000 A 
ATOM     25  C   UNL     1      -4.278  11.565  17.210  0.00  0.00    +0.000 A 
ATOM     26  C   UNL     1      -3.512  10.627  16.489  0.00  0.00    +0.000 A 
ATOM     27 CL   UNL     1      -3.866  10.241  14.842  0.00  0.00    +0.000 Cl
ATOM     28  C   UNL     1      -2.408   9.993  17.083  0.00  0.00    +0.000 A 
BRANCH  25  29
ATOM     29  C   UNL     1      -5.442  12.342  16.658  0.00  0.00    +0.000 C 
BRANCH  29  30
ATOM     30  O   UNL     1      -6.684  11.914  17.218  0.00  0.00    +0.000 OA
ATOM     31  H   UNL     1      -6.698  10.942  17.221  0.00  0.00    +0.000 HD
ENDBRANCH  29  30
ENDBRANCH  25  29
ENDBRANCH  21  22
ENDBRANCH   4  21
TORSDOF 11
ENDMDL
MODEL 8
REMARK VINA RESULT:      -6.5      3.653      5.390
REMARK  Name = 
REMARK  12 active torsions:
REMARK  status: ('A' for Active; 'I' for Inactive)
REMARK    1  A    between atoms: C_1  and  O_2
REMARK    2  A    between atoms: O_2  and  C_3
REMARK    3  A    between atoms: C_3  and  C_5
REMARK    4  A    between atoms: C_5  and  C_6
REMARK    5  A    between atoms: C_6  and  C_7
REMARK    6  A    between atoms: C_7  and  N_8
REMARK    7  A    between atoms: C_11  and  C_12
REMARK    8  A    between atoms: C_12  and  N_13
REMARK    9  A    between atoms: C_16  and  O_17
REMARK   10  A    between atoms: O_17  and  C_18
REMARK   11  A    between atoms: C_21  and  C_22
REMARK   12  A    between atoms: C_22  and  O_23
REMARK                            x       y       z     vdW  Elec       q    Type
REMARK                         _______ _______ _______ _____ _____    ______ ____
ROOT
ATOM      1  N   UNL     1       2.198   8.575  18.935  0.00  0.00    +0.000 NA
ATOM      2  C   UNL     1       1.954   9.526  17.830  0.00  0.00    +0.000 C 
ATOM      3  C   UNL     1       1.466  10.876  18.335  0.00  0.00    +0.000 C 
ATOM      4  C   UNL     1       0.132  10.712  19.072  0.00  0.00    +0.000 C 
ATOM      5  C   UNL     1       0.437   9.822  20.279  0.00  0.00    +0.000 C 
ATOM      6  C   UNL     1       1.050   8.477  19.854  0.00  0.00    +0.000 C 
ENDROOT
BRANCH   1   7
ATOM      7  C   UNL     1       2.557   7.262  18.349  0.00  0.00    +0.000 C 
BRANCH   7  11
ATOM      8  N   UNL     1       3.901   3.900  18.871  0.00  0.00    +0.000 NA
ATOM      9  C   UNL     1       3.780   4.914  19.933  0.00  0.00    +0.000 C 
ATOM     10  C   UNL     1       2.331   5.347  20.117  0.00  0.00    +0.000 C 
ATOM     11  C   UNL     1       1.796   5.993  18.838  0.00  0.00    +0.000 C 
ATOM     12  C   UNL     1       1.853   4.887  17.767  0.00  0.00    +0.000 C 
ATOM     13  C   UNL     1       3.270   4.311  17.601  0.00  0.00    +0.000 C 
BRANCH   8  14
ATOM     14  C   UNL     1       5.308   3.523  18.645  0.00  0.00    +0.000 C 
BRANCH  14  15
ATOM     15  C   UNL     1       6.252   4.717  18.462  0.00  0.00    +0.000 C 
BRANCH  15  16
ATOM     16  C   UNL     1       7.132   4.630  17.206  0.00  0.00    +0.000 C 
BRANCH  16  17
ATOM     17  C   UNL     1       6.980   5.890  16.399  0.00  0.00    +0.000 C 
ATOM     18  O   UNL     1       7.676   6.896  16.527  0.00  0.00    +0.000 OA
BRANCH  17  20
ATOM     19  C   UNL     1       6.163   4.687  14.587  0.00  0.00    +0.000 C 
ATOM     20  O   UNL     1       5.971   5.770  15.496  0.00  0.00    +0.000 OA
ENDBRANCH  17  20
ENDBRANCH  16  17
ENDBRANCH  15  16
ENDBRANCH  14  15
ENDBRANCH   8  14
ENDBRANCH   7  11
ENDBRANCH   1   7
BRANCH   4  21
ATOM     21  O   UNL     1      -0.893  10.059  18.289  0.00  0.00    +0.000 OA
BRANCH  21  22
ATOM     22  C   UNL     1      -2.136  10.624  18.244  0.00  0.00    +0.000 A 
ATOM     23  C   UNL     1      -3.134  10.252  17.359  0.00  0.00    +0.000 A 
ATOM     24  C   UNL     1      -4.393  10.838  17.394  0.00  0.00    +0.000 A 
ATOM     25  C   UNL     1      -4.700  11.836  18.328  0.00  0.00    +0.000 A 
ATOM     26  C   UNL     1      -3.694  12.205  19.243  0.00  0.00    +0.000 A 
ATOM     27 CL   UNL     1      -3.977  13.384  20.475  0.00  0.00    +0.000 Cl
ATOM     28  C   UNL     1      -2.427  11.599  19.201  0.00  0.00    +0.000 A 
BRANCH  25  29
ATOM     29  C   UNL     1      -6.104  12.378  18.316  0.00  0.00    +0.000 C 
BRANCH  29  30
ATOM     30  O   UNL     1      -6.798  12.037  17.116  0.00  0.00    +0.000 OA
ATOM     31  H   UNL     1      -6.635  12.735  16.461  0.00  0.00    +0.000 HD
ENDBRANCH  29  30
ENDBRANCH  25  29
ENDBRANCH  21  22
ENDBRANCH   4  21
TORSDOF 11
ENDMDL
MODEL 9
REMARK VINA RESULT:      -6.5      3.237      5.209
REMARK  Name = 
REMARK  12 active torsions:
REMARK  status: ('A' for Active; 'I' for Inactive)
REMARK    1  A    between atoms: C_1  and  O_2
REMARK    2  A    between atoms: O_2  and  C_3
REMARK    3  A    between atoms: C_3  and  C_5
REMARK    4  A    between atoms: C_5  and  C_6
REMARK    5  A    between atoms: C_6  and  C_7
REMARK    6  A    between atoms: C_7  and  N_8
REMARK    7  A    between atoms: C_11  and  C_12
REMARK    8  A    between atoms: C_12  and  N_13
REMARK    9  A    between atoms: C_16  and  O_17
REMARK   10  A    between atoms: O_17  and  C_18
REMARK   11  A    between atoms: C_21  and  C_22
REMARK   12  A    between atoms: C_22  and  O_23
REMARK                            x       y       z     vdW  Elec       q    Type
REMARK                         _______ _______ _______ _____ _____    ______ ____
ROOT
ATOM      1  N   UNL     1       3.831   4.017  18.354  0.00  0.00    +0.000 NA
ATOM      2  C   UNL     1       4.195   4.621  19.653  0.00  0.00    +0.000 C 
ATOM      3  C   UNL     1       3.019   4.649  20.619  0.00  0.00    +0.000 C 
ATOM      4  C   UNL     1       1.884   5.503  20.042  0.00  0.00    +0.000 C 
ATOM      5  C   UNL     1       1.444   4.790  18.760  0.00  0.00    +0.000 C 
ATOM      6  C   UNL     1       2.615   4.615  17.778  0.00  0.00    +0.000 C 
ENDROOT
BRANCH   1   7
ATOM      7  C   UNL     1       4.996   4.135  17.443  0.00  0.00    +0.000 C 
BRANCH   7  11
ATOM      8  N   UNL     1       7.006   7.117  16.779  0.00  0.00    +0.000 NA
ATOM      9  C   UNL     1       7.314   5.779  16.244  0.00  0.00    +0.000 C 
ATOM     10  C   UNL     1       6.168   5.253  15.389  0.00  0.00    +0.000 C 
ATOM     11  C   UNL     1       4.896   5.103  16.227  0.00  0.00    +0.000 C 
ATOM     12  C   UNL     1       4.550   6.528  16.702  0.00  0.00    +0.000 C 
ATOM     13  C   UNL     1       5.708   7.179  17.478  0.00  0.00    +0.000 C 
BRANCH   8  14
ATOM     14  C   UNL     1       8.085   7.605  17.658  0.00  0.00    +0.000 C 
BRANCH  14  15
ATOM     15  C   UNL     1       8.011   9.105  17.963  0.00  0.00    +0.000 C 
BRANCH  15  16
ATOM     16  C   UNL     1       9.044   9.583  18.995  0.00  0.00    +0.000 C 
BRANCH  16  17
ATOM     17  C   UNL     1       9.579  10.927  18.582  0.00  0.00    +0.000 C 
ATOM     18  O   UNL     1      10.272  11.133  17.586  0.00  0.00    +0.000 OA
BRANCH  17  20
ATOM     19  C   UNL     1       9.405  11.537  20.817  0.00  0.00    +0.000 C 
ATOM     20  O   UNL     1       9.187  11.894  19.453  0.00  0.00    +0.000 OA
ENDBRANCH  17  20
ENDBRANCH  16  17
ENDBRANCH  15  16
ENDBRANCH  14  15
ENDBRANCH   8  14
ENDBRANCH   7  11
ENDBRANCH   1   7
BRANCH   4  21
ATOM     21  O   UNL     1       2.284   6.845  19.686  0.00  0.00    +0.000 OA
BRANCH  21  22
ATOM     22  C   UNL     1       1.583   7.894  20.211  0.00  0.00    +0.000 A 
ATOM     23  C   UNL     1       1.230   8.010  21.545  0.00  0.00    +0.000 A 
ATOM     24  C   UNL     1       0.554   9.125  22.024  0.00  0.00    +0.000 A 
ATOM     25  C   UNL     1       0.198  10.177  21.169  0.00  0.00    +0.000 A 
ATOM     26  C   UNL     1       0.572  10.072  19.815  0.00  0.00    +0.000 A 
ATOM     27 CL   UNL     1       0.235  11.333  18.682  0.00  0.00    +0.000 Cl
ATOM     28  C   UNL     1       1.262   8.942  19.346  0.00  0.00    +0.000 A 
BRANCH  25  29
ATOM     29  C   UNL     1      -0.493  11.361  21.790  0.00  0.00    +0.000 C 
BRANCH  29  30
ATOM     30  O   UNL     1       0.351  12.512  21.829  0.00  0.00    +0.000 OA
ATOM     31  H   UNL     1       1.191  12.288  21.395  0.00  0.00    +0.000 HD
ENDBRANCH  29  30
ENDBRANCH  25  29
ENDBRANCH  21  22
ENDBRANCH   4  21
TORSDOF 11
ENDMDL
