MODEL 1
REMARK VINA RESULT:      -7.3      0.000      0.000
REMARK  Name = 
REMARK  12 active torsions:
REMARK  status: ('A' for Active; 'I' for Inactive)
REMARK    1  A    between atoms: C_1  and  C_2
REMARK    2  A    between atoms: C_2  and  C_3
REMARK    3  A    between atoms: C_2  and  C_17
REMARK    4  A    between atoms: N_5  and  C_6
REMARK    5  A    between atoms: C_6  and  C_7
REMARK    6  A    between atoms: C_10  and  C_11
REMARK    7  A    between atoms: C_11  and  C_12
REMARK    8  A    between atoms: C_11  and  C_13
REMARK    9  A    between atoms: C_11  and  C_14
REMARK   10  A    between atoms: C_20  and  N_21
REMARK   11  A    between atoms: N_21  and  S_22
REMARK   12  A    between atoms: S_22  and  C_23
REMARK                            x       y       z     vdW  Elec       q    Type
REMARK                         _______ _______ _______ _____ _____    ______ ____
ROOT
ATOM      1  C   UNL     1       1.003  12.934  20.214  0.00  0.00    +0.000 C 
ATOM      2  C   UNL     1       0.294  11.617  19.875  0.00  0.00    +0.000 C 
ENDROOT
BRANCH   2   3
ATOM      3  C   UNL     1      -1.194  11.859  19.640  0.00  0.00    +0.000 A 
ATOM      4  C   UNL     1      -1.875  12.789  20.446  0.00  0.00    +0.000 A 
ATOM      5  C   UNL     1      -3.218  13.074  20.259  0.00  0.00    +0.000 A 
ATOM      6  C   UNL     1      -3.913  12.470  19.228  0.00  0.00    +0.000 A 
ATOM      7  C   UNL     1      -3.282  11.530  18.411  0.00  0.00    +0.000 A 
ATOM      8  C   UNL     1      -1.937  11.213  18.630  0.00  0.00    +0.000 A 
ATOM      9 CL   UNL     1      -1.229  10.013  17.597  0.00  0.00    +0.000 Cl
BRANCH   6  10
ATOM     10  N   UNL     1      -5.269  12.846  19.064  0.00  0.00    +0.000 N 
ATOM     11  H   UNL     1      -5.492  13.802  18.793  0.00  0.00    +0.000 HD
BRANCH  10  12
ATOM     12  S   UNL     1      -6.473  12.061  19.930  0.00  0.00    +0.000 S 
ATOM     13  C   UNL     1      -6.720  10.592  18.958  0.00  0.00    +0.000 C 
ATOM     14  O   UNL     1      -5.970  11.678  21.229  0.00  0.00    +0.000 OA
ATOM     15  O   UNL     1      -7.655  12.873  19.787  0.00  0.00    +0.000 OA
ENDBRANCH  10  12
ENDBRANCH   6  10
ENDBRANCH   2   3
BRANCH   2  16
ATOM     16  C   UNL     1       0.570  10.490  20.882  0.00  0.00    +0.000 C 
ATOM     17  O   UNL     1       0.578  10.708  22.092  0.00  0.00    +0.000 OA
ATOM     18  N   UNL     1       0.790   9.234  20.374  0.00  0.00    +0.000 N 
ATOM     19  H   UNL     1       0.926   9.092  19.387  0.00  0.00    +0.000 HD
BRANCH  18  20
ATOM     20  C   UNL     1       1.087   8.097  21.216  0.00  0.00    +0.000 C 
BRANCH  20  21
ATOM     21  C   UNL     1       1.795   7.015  20.448  0.00  0.00    +0.000 A 
ATOM     22  C   UNL     1       1.746   5.695  20.897  0.00  0.00    +0.000 A 
ATOM     23  C   UNL     1       2.327   4.669  20.150  0.00  0.00    +0.000 A 
ATOM     24  C   UNL     1       2.980   4.916  18.929  0.00  0.00    +0.000 A 
ATOM     25  C   UNL     1       3.057   6.254  18.509  0.00  0.00    +0.000 A 
ATOM     26  C   UNL     1       2.464   7.287  19.249  0.00  0.00    +0.000 A 
BRANCH  24  27
ATOM     27  C   UNL     1       3.526   3.771  18.056  0.00  0.00    +0.000 C 
ATOM     28  C   UNL     1       4.302   2.723  18.888  0.00  0.00    +0.000 C 
ATOM     29  C   UNL     1       2.350   3.051  17.357  0.00  0.00    +0.000 C 
ATOM     30  C   UNL     1       4.486   4.292  16.968  0.00  0.00    +0.000 C 
ENDBRANCH  24  27
ENDBRANCH  20  21
ENDBRANCH  18  20
ENDBRANCH   2  16
TORSDOF 7
ENDMDL
MODEL 2
REMARK VINA RESULT:      -7.0      1.598      2.319
REMARK  Name = 
REMARK  12 active torsions:
REMARK  status: ('A' for Active; 'I' for Inactive)
REMARK    1  A    between atoms: C_1  and  C_2
REMARK    2  A    between atoms: C_2  and  C_3
REMARK    3  A    between atoms: C_2  and  C_17
REMARK    4  A    between atoms: N_5  and  C_6
REMARK    5  A    between atoms: C_6  and  C_7
REMARK    6  A    between atoms: C_10  and  C_11
REMARK    7  A    between atoms: C_11  and  C_12
REMARK    8  A    between atoms: C_11  and  C_13
REMARK    9  A    between atoms: C_11  and  C_14
REMARK   10  A    between atoms: C_20  and  N_21
REMARK   11  A    between atoms: N_21  and  S_22
REMARK   12  A    between atoms: S_22  and  C_23
REMARK                            x       y       z     vdW  Elec       q    Type
REMARK                         _______ _______ _______ _____ _____    ______ ____
ROOT
ATOM      1  C   UNL     1       0.221  10.060  21.635  0.00  0.00    +0.000 C 
ATOM      2  C   UNL     1       0.337  11.045  20.465  0.00  0.00    +0.000 C 
ENDROOT
BRANCH   2   3
ATOM      3  C   UNL     1      -1.044  11.527  20.036  0.00  0.00    +0.000 A 
ATOM      4  C   UNL     1      -1.643  10.967  18.892  0.00  0.00    +0.000 A 
ATOM      5  C   UNL     1      -2.910  11.342  18.473  0.00  0.00    +0.000 A 
ATOM      6  C   UNL     1      -3.637  12.258  19.210  0.00  0.00    +0.000 A 
ATOM      7  C   UNL     1      -3.077  12.850  20.343  0.00  0.00    +0.000 A 
ATOM      8  C   UNL     1      -1.782  12.501  20.741  0.00  0.00    +0.000 A 
ATOM      9 CL   UNL     1      -1.140  13.302  22.139  0.00  0.00    +0.000 Cl
BRANCH   6  10
ATOM     10  N   UNL     1      -4.943  12.557  18.750  0.00  0.00    +0.000 N 
ATOM     11  H   UNL     1      -5.109  13.429  18.251  0.00  0.00    +0.000 HD
BRANCH  10  12
ATOM     12  S   UNL     1      -6.282  11.942  19.553  0.00  0.00    +0.000 S 
ATOM     13  C   UNL     1      -6.531  10.396  18.710  0.00  0.00    +0.000 C 
ATOM     14  O   UNL     1      -5.944  11.669  20.931  0.00  0.00    +0.000 OA
ATOM     15  O   UNL     1      -7.383  12.803  19.202  0.00  0.00    +0.000 OA
ENDBRANCH  10  12
ENDBRANCH   6  10
ENDBRANCH   2   3
BRANCH   2  16
ATOM     16  C   UNL     1       1.181  10.516  19.294  0.00  0.00    +0.000 C 
ATOM     17  O   UNL     1       1.646  11.282  18.450  0.00  0.00    +0.000 OA
ATOM     18  N   UNL     1       1.404   9.163  19.241  0.00  0.00    +0.000 N 
ATOM     19  H   UNL     1       0.904   8.532  19.846  0.00  0.00    +0.000 HD
BRANCH  18  20
ATOM     20  C   UNL     1       2.159   8.542  18.175  0.00  0.00    +0.000 C 
BRANCH  20  21
ATOM     21  C   UNL     1       2.459   7.101  18.485  0.00  0.00    +0.000 A 
ATOM     22  C   UNL     1       2.068   6.554  19.707  0.00  0.00    +0.000 A 
ATOM     23  C   UNL     1       2.265   5.198  19.974  0.00  0.00    +0.000 A 
ATOM     24  C   UNL     1       2.860   4.334  19.037  0.00  0.00    +0.000 A 
ATOM     25  C   UNL     1       3.286   4.906  17.826  0.00  0.00    +0.000 A 
ATOM     26  C   UNL     1       3.078   6.265  17.548  0.00  0.00    +0.000 A 
BRANCH  24  27
ATOM     27  C   UNL     1       2.979   2.820  19.291  0.00  0.00    +0.000 C 
ATOM     28  C   UNL     1       2.842   1.999  17.988  0.00  0.00    +0.000 C 
ATOM     29  C   UNL     1       4.360   2.508  19.911  0.00  0.00    +0.000 C 
ATOM     30  C   UNL     1       1.892   2.318  20.263  0.00  0.00    +0.000 C 
ENDBRANCH  24  27
ENDBRANCH  20  21
ENDBRANCH  18  20
ENDBRANCH   2  16
TORSDOF 7
ENDMDL
MODEL 3
REMARK VINA RESULT:      -7.0      7.747     10.662
REMARK  Name = 
REMARK  12 active torsions:
REMARK  status: ('A' for Active; 'I' for Inactive)
REMARK    1  A    between atoms: C_1  and  C_2
REMARK    2  A    between atoms: C_2  and  C_3
REMARK    3  A    between atoms: C_2  and  C_17
REMARK    4  A    between atoms: N_5  and  C_6
REMARK    5  A    between atoms: C_6  and  C_7
REMARK    6  A    between atoms: C_10  and  C_11
REMARK    7  A    between atoms: C_11  and  C_12
REMARK    8  A    between atoms: C_11  and  C_13
REMARK    9  A    between atoms: C_11  and  C_14
REMARK   10  A    between atoms: C_20  and  N_21
REMARK   11  A    between atoms: N_21  and  S_22
REMARK   12  A    between atoms: S_22  and  C_23
REMARK                            x       y       z     vdW  Elec       q    Type
REMARK                         _______ _______ _______ _____ _____    ______ ____
ROOT
ATOM      1  C   UNL     1       8.268   5.094  18.848  0.00  0.00    +0.000 C 
ATOM      2  C   UNL     1       7.136   6.126  18.777  0.00  0.00    +0.000 C 
ENDROOT
BRANCH   2   3
ATOM      3  C   UNL     1       5.803   5.437  18.505  0.00  0.00    +0.000 A 
ATOM      4  C   UNL     1       4.723   5.659  19.379  0.00  0.00    +0.000 A 
ATOM      5  C   UNL     1       3.479   5.087  19.165  0.00  0.00    +0.000 A 
ATOM      6  C   UNL     1       3.263   4.309  18.043  0.00  0.00    +0.000 A 
ATOM      7  C   UNL     1       4.308   4.049  17.156  0.00  0.00    +0.000 A 
ATOM      8  C   UNL     1       5.574   4.594  17.397  0.00  0.00    +0.000 A 
ATOM      9 CL   UNL     1       6.832   4.202  16.269  0.00  0.00    +0.000 Cl
BRANCH   6  10
ATOM     10  N   UNL     1       1.954   3.797  17.862  0.00  0.00    +0.000 N 
ATOM     11  H   UNL     1       1.229   4.404  17.485  0.00  0.00    +0.000 HD
BRANCH  10  12
ATOM     12  S   UNL     1       1.391   2.554  18.838  0.00  0.00    +0.000 S 
ATOM     13  C   UNL     1       0.984   3.425  20.335  0.00  0.00    +0.000 C 
ATOM     14  O   UNL     1       0.179   2.003  18.278  0.00  0.00    +0.000 OA
ATOM     15  O   UNL     1       2.536   1.726  19.124  0.00  0.00    +0.000 OA
ENDBRANCH  10  12
ENDBRANCH   6  10
ENDBRANCH   2   3
BRANCH   2  16
ATOM     16  C   UNL     1       7.421   7.289  17.814  0.00  0.00    +0.000 C 
ATOM     17  O   UNL     1       6.905   7.330  16.698  0.00  0.00    +0.000 OA
ATOM     18  N   UNL     1       8.258   8.282  18.257  0.00  0.00    +0.000 N 
ATOM     19  H   UNL     1       8.787   8.171  19.107  0.00  0.00    +0.000 HD
BRANCH  18  20
ATOM     20  C   UNL     1       8.624   9.414  17.436  0.00  0.00    +0.000 C 
BRANCH  20  21
ATOM     21  C   UNL     1       8.842  10.648  18.268  0.00  0.00    +0.000 A 
ATOM     22  C   UNL     1       9.388  10.538  19.547  0.00  0.00    +0.000 A 
ATOM     23  C   UNL     1       9.674  11.680  20.297  0.00  0.00    +0.000 A 
ATOM     24  C   UNL     1       9.425  12.974  19.806  0.00  0.00    +0.000 A 
ATOM     25  C   UNL     1       8.838  13.069  18.533  0.00  0.00    +0.000 A 
ATOM     26  C   UNL     1       8.561  11.926  17.770  0.00  0.00    +0.000 A 
BRANCH  24  27
ATOM     27  C   UNL     1       9.839  14.233  20.591  0.00  0.00    +0.000 C 
ATOM     28  C   UNL     1       8.993  15.467  20.199  0.00  0.00    +0.000 C 
ATOM     29  C   UNL     1       9.649  13.983  22.104  0.00  0.00    +0.000 C 
ATOM     30  C   UNL     1      11.317  14.597  20.346  0.00  0.00    +0.000 C 
ENDBRANCH  24  27
ENDBRANCH  20  21
ENDBRANCH  18  20
ENDBRANCH   2  16
TORSDOF 7
ENDMDL
MODEL 4
REMARK VINA RESULT:      -7.0      1.088      1.688
REMARK  Name = 
REMARK  12 active torsions:
REMARK  status: ('A' for Active; 'I' for Inactive)
REMARK    1  A    between atoms: C_1  and  C_2
REMARK    2  A    between atoms: C_2  and  C_3
REMARK    3  A    between atoms: C_2  and  C_17
REMARK    4  A    between atoms: N_5  and  C_6
REMARK    5  A    between atoms: C_6  and  C_7
REMARK    6  A    between atoms: C_10  and  C_11
REMARK    7  A    between atoms: C_11  and  C_12
REMARK    8  A    between atoms: C_11  and  C_13
REMARK    9  A    between atoms: C_11  and  C_14
REMARK   10  A    between atoms: C_20  and  N_21
REMARK   11  A    between atoms: N_21  and  S_22
REMARK   12  A    between atoms: S_22  and  C_23
REMARK                            x       y       z     vdW  Elec       q    Type
REMARK                         _______ _______ _______ _____ _____    ______ ____
ROOT
ATOM      1  C   UNL     1       0.775  12.651  21.172  0.00  0.00    +0.000 C 
ATOM      2  C   UNL     1       0.115  11.560  20.321  0.00  0.00    +0.000 C 
ENDROOT
BRANCH   2   3
ATOM      3  C   UNL     1      -1.351  11.897  20.067  0.00  0.00    +0.000 A 
ATOM      4  C   UNL     1      -2.007  12.799  20.925  0.00  0.00    +0.000 A 
ATOM      5  C   UNL     1      -3.327  13.169  20.726  0.00  0.00    +0.000 A 
ATOM      6  C   UNL     1      -4.022  12.683  19.633  0.00  0.00    +0.000 A 
ATOM      7  C   UNL     1      -3.416  11.775  18.763  0.00  0.00    +0.000 A 
ATOM      8  C   UNL     1      -2.096  11.371  18.991  0.00  0.00    +0.000 A 
ATOM      9 CL   UNL     1      -1.420  10.216  17.887  0.00  0.00    +0.000 Cl
BRANCH   6  10
ATOM     10  N   UNL     1      -5.351  13.142  19.464  0.00  0.00    +0.000 N 
ATOM     11  H   UNL     1      -5.534  14.144  19.446  0.00  0.00    +0.000 HD
BRANCH  10  12
ATOM     12  S   UNL     1      -6.641  12.201  19.979  0.00  0.00    +0.000 S 
ATOM     13  C   UNL     1      -6.891  11.131  18.580  0.00  0.00    +0.000 C 
ATOM     14  O   UNL     1      -6.240  11.398  21.111  0.00  0.00    +0.000 OA
ATOM     15  O   UNL     1      -7.775  13.088  20.047  0.00  0.00    +0.000 OA
ENDBRANCH  10  12
ENDBRANCH   6  10
ENDBRANCH   2   3
BRANCH   2  16
ATOM     16  C   UNL     1       0.319  10.139  20.869  0.00  0.00    +0.000 C 
ATOM     17  O   UNL     1      -0.160   9.801  21.951  0.00  0.00    +0.000 OA
ATOM     18  N   UNL     1       1.042   9.265  20.097  0.00  0.00    +0.000 N 
ATOM     19  H   UNL     1       1.550   9.587  19.289  0.00  0.00    +0.000 HD
BRANCH  18  20
ATOM     20  C   UNL     1       1.326   7.911  20.515  0.00  0.00    +0.000 C 
BRANCH  20  21
ATOM     21  C   UNL     1       2.269   7.228  19.562  0.00  0.00    +0.000 A 
ATOM     22  C   UNL     1       2.647   7.866  18.380  0.00  0.00    +0.000 A 
ATOM     23  C   UNL     1       3.585   7.282  17.527  0.00  0.00    +0.000 A 
ATOM     24  C   UNL     1       4.181   6.041  17.815  0.00  0.00    +0.000 A 
ATOM     25  C   UNL     1       3.762   5.392  18.989  0.00  0.00    +0.000 A 
ATOM     26  C   UNL     1       2.830   5.980  19.855  0.00  0.00    +0.000 A 
BRANCH  24  27
ATOM     27  C   UNL     1       5.293   5.451  16.929  0.00  0.00    +0.000 C 
ATOM     28  C   UNL     1       6.698   5.656  17.543  0.00  0.00    +0.000 C 
ATOM     29  C   UNL     1       5.063   3.933  16.757  0.00  0.00    +0.000 C 
ATOM     30  C   UNL     1       5.310   6.096  15.528  0.00  0.00    +0.000 C 
ENDBRANCH  24  27
ENDBRANCH  20  21
ENDBRANCH  18  20
ENDBRANCH   2  16
TORSDOF 7
ENDMDL
MODEL 5
REMARK VINA RESULT:      -6.9      3.797      5.663
REMARK  Name = 
REMARK  12 active torsions:
REMARK  status: ('A' for Active; 'I' for Inactive)
REMARK    1  A    between atoms: C_1  and  C_2
REMARK    2  A    between atoms: C_2  and  C_3
REMARK    3  A    between atoms: C_2  and  C_17
REMARK    4  A    between atoms: N_5  and  C_6
REMARK    5  A    between atoms: C_6  and  C_7
REMARK    6  A    between atoms: C_10  and  C_11
REMARK    7  A    between atoms: C_11  and  C_12
REMARK    8  A    between atoms: C_11  and  C_13
REMARK    9  A    between atoms: C_11  and  C_14
REMARK   10  A    between atoms: C_20  and  N_21
REMARK   11  A    between atoms: N_21  and  S_22
REMARK   12  A    between atoms: S_22  and  C_23
REMARK                            x       y       z     vdW  Elec       q    Type
REMARK                         _______ _______ _______ _____ _____    ______ ____
ROOT
ATOM      1  C   UNL     1      -0.929  10.717  18.567  0.00  0.00    +0.000 C 
ATOM      2  C   UNL     1      -0.244  11.434  19.737  0.00  0.00    +0.000 C 
ENDROOT
BRANCH   2   3
ATOM      3  C   UNL     1       0.703  12.512  19.219  0.00  0.00    +0.000 A 
ATOM      4  C   UNL     1       0.468  13.856  19.563  0.00  0.00    +0.000 A 
ATOM      5  C   UNL     1       1.312  14.875  19.150  0.00  0.00    +0.000 A 
ATOM      6  C   UNL     1       2.445  14.575  18.416  0.00  0.00    +0.000 A 
ATOM      7  C   UNL     1       2.711  13.258  18.040  0.00  0.00    +0.000 A 
ATOM      8  C   UNL     1       1.834  12.236  18.423  0.00  0.00    +0.000 A 
ATOM      9 CL   UNL     1       2.212  10.629  17.892  0.00  0.00    +0.000 Cl
BRANCH   6  10
ATOM     10  N   UNL     1       3.289  15.660  18.071  0.00  0.00    +0.000 N 
ATOM     11  H   UNL     1       3.277  16.016  17.117  0.00  0.00    +0.000 HD
BRANCH  10  12
ATOM     12  S   UNL     1       4.729  15.905  18.895  0.00  0.00    +0.000 S 
ATOM     13  C   UNL     1       5.870  14.947  17.925  0.00  0.00    +0.000 C 
ATOM     14  O   UNL     1       5.108  17.297  18.815  0.00  0.00    +0.000 OA
ATOM     15  O   UNL     1       4.578  15.235  20.163  0.00  0.00    +0.000 OA
ENDBRANCH  10  12
ENDBRANCH   6  10
ENDBRANCH   2   3
BRANCH   2  16
ATOM     16  C   UNL     1       0.421  10.480  20.742  0.00  0.00    +0.000 C 
ATOM     17  O   UNL     1       0.843  10.891  21.822  0.00  0.00    +0.000 OA
ATOM     18  N   UNL     1       0.507   9.157  20.390  0.00  0.00    +0.000 N 
ATOM     19  H   UNL     1       0.294   8.856  19.453  0.00  0.00    +0.000 HD
BRANCH  18  20
ATOM     20  C   UNL     1       1.134   8.167  21.237  0.00  0.00    +0.000 C 
BRANCH  20  21
ATOM     21  C   UNL     1       1.811   7.098  20.424  0.00  0.00    +0.000 A 
ATOM     22  C   UNL     1       1.797   5.774  20.863  0.00  0.00    +0.000 A 
ATOM     23  C   UNL     1       2.348   4.760  20.078  0.00  0.00    +0.000 A 
ATOM     24  C   UNL     1       2.935   5.023  18.828  0.00  0.00    +0.000 A 
ATOM     25  C   UNL     1       2.978   6.366  18.415  0.00  0.00    +0.000 A 
ATOM     26  C   UNL     1       2.415   7.387  19.194  0.00  0.00    +0.000 A 
BRANCH  24  27
ATOM     27  C   UNL     1       3.445   3.891  17.917  0.00  0.00    +0.000 C 
ATOM     28  C   UNL     1       2.297   3.215  17.131  0.00  0.00    +0.000 C 
ATOM     29  C   UNL     1       4.452   4.465  16.895  0.00  0.00    +0.000 C 
ATOM     30  C   UNL     1       4.157   2.786  18.724  0.00  0.00    +0.000 C 
ENDBRANCH  24  27
ENDBRANCH  20  21
ENDBRANCH  18  20
ENDBRANCH   2  16
TORSDOF 7
ENDMDL
MODEL 6
REMARK VINA RESULT:      -6.9      3.899      5.955
REMARK  Name = 
REMARK  12 active torsions:
REMARK  status: ('A' for Active; 'I' for Inactive)
REMARK    1  A    between atoms: C_1  and  C_2
REMARK    2  A    between atoms: C_2  and  C_3
REMARK    3  A    between atoms: C_2  and  C_17
REMARK    4  A    between atoms: N_5  and  C_6
REMARK    5  A    between atoms: C_6  and  C_7
REMARK    6  A    between atoms: C_10  and  C_11
REMARK    7  A    between atoms: C_11  and  C_12
REMARK    8  A    between atoms: C_11  and  C_13
REMARK    9  A    between atoms: C_11  and  C_14
REMARK   10  A    between atoms: C_20  and  N_21
REMARK   11  A    between atoms: N_21  and  S_22
REMARK   12  A    between atoms: S_22  and  C_23
REMARK                            x       y       z     vdW  Elec       q    Type
REMARK                         _______ _______ _______ _____ _____    ______ ____
ROOT
ATOM      1  C   UNL     1      -1.211  11.329  18.700  0.00  0.00    +0.000 C 
ATOM      2  C   UNL     1      -0.382  11.879  19.867  0.00  0.00    +0.000 C 
ENDROOT
BRANCH   2   3
ATOM      3  C   UNL     1       0.751  12.758  19.347  0.00  0.00    +0.000 A 
ATOM      4  C   UNL     1       1.837  12.157  18.682  0.00  0.00    +0.000 A 
ATOM      5  C   UNL     1       2.879  12.906  18.159  0.00  0.00    +0.000 A 
ATOM      6  C   UNL     1       2.847  14.285  18.245  0.00  0.00    +0.000 A 
ATOM      7  C   UNL     1       1.797  14.924  18.908  0.00  0.00    +0.000 A 
ATOM      8  C   UNL     1       0.767  14.163  19.471  0.00  0.00    +0.000 A 
ATOM      9 CL   UNL     1      -0.486  15.022  20.307  0.00  0.00    +0.000 Cl
BRANCH   6  10
ATOM     10  N   UNL     1       3.920  14.989  17.645  0.00  0.00    +0.000 N 
ATOM     11  H   UNL     1       4.010  14.991  16.631  0.00  0.00    +0.000 HD
BRANCH  10  12
ATOM     12  S   UNL     1       5.361  15.201  18.478  0.00  0.00    +0.000 S 
ATOM     13  C   UNL     1       5.439  16.972  18.623  0.00  0.00    +0.000 C 
ATOM     14  O   UNL     1       5.249  14.633  19.802  0.00  0.00    +0.000 OA
ATOM     15  O   UNL     1       6.406  14.799  17.570  0.00  0.00    +0.000 OA
ENDBRANCH  10  12
ENDBRANCH   6  10
ENDBRANCH   2   3
BRANCH   2  16
ATOM     16  C   UNL     1       0.096  10.799  20.850  0.00  0.00    +0.000 C 
ATOM     17  O   UNL     1       0.383  11.080  22.012  0.00  0.00    +0.000 OA
ATOM     18  N   UNL     1       0.174   9.512  20.379  0.00  0.00    +0.000 N 
ATOM     19  H   UNL     1       0.079   9.313  19.397  0.00  0.00    +0.000 HD
BRANCH  18  20
ATOM     20  C   UNL     1       0.634   8.412  21.197  0.00  0.00    +0.000 C 
BRANCH  20  21
ATOM     21  C   UNL     1       1.509   7.473  20.413  0.00  0.00    +0.000 A 
ATOM     22  C   UNL     1       1.629   6.140  20.806  0.00  0.00    +0.000 A 
ATOM     23  C   UNL     1       2.369   5.238  20.040  0.00  0.00    +0.000 A 
ATOM     24  C   UNL     1       3.019   5.626  18.855  0.00  0.00    +0.000 A 
ATOM     25  C   UNL     1       2.923   6.980  18.492  0.00  0.00    +0.000 A 
ATOM     26  C   UNL     1       2.170   7.888  19.250  0.00  0.00    +0.000 A 
BRANCH  24  27
ATOM     27  C   UNL     1       3.745   4.607  17.957  0.00  0.00    +0.000 C 
ATOM     28  C   UNL     1       4.790   3.780  18.742  0.00  0.00    +0.000 C 
ATOM     29  C   UNL     1       2.714   3.627  17.354  0.00  0.00    +0.000 C 
ATOM     30  C   UNL     1       4.488   5.298  16.796  0.00  0.00    +0.000 C 
ENDBRANCH  24  27
ENDBRANCH  20  21
ENDBRANCH  18  20
ENDBRANCH   2  16
TORSDOF 7
ENDMDL
MODEL 7
REMARK VINA RESULT:      -6.9      4.185      9.933
REMARK  Name = 
REMARK  12 active torsions:
REMARK  status: ('A' for Active; 'I' for Inactive)
REMARK    1  A    between atoms: C_1  and  C_2
REMARK    2  A    between atoms: C_2  and  C_3
REMARK    3  A    between atoms: C_2  and  C_17
REMARK    4  A    between atoms: N_5  and  C_6
REMARK    5  A    between atoms: C_6  and  C_7
REMARK    6  A    between atoms: C_10  and  C_11
REMARK    7  A    between atoms: C_11  and  C_12
REMARK    8  A    between atoms: C_11  and  C_13
REMARK    9  A    between atoms: C_11  and  C_14
REMARK   10  A    between atoms: C_20  and  N_21
REMARK   11  A    between atoms: N_21  and  S_22
REMARK   12  A    between atoms: S_22  and  C_23
REMARK                            x       y       z     vdW  Elec       q    Type
REMARK                         _______ _______ _______ _____ _____    ______ ____
ROOT
ATOM      1  C   UNL     1       1.534   8.863  21.760  0.00  0.00    +0.000 C 
ATOM      2  C   UNL     1       0.933   8.698  20.359  0.00  0.00    +0.000 C 
ENDROOT
BRANCH   2   3
ATOM      3  C   UNL     1       1.880   7.905  19.464  0.00  0.00    +0.000 A 
ATOM      4  C   UNL     1       2.498   8.550  18.376  0.00  0.00    +0.000 A 
ATOM      5  C   UNL     1       3.393   7.891  17.548  0.00  0.00    +0.000 A 
ATOM      6  C   UNL     1       3.732   6.576  17.808  0.00  0.00    +0.000 A 
ATOM      7  C   UNL     1       3.133   5.892  18.867  0.00  0.00    +0.000 A 
ATOM      8  C   UNL     1       2.198   6.548  19.676  0.00  0.00    +0.000 A 
ATOM      9 CL   UNL     1       1.471   5.625  20.952  0.00  0.00    +0.000 Cl
BRANCH   6  10
ATOM     10  N   UNL     1       4.689   5.981  16.950  0.00  0.00    +0.000 N 
ATOM     11  H   UNL     1       4.429   5.161  16.404  0.00  0.00    +0.000 HD
BRANCH  10  12
ATOM     12  S   UNL     1       6.326   6.101  17.300  0.00  0.00    +0.000 S 
ATOM     13  C   UNL     1       6.989   4.709  16.414  0.00  0.00    +0.000 C 
ATOM     14  O   UNL     1       6.861   7.313  16.725  0.00  0.00    +0.000 OA
ATOM     15  O   UNL     1       6.452   5.813  18.706  0.00  0.00    +0.000 OA
ENDBRANCH  10  12
ENDBRANCH   6  10
ENDBRANCH   2   3
BRANCH   2  16
ATOM     16  C   UNL     1       0.470  10.019  19.726  0.00  0.00    +0.000 C 
ATOM     17  O   UNL     1       0.974  11.092  20.056  0.00  0.00    +0.000 OA
ATOM     18  N   UNL     1      -0.514   9.948  18.771  0.00  0.00    +0.000 N 
ATOM     19  H   UNL     1      -1.019   9.091  18.612  0.00  0.00    +0.000 HD
BRANCH  18  20
ATOM     20  C   UNL     1      -1.053  11.121  18.122  0.00  0.00    +0.000 C 
BRANCH  20  21
ATOM     21  C   UNL     1      -2.491  11.345  18.499  0.00  0.00    +0.000 A 
ATOM     22  C   UNL     1      -2.813  12.240  19.520  0.00  0.00    +0.000 A 
ATOM     23  C   UNL     1      -4.146  12.521  19.823  0.00  0.00    +0.000 A 
ATOM     24  C   UNL     1      -5.210  11.922  19.126  0.00  0.00    +0.000 A 
ATOM     25  C   UNL     1      -4.873  10.993  18.127  0.00  0.00    +0.000 A 
ATOM     26  C   UNL     1      -3.535  10.717  17.809  0.00  0.00    +0.000 A 
BRANCH  24  27
ATOM     27  C   UNL     1      -6.676  12.313  19.391  0.00  0.00    +0.000 C 
ATOM     28  C   UNL     1      -6.790  13.558  20.302  0.00  0.00    +0.000 C 
ATOM     29  C   UNL     1      -7.373  12.636  18.050  0.00  0.00    +0.000 C 
ATOM     30  C   UNL     1      -7.456  11.173  20.076  0.00  0.00    +0.000 C 
ENDBRANCH  24  27
ENDBRANCH  20  21
ENDBRANCH  18  20
ENDBRANCH   2  16
TORSDOF 7
ENDMDL
MODEL 8
REMARK VINA RESULT:      -6.9      4.571     10.032
REMARK  Name = 
REMARK  12 active torsions:
REMARK  status: ('A' for Active; 'I' for Inactive)
REMARK    1  A    between atoms: C_1  and  C_2
REMARK    2  A    between atoms: C_2  and  C_3
REMARK    3  A    between atoms: C_2  and  C_17
REMARK    4  A    between atoms: N_5  and  C_6
REMARK    5  A    between atoms: C_6  and  C_7
REMARK    6  A    between atoms: C_10  and  C_11
REMARK    7  A    between atoms: C_11  and  C_12
REMARK    8  A    between atoms: C_11  and  C_13
REMARK    9  A    between atoms: C_11  and  C_14
REMARK   10  A    between atoms: C_20  and  N_21
REMARK   11  A    between atoms: N_21  and  S_22
REMARK   12  A    between atoms: S_22  and  C_23
REMARK                            x       y       z     vdW  Elec       q    Type
REMARK                         _______ _______ _______ _____ _____    ______ ____
ROOT
ATOM      1  C   UNL     1       1.597   8.687  21.205  0.00  0.00    +0.000 C 
ATOM      2  C   UNL     1       1.173   8.286  19.786  0.00  0.00    +0.000 C 
ENDROOT
BRANCH   2   3
ATOM      3  C   UNL     1       2.260   7.447  19.123  0.00  0.00    +0.000 A 
ATOM      4  C   UNL     1       3.017   8.005  18.076  0.00  0.00    +0.000 A 
ATOM      5  C   UNL     1       4.039   7.304  17.458  0.00  0.00    +0.000 A 
ATOM      6  C   UNL     1       4.368   6.035  17.898  0.00  0.00    +0.000 A 
ATOM      7  C   UNL     1       3.636   5.435  18.924  0.00  0.00    +0.000 A 
ATOM      8  C   UNL     1       2.577   6.130  19.518  0.00  0.00    +0.000 A 
ATOM      9 CL   UNL     1       1.692   5.310  20.764  0.00  0.00    +0.000 Cl
BRANCH   6  10
ATOM     10  N   UNL     1       5.456   5.396  17.253  0.00  0.00    +0.000 N 
ATOM     11  H   UNL     1       5.274   4.620  16.619  0.00  0.00    +0.000 HD
BRANCH  10  12
ATOM     12  S   UNL     1       6.970   5.373  17.976  0.00  0.00    +0.000 S 
ATOM     13  C   UNL     1       7.531   7.037  17.697  0.00  0.00    +0.000 C 
ATOM     14  O   UNL     1       6.830   5.163  19.398  0.00  0.00    +0.000 OA
ATOM     15  O   UNL     1       7.783   4.505  17.162  0.00  0.00    +0.000 OA
ENDBRANCH  10  12
ENDBRANCH   6  10
ENDBRANCH   2   3
BRANCH   2  16
ATOM     16  C   UNL     1       0.713   9.469  18.921  0.00  0.00    +0.000 C 
ATOM     17  O   UNL     1       0.662   9.377  17.695  0.00  0.00    +0.000 OA
ATOM     18  N   UNL     1       0.352  10.621  19.572  0.00  0.00    +0.000 N 
ATOM     19  H   UNL     1       0.533  10.739  20.556  0.00  0.00    +0.000 HD
BRANCH  18  20
ATOM     20  C   UNL     1      -0.072  11.811  18.869  0.00  0.00    +0.000 C 
BRANCH  20  21
ATOM     21  C   UNL     1      -1.572  11.925  18.836  0.00  0.00    +0.000 A 
ATOM     22  C   UNL     1      -2.285  11.425  17.746  0.00  0.00    +0.000 A 
ATOM     23  C   UNL     1      -3.680  11.447  17.740  0.00  0.00    +0.000 A 
ATOM     24  C   UNL     1      -4.421  11.968  18.816  0.00  0.00    +0.000 A 
ATOM     25  C   UNL     1      -3.690  12.504  19.891  0.00  0.00    +0.000 A 
ATOM     26  C   UNL     1      -2.288  12.472  19.907  0.00  0.00    +0.000 A 
BRANCH  24  27
ATOM     27  C   UNL     1      -5.958  11.894  18.854  0.00  0.00    +0.000 C 
ATOM     28  C   UNL     1      -6.536  12.467  20.170  0.00  0.00    +0.000 C 
ATOM     29  C   UNL     1      -6.543  12.710  17.680  0.00  0.00    +0.000 C 
ATOM     30  C   UNL     1      -6.462  10.442  18.729  0.00  0.00    +0.000 C 
ENDBRANCH  24  27
ENDBRANCH  20  21
ENDBRANCH  18  20
ENDBRANCH   2  16
TORSDOF 7
ENDMDL
MODEL 9
REMARK VINA RESULT:      -6.8      3.682      5.652
REMARK  Name = 
REMARK  12 active torsions:
REMARK  status: ('A' for Active; 'I' for Inactive)
REMARK    1  A    between atoms: C_1  and  C_2
REMARK    2  A    between atoms: C_2  and  C_3
REMARK    3  A    between atoms: C_2  and  C_17
REMARK    4  A    between atoms: N_5  and  C_6
REMARK    5  A    between atoms: C_6  and  C_7
REMARK    6  A    between atoms: C_10  and  C_11
REMARK    7  A    between atoms: C_11  and  C_12
REMARK    8  A    between atoms: C_11  and  C_13
REMARK    9  A    between atoms: C_11  and  C_14
REMARK   10  A    between atoms: C_20  and  N_21
REMARK   11  A    between atoms: N_21  and  S_22
REMARK   12  A    between atoms: S_22  and  C_23
REMARK                            x       y       z     vdW  Elec       q    Type
REMARK                         _______ _______ _______ _____ _____    ______ ____
ROOT
ATOM      1  C   UNL     1      -1.100  10.644  18.175  0.00  0.00    +0.000 C 
ATOM      2  C   UNL     1      -0.607  11.337  19.451  0.00  0.00    +0.000 C 
ENDROOT
BRANCH   2   3
ATOM      3  C   UNL     1       0.386  12.443  19.107  0.00  0.00    +0.000 A 
ATOM      4  C   UNL     1       1.607  12.103  18.496  0.00  0.00    +0.000 A 
ATOM      5  C   UNL     1       2.534  13.066  18.130  0.00  0.00    +0.000 A 
ATOM      6  C   UNL     1       2.249  14.406  18.324  0.00  0.00    +0.000 A 
ATOM      7  C   UNL     1       1.057  14.788  18.940  0.00  0.00    +0.000 A 
ATOM      8  C   UNL     1       0.141  13.811  19.346  0.00  0.00    +0.000 A 
ATOM      9 CL   UNL     1      -1.304  14.359  20.133  0.00  0.00    +0.000 Cl
BRANCH   6  10
ATOM     10  N   UNL     1       3.221  15.337  17.881  0.00  0.00    +0.000 N 
ATOM     11  H   UNL     1       3.393  15.441  16.883  0.00  0.00    +0.000 HD
BRANCH  10  12
ATOM     12  S   UNL     1       4.523  15.730  18.863  0.00  0.00    +0.000 S 
ATOM     13  C   UNL     1       5.847  14.832  18.088  0.00  0.00    +0.000 C 
ATOM     14  O   UNL     1       4.801  17.144  18.763  0.00  0.00    +0.000 OA
ATOM     15  O   UNL     1       4.264  15.100  20.134  0.00  0.00    +0.000 OA
ENDBRANCH  10  12
ENDBRANCH   6  10
ENDBRANCH   2   3
BRANCH   2  16
ATOM     16  C   UNL     1      -0.079  10.365  20.518  0.00  0.00    +0.000 C 
ATOM     17  O   UNL     1      -0.363  10.511  21.706  0.00  0.00    +0.000 OA
ATOM     18  N   UNL     1       0.705   9.324  20.087  0.00  0.00    +0.000 N 
ATOM     19  H   UNL     1       1.050   9.293  19.142  0.00  0.00    +0.000 HD
BRANCH  18  20
ATOM     20  C   UNL     1       1.282   8.359  20.996  0.00  0.00    +0.000 C 
BRANCH  20  21
ATOM     21  C   UNL     1       1.919   7.218  20.251  0.00  0.00    +0.000 A 
ATOM     22  C   UNL     1       1.834   5.921  20.758  0.00  0.00    +0.000 A 
ATOM     23  C   UNL     1       2.346   4.842  20.037  0.00  0.00    +0.000 A 
ATOM     24  C   UNL     1       2.965   5.010  18.785  0.00  0.00    +0.000 A 
ATOM     25  C   UNL     1       3.079   6.325  18.304  0.00  0.00    +0.000 A 
ATOM     26  C   UNL     1       2.554   7.411  19.019  0.00  0.00    +0.000 A 
BRANCH  24  27
ATOM     27  C   UNL     1       3.433   3.808  17.944  0.00  0.00    +0.000 C 
ATOM     28  C   UNL     1       2.272   3.168  17.147  0.00  0.00    +0.000 C 
ATOM     29  C   UNL     1       4.506   4.273  16.934  0.00  0.00    +0.000 C 
ATOM     30  C   UNL     1       4.048   2.701  18.823  0.00  0.00    +0.000 C 
ENDBRANCH  24  27
ENDBRANCH  20  21
ENDBRANCH  18  20
ENDBRANCH   2  16
TORSDOF 7
ENDMDL
