MODEL 1
REMARK VINA RESULT:      -7.4      0.000      0.000
REMARK  Name = 
REMARK  3 active torsions:
REMARK  status: ('A' for Active; 'I' for Inactive)
REMARK    1  A    between atoms: C_4  and  N_5
REMARK    2  A    between atoms: N_5  and  C_6
REMARK    3  A    between atoms: C_6  and  C_7
REMARK                            x       y       z     vdW  Elec       q    Type
REMARK                         _______ _______ _______ _____ _____    ______ ____
ROOT
ATOM      1  N   UNL     1       7.446   5.306  14.587  0.00  0.00    +0.000 N 
ATOM      2  C   UNL     1       6.995   4.893  15.811  0.00  0.00    +0.000 A 
ATOM      3  C   UNL     1       5.744   4.111  15.894  0.00  0.00    +0.000 A 
ATOM      4  C   UNL     1       5.347   3.706  17.106  0.00  0.00    +0.000 A 
ATOM      5  N   UNL     1       6.120   4.068  18.164  0.00  0.00    +0.000 N 
ATOM      6  C   UNL     1       7.277   4.802  18.081  0.00  0.00    +0.000 A 
ATOM      7  O   UNL     1       7.888   5.061  19.118  0.00  0.00    +0.000 OA
ATOM      8  N   UNL     1       7.700   5.218  16.848  0.00  0.00    +0.000 NA
ATOM      9  H   UNL     1       6.753   5.487  13.872  0.00  0.00    +0.000 HD
ATOM     10  H   UNL     1       8.162   6.023  14.656  0.00  0.00    +0.000 HD
ATOM     11  H   UNL     1       5.882   3.771  19.097  0.00  0.00    +0.000 HD
ENDROOT
BRANCH   4  12
ATOM     12  N   UNL     1       4.216   2.958  17.338  0.00  0.00    +0.000 N 
ATOM     13  H   UNL     1       4.366   2.099  17.855  0.00  0.00    +0.000 HD
BRANCH  12  14
ATOM     14  C   UNL     1       2.832   3.393  17.276  0.00  0.00    +0.000 C 
BRANCH  14  15
ATOM     15  C   UNL     1       2.395   4.239  18.452  0.00  0.00    +0.000 A 
ATOM     16  C   UNL     1       2.674   5.608  18.576  0.00  0.00    +0.000 A 
ATOM     17  C   UNL     1       2.273   6.320  19.709  0.00  0.00    +0.000 A 
ATOM     18  C   UNL     1       1.583   5.677  20.734  0.00  0.00    +0.000 A 
ATOM     19  C   UNL     1       1.284   4.323  20.623  0.00  0.00    +0.000 A 
ATOM     20  C   UNL     1       1.684   3.610  19.490  0.00  0.00    +0.000 A 
ENDBRANCH  14  15
ENDBRANCH  12  14
ENDBRANCH   4  12
TORSDOF 3
ENDMDL
MODEL 2
REMARK VINA RESULT:      -7.4      1.161      1.693
REMARK  Name = 
REMARK  3 active torsions:
REMARK  status: ('A' for Active; 'I' for Inactive)
REMARK    1  A    between atoms: C_4  and  N_5
REMARK    2  A    between atoms: N_5  and  C_6
REMARK    3  A    between atoms: C_6  and  C_7
REMARK                            x       y       z     vdW  Elec       q    Type
REMARK                         _______ _______ _______ _____ _____    ______ ____
ROOT
ATOM      1  N   UNL     1       7.304   5.184  13.818  0.00  0.00    +0.000 N 
ATOM      2  C   UNL     1       6.881   4.905  15.089  0.00  0.00    +0.000 A 
ATOM      3  C   UNL     1       5.438   4.717  15.346  0.00  0.00    +0.000 A 
ATOM      4  C   UNL     1       5.064   4.422  16.596  0.00  0.00    +0.000 A 
ATOM      5  N   UNL     1       6.047   4.342  17.532  0.00  0.00    +0.000 N 
ATOM      6  C   UNL     1       7.386   4.526  17.290  0.00  0.00    +0.000 A 
ATOM      7  O   UNL     1       8.176   4.422  18.227  0.00  0.00    +0.000 OA
ATOM      8  N   UNL     1       7.784   4.821  16.014  0.00  0.00    +0.000 NA
ATOM      9  H   UNL     1       6.669   5.696  13.218  0.00  0.00    +0.000 HD
ATOM     10  H   UNL     1       8.260   5.527  13.791  0.00  0.00    +0.000 HD
ATOM     11  H   UNL     1       5.827   4.100  18.485  0.00  0.00    +0.000 HD
ENDROOT
BRANCH   4  12
ATOM     12  N   UNL     1       3.763   4.203  16.982  0.00  0.00    +0.000 N 
ATOM     13  H   UNL     1       3.433   3.251  16.868  0.00  0.00    +0.000 HD
BRANCH  12  14
ATOM     14  C   UNL     1       2.940   5.027  17.850  0.00  0.00    +0.000 C 
BRANCH  14  15
ATOM     15  C   UNL     1       2.328   4.282  19.016  0.00  0.00    +0.000 A 
ATOM     16  C   UNL     1       1.273   3.366  18.890  0.00  0.00    +0.000 A 
ATOM     17  C   UNL     1       0.730   2.742  20.015  0.00  0.00    +0.000 A 
ATOM     18  C   UNL     1       1.234   3.019  21.284  0.00  0.00    +0.000 A 
ATOM     19  C   UNL     1       2.291   3.913  21.427  0.00  0.00    +0.000 A 
ATOM     20  C   UNL     1       2.835   4.537  20.303  0.00  0.00    +0.000 A 
ENDBRANCH  14  15
ENDBRANCH  12  14
ENDBRANCH   4  12
TORSDOF 3
ENDMDL
MODEL 3
REMARK VINA RESULT:      -7.4      2.145      3.016
REMARK  Name = 
REMARK  3 active torsions:
REMARK  status: ('A' for Active; 'I' for Inactive)
REMARK    1  A    between atoms: C_4  and  N_5
REMARK    2  A    between atoms: N_5  and  C_6
REMARK    3  A    between atoms: C_6  and  C_7
REMARK                            x       y       z     vdW  Elec       q    Type
REMARK                         _______ _______ _______ _____ _____    ______ ____
ROOT
ATOM      1  N   UNL     1       8.286   5.286  20.405  0.00  0.00    +0.000 N 
ATOM      2  C   UNL     1       7.610   5.837  19.350  0.00  0.00    +0.000 A 
ATOM      3  C   UNL     1       6.281   5.304  18.986  0.00  0.00    +0.000 A 
ATOM      4  C   UNL     1       5.640   5.884  17.964  0.00  0.00    +0.000 A 
ATOM      5  N   UNL     1       6.280   6.903  17.332  0.00  0.00    +0.000 N 
ATOM      6  C   UNL     1       7.519   7.389  17.669  0.00  0.00    +0.000 A 
ATOM      7  O   UNL     1       7.987   8.321  17.017  0.00  0.00    +0.000 OA
ATOM      8  N   UNL     1       8.184   6.811  18.717  0.00  0.00    +0.000 NA
ATOM      9  H   UNL     1       8.124   4.306  20.601  0.00  0.00    +0.000 HD
ATOM     10  H   UNL     1       9.266   5.551  20.422  0.00  0.00    +0.000 HD
ATOM     11  H   UNL     1       5.835   7.392  16.571  0.00  0.00    +0.000 HD
ENDROOT
BRANCH   4  12
ATOM     12  N   UNL     1       4.393   5.509  17.522  0.00  0.00    +0.000 N 
ATOM     13  H   UNL     1       4.363   4.637  17.005  0.00  0.00    +0.000 HD
BRANCH  12  14
ATOM     14  C   UNL     1       3.102   5.976  17.996  0.00  0.00    +0.000 C 
BRANCH  14  15
ATOM     15  C   UNL     1       2.285   4.921  18.708  0.00  0.00    +0.000 A 
ATOM     16  C   UNL     1       1.929   4.992  20.064  0.00  0.00    +0.000 A 
ATOM     17  C   UNL     1       1.204   3.961  20.668  0.00  0.00    +0.000 A 
ATOM     18  C   UNL     1       0.820   2.846  19.927  0.00  0.00    +0.000 A 
ATOM     19  C   UNL     1       1.151   2.765  18.578  0.00  0.00    +0.000 A 
ATOM     20  C   UNL     1       1.874   3.795  17.973  0.00  0.00    +0.000 A 
ENDBRANCH  14  15
ENDBRANCH  12  14
ENDBRANCH   4  12
TORSDOF 3
ENDMDL
MODEL 4
REMARK VINA RESULT:      -7.3      1.524      2.237
REMARK  Name = 
REMARK  3 active torsions:
REMARK  status: ('A' for Active; 'I' for Inactive)
REMARK    1  A    between atoms: C_4  and  N_5
REMARK    2  A    between atoms: N_5  and  C_6
REMARK    3  A    between atoms: C_6  and  C_7
REMARK                            x       y       z     vdW  Elec       q    Type
REMARK                         _______ _______ _______ _____ _____    ______ ____
ROOT
ATOM      1  N   UNL     1       7.604   5.242  15.307  0.00  0.00    +0.000 N 
ATOM      2  C   UNL     1       6.940   5.476  16.481  0.00  0.00    +0.000 A 
ATOM      3  C   UNL     1       5.543   5.954  16.437  0.00  0.00    +0.000 A 
ATOM      4  C   UNL     1       4.918   6.150  17.604  0.00  0.00    +0.000 A 
ATOM      5  N   UNL     1       5.634   5.912  18.735  0.00  0.00    +0.000 N 
ATOM      6  C   UNL     1       6.935   5.476  18.770  0.00  0.00    +0.000 A 
ATOM      7  O   UNL     1       7.470   5.296  19.864  0.00  0.00    +0.000 OA
ATOM      8  N   UNL     1       7.585   5.265  17.584  0.00  0.00    +0.000 NA
ATOM      9  H   UNL     1       7.344   5.802  14.505  0.00  0.00    +0.000 HD
ATOM     10  H   UNL     1       8.608   5.153  15.438  0.00  0.00    +0.000 HD
ATOM     11  H   UNL     1       5.207   6.020  19.642  0.00  0.00    +0.000 HD
ENDROOT
BRANCH   4  12
ATOM     12  N   UNL     1       3.615   6.575  17.721  0.00  0.00    +0.000 N 
ATOM     13  H   UNL     1       3.101   6.634  16.849  0.00  0.00    +0.000 HD
BRANCH  12  14
ATOM     14  C   UNL     1       2.787   6.590  18.914  0.00  0.00    +0.000 C 
BRANCH  14  15
ATOM     15  C   UNL     1       2.101   5.275  19.209  0.00  0.00    +0.000 A 
ATOM     16  C   UNL     1       1.739   4.855  20.498  0.00  0.00    +0.000 A 
ATOM     17  C   UNL     1       1.142   3.608  20.703  0.00  0.00    +0.000 A 
ATOM     18  C   UNL     1       0.894   2.763  19.624  0.00  0.00    +0.000 A 
ATOM     19  C   UNL     1       1.232   3.168  18.337  0.00  0.00    +0.000 A 
ATOM     20  C   UNL     1       1.828   4.415  18.130  0.00  0.00    +0.000 A 
ENDBRANCH  14  15
ENDBRANCH  12  14
ENDBRANCH   4  12
TORSDOF 3
ENDMDL
MODEL 5
REMARK VINA RESULT:      -7.3      1.802      2.844
REMARK  Name = 
REMARK  3 active torsions:
REMARK  status: ('A' for Active; 'I' for Inactive)
REMARK    1  A    between atoms: C_4  and  N_5
REMARK    2  A    between atoms: N_5  and  C_6
REMARK    3  A    between atoms: C_6  and  C_7
REMARK                            x       y       z     vdW  Elec       q    Type
REMARK                         _______ _______ _______ _____ _____    ______ ____
ROOT
ATOM      1  N   UNL     1       7.945   5.439  19.986  0.00  0.00    +0.000 N 
ATOM      2  C   UNL     1       7.243   5.400  18.812  0.00  0.00    +0.000 A 
ATOM      3  C   UNL     1       5.830   5.833  18.800  0.00  0.00    +0.000 A 
ATOM      4  C   UNL     1       5.183   5.803  17.629  0.00  0.00    +0.000 A 
ATOM      5  N   UNL     1       5.878   5.354  16.550  0.00  0.00    +0.000 N 
ATOM      6  C   UNL     1       7.188   4.945  16.569  0.00  0.00    +0.000 A 
ATOM      7  O   UNL     1       7.703   4.562  15.519  0.00  0.00    +0.000 OA
ATOM      8  N   UNL     1       7.866   4.976  17.757  0.00  0.00    +0.000 NA
ATOM      9  H   UNL     1       7.425   5.305  20.844  0.00  0.00    +0.000 HD
ATOM     10  H   UNL     1       8.809   4.907  19.941  0.00  0.00    +0.000 HD
ATOM     11  H   UNL     1       5.449   5.332  15.639  0.00  0.00    +0.000 HD
ENDROOT
BRANCH   4  12
ATOM     12  N   UNL     1       3.875   6.192  17.459  0.00  0.00    +0.000 N 
ATOM     13  H   UNL     1       3.491   6.022  16.536  0.00  0.00    +0.000 HD
BRANCH  12  14
ATOM     14  C   UNL     1       2.884   6.457  18.487  0.00  0.00    +0.000 C 
BRANCH  14  15
ATOM     15  C   UNL     1       2.157   5.224  18.980  0.00  0.00    +0.000 A 
ATOM     16  C   UNL     1       1.857   4.983  20.330  0.00  0.00    +0.000 A 
ATOM     17  C   UNL     1       1.217   3.803  20.720  0.00  0.00    +0.000 A 
ATOM     18  C   UNL     1       0.865   2.849  19.768  0.00  0.00    +0.000 A 
ATOM     19  C   UNL     1       1.141   3.077  18.424  0.00  0.00    +0.000 A 
ATOM     20  C   UNL     1       1.779   4.256  18.033  0.00  0.00    +0.000 A 
ENDBRANCH  14  15
ENDBRANCH  12  14
ENDBRANCH   4  12
TORSDOF 3
ENDMDL
MODEL 6
REMARK VINA RESULT:      -7.2      1.959      2.519
REMARK  Name = 
REMARK  3 active torsions:
REMARK  status: ('A' for Active; 'I' for Inactive)
REMARK    1  A    between atoms: C_4  and  N_5
REMARK    2  A    between atoms: N_5  and  C_6
REMARK    3  A    between atoms: C_6  and  C_7
REMARK                            x       y       z     vdW  Elec       q    Type
REMARK                         _______ _______ _______ _____ _____    ______ ____
ROOT
ATOM      1  N   UNL     1       7.779   5.173  19.280  0.00  0.00    +0.000 N 
ATOM      2  C   UNL     1       7.089   4.939  18.121  0.00  0.00    +0.000 A 
ATOM      3  C   UNL     1       5.716   4.399  18.195  0.00  0.00    +0.000 A 
ATOM      4  C   UNL     1       5.064   4.205  17.042  0.00  0.00    +0.000 A 
ATOM      5  N   UNL     1       5.732   4.502  15.896  0.00  0.00    +0.000 N 
ATOM      6  C   UNL     1       7.012   4.996  15.834  0.00  0.00    +0.000 A 
ATOM      7  O   UNL     1       7.503   5.227  14.730  0.00  0.00    +0.000 OA
ATOM      8  N   UNL     1       7.689   5.206  17.004  0.00  0.00    +0.000 NA
ATOM      9  H   UNL     1       7.569   4.582  20.074  0.00  0.00    +0.000 HD
ATOM     10  H   UNL     1       8.773   5.310  19.121  0.00  0.00    +0.000 HD
ATOM     11  H   UNL     1       5.283   4.398  15.001  0.00  0.00    +0.000 HD
ENDROOT
BRANCH   4  12
ATOM     12  N   UNL     1       3.778   3.726  16.954  0.00  0.00    +0.000 N 
ATOM     13  H   UNL     1       3.233   4.094  16.182  0.00  0.00    +0.000 HD
BRANCH  12  14
ATOM     14  C   UNL     1       3.229   2.528  17.564  0.00  0.00    +0.000 C 
BRANCH  14  15
ATOM     15  C   UNL     1       2.549   2.766  18.894  0.00  0.00    +0.000 A 
ATOM     16  C   UNL     1       1.263   3.310  19.027  0.00  0.00    +0.000 A 
ATOM     17  C   UNL     1       0.710   3.539  20.290  0.00  0.00    +0.000 A 
ATOM     18  C   UNL     1       1.433   3.224  21.439  0.00  0.00    +0.000 A 
ATOM     19  C   UNL     1       2.704   2.670  21.327  0.00  0.00    +0.000 A 
ATOM     20  C   UNL     1       3.256   2.440  20.065  0.00  0.00    +0.000 A 
ENDBRANCH  14  15
ENDBRANCH  12  14
ENDBRANCH   4  12
TORSDOF 3
ENDMDL
MODEL 7
REMARK VINA RESULT:      -7.2      1.988      2.649
REMARK  Name = 
REMARK  3 active torsions:
REMARK  status: ('A' for Active; 'I' for Inactive)
REMARK    1  A    between atoms: C_4  and  N_5
REMARK    2  A    between atoms: N_5  and  C_6
REMARK    3  A    between atoms: C_6  and  C_7
REMARK                            x       y       z     vdW  Elec       q    Type
REMARK                         _______ _______ _______ _____ _____    ______ ____
ROOT
ATOM      1  N   UNL     1       7.726   7.846  17.254  0.00  0.00    +0.000 N 
ATOM      2  C   UNL     1       7.278   6.569  17.055  0.00  0.00    +0.000 A 
ATOM      3  C   UNL     1       6.718   5.814  18.195  0.00  0.00    +0.000 A 
ATOM      4  C   UNL     1       6.268   4.576  17.957  0.00  0.00    +0.000 A 
ATOM      5  N   UNL     1       6.387   4.109  16.686  0.00  0.00    +0.000 N 
ATOM      6  C   UNL     1       6.917   4.812  15.632  0.00  0.00    +0.000 A 
ATOM      7  O   UNL     1       6.964   4.274  14.526  0.00  0.00    +0.000 OA
ATOM      8  N   UNL     1       7.374   6.082  15.858  0.00  0.00    +0.000 NA
ATOM      9  H   UNL     1       8.093   8.074  18.169  0.00  0.00    +0.000 HD
ATOM     10  H   UNL     1       8.301   8.182  16.486  0.00  0.00    +0.000 HD
ATOM     11  H   UNL     1       6.044   3.193  16.444  0.00  0.00    +0.000 HD
ENDROOT
BRANCH   4  12
ATOM     12  N   UNL     1       5.706   3.762  18.912  0.00  0.00    +0.000 N 
ATOM     13  H   UNL     1       6.202   2.895  19.086  0.00  0.00    +0.000 HD
BRANCH  12  14
ATOM     14  C   UNL     1       4.745   4.124  19.938  0.00  0.00    +0.000 C 
BRANCH  14  15
ATOM     15  C   UNL     1       3.329   3.678  19.647  0.00  0.00    +0.000 A 
ATOM     16  C   UNL     1       2.702   3.832  18.401  0.00  0.00    +0.000 A 
ATOM     17  C   UNL     1       1.377   3.432  18.213  0.00  0.00    +0.000 A 
ATOM     18  C   UNL     1       0.658   2.867  19.264  0.00  0.00    +0.000 A 
ATOM     19  C   UNL     1       1.267   2.692  20.503  0.00  0.00    +0.000 A 
ATOM     20  C   UNL     1       2.593   3.091  20.692  0.00  0.00    +0.000 A 
ENDBRANCH  14  15
ENDBRANCH  12  14
ENDBRANCH   4  12
TORSDOF 3
ENDMDL
MODEL 8
REMARK VINA RESULT:      -7.2      1.616      1.809
REMARK  Name = 
REMARK  3 active torsions:
REMARK  status: ('A' for Active; 'I' for Inactive)
REMARK    1  A    between atoms: C_4  and  N_5
REMARK    2  A    between atoms: N_5  and  C_6
REMARK    3  A    between atoms: C_6  and  C_7
REMARK                            x       y       z     vdW  Elec       q    Type
REMARK                         _______ _______ _______ _____ _____    ______ ____
ROOT
ATOM      1  N   UNL     1       5.556   6.731  15.723  0.00  0.00    +0.000 N 
ATOM      2  C   UNL     1       5.616   5.800  16.725  0.00  0.00    +0.000 A 
ATOM      3  C   UNL     1       4.905   4.515  16.560  0.00  0.00    +0.000 A 
ATOM      4  C   UNL     1       5.006   3.621  17.551  0.00  0.00    +0.000 A 
ATOM      5  N   UNL     1       5.737   3.982  18.638  0.00  0.00    +0.000 N 
ATOM      6  C   UNL     1       6.388   5.181  18.789  0.00  0.00    +0.000 A 
ATOM      7  O   UNL     1       7.021   5.384  19.825  0.00  0.00    +0.000 OA
ATOM      8  N   UNL     1       6.301   6.104  17.782  0.00  0.00    +0.000 NA
ATOM      9  H   UNL     1       4.721   6.747  15.152  0.00  0.00    +0.000 HD
ATOM     10  H   UNL     1       5.865   7.650  16.026  0.00  0.00    +0.000 HD
ATOM     11  H   UNL     1       5.867   3.340  19.404  0.00  0.00    +0.000 HD
ENDROOT
BRANCH   4  12
ATOM     12  N   UNL     1       4.416   2.378  17.533  0.00  0.00    +0.000 N 
ATOM     13  H   UNL     1       5.052   1.597  17.651  0.00  0.00    +0.000 HD
BRANCH  12  14
ATOM     14  C   UNL     1       3.016   2.053  17.737  0.00  0.00    +0.000 C 
BRANCH  14  15
ATOM     15  C   UNL     1       2.431   2.607  19.018  0.00  0.00    +0.000 A 
ATOM     16  C   UNL     1       1.341   3.489  19.061  0.00  0.00    +0.000 A 
ATOM     17  C   UNL     1       0.877   3.993  20.279  0.00  0.00    +0.000 A 
ATOM     18  C   UNL     1       1.492   3.621  21.472  0.00  0.00    +0.000 A 
ATOM     19  C   UNL     1       2.564   2.736  21.450  0.00  0.00    +0.000 A 
ATOM     20  C   UNL     1       3.029   2.230  20.234  0.00  0.00    +0.000 A 
ENDBRANCH  14  15
ENDBRANCH  12  14
ENDBRANCH   4  12
TORSDOF 3
ENDMDL
MODEL 9
REMARK VINA RESULT:      -7.2      1.186      1.269
REMARK  Name = 
REMARK  3 active torsions:
REMARK  status: ('A' for Active; 'I' for Inactive)
REMARK    1  A    between atoms: C_4  and  N_5
REMARK    2  A    between atoms: N_5  and  C_6
REMARK    3  A    between atoms: C_6  and  C_7
REMARK                            x       y       z     vdW  Elec       q    Type
REMARK                         _______ _______ _______ _____ _____    ______ ____
ROOT
ATOM      1  N   UNL     1       7.414   5.198  13.726  0.00  0.00    +0.000 N 
ATOM      2  C   UNL     1       6.942   4.826  14.956  0.00  0.00    +0.000 A 
ATOM      3  C   UNL     1       5.525   4.430  15.095  0.00  0.00    +0.000 A 
ATOM      4  C   UNL     1       5.105   4.051  16.308  0.00  0.00    +0.000 A 
ATOM      5  N   UNL     1       6.016   4.084  17.316  0.00  0.00    +0.000 N 
ATOM      6  C   UNL     1       7.330   4.461  17.182  0.00  0.00    +0.000 A 
ATOM      7  O   UNL     1       8.054   4.443  18.176  0.00  0.00    +0.000 OA
ATOM      8  N   UNL     1       7.776   4.845  15.947  0.00  0.00    +0.000 NA
ATOM      9  H   UNL     1       6.760   5.631  13.087  0.00  0.00    +0.000 HD
ATOM     10  H   UNL     1       8.311   5.672  13.780  0.00  0.00    +0.000 HD
ATOM     11  H   UNL     1       5.762   3.787  18.245  0.00  0.00    +0.000 HD
ENDROOT
BRANCH   4  12
ATOM     12  N   UNL     1       3.823   3.640  16.587  0.00  0.00    +0.000 N 
ATOM     13  H   UNL     1       3.127   3.896  15.895  0.00  0.00    +0.000 HD
BRANCH  12  14
ATOM     14  C   UNL     1       3.400   2.605  17.513  0.00  0.00    +0.000 C 
BRANCH  14  15
ATOM     15  C   UNL     1       2.662   3.123  18.728  0.00  0.00    +0.000 A 
ATOM     16  C   UNL     1       3.193   4.066  19.621  0.00  0.00    +0.000 A 
ATOM     17  C   UNL     1       2.469   4.472  20.746  0.00  0.00    +0.000 A 
ATOM     18  C   UNL     1       1.204   3.945  20.994  0.00  0.00    +0.000 A 
ATOM     19  C   UNL     1       0.655   3.020  20.112  0.00  0.00    +0.000 A 
ATOM     20  C   UNL     1       1.376   2.615  18.986  0.00  0.00    +0.000 A 
ENDBRANCH  14  15
ENDBRANCH  12  14
ENDBRANCH   4  12
TORSDOF 3
ENDMDL
