MODEL 1
REMARK VINA RESULT:      -8.0      0.000      0.000
REMARK  Name = 
REMARK  7 active torsions:
REMARK  status: ('A' for Active; 'I' for Inactive)
REMARK    1  A    between atoms: C_5  and  O_6
REMARK    2  A    between atoms: C_9  and  C_10
REMARK    3  A    between atoms: C_15  and  C_16
REMARK    4  A    between atoms: C_20  and  C_21
REMARK    5  A    between atoms: C_21  and  C_22
REMARK    6  A    between atoms: C_21  and  C_23
REMARK    7  A    between atoms: C_23  and  O_24
REMARK                            x       y       z     vdW  Elec       q    Type
REMARK                         _______ _______ _______ _____ _____    ______ ____
ROOT
ATOM      1  C   UNL     1       2.070   7.708  19.874  0.00  0.00    +0.000 C 
ATOM      2  C   UNL     1       2.193   6.365  19.904  0.00  0.00    +0.000 C 
ATOM      3  C   UNL     1       1.508   5.509  20.969  0.00  0.00    +0.000 C 
ATOM      4  C   UNL     1       0.781   4.298  20.388  0.00  0.00    +0.000 C 
ATOM      5  C   UNL     1       1.706   3.506  19.474  0.00  0.00    +0.000 C 
ATOM      6  C   UNL     1       2.305   4.337  18.338  0.00  0.00    +0.000 C 
ATOM      7  C   UNL     1       1.168   4.796  17.378  0.00  0.00    +0.000 C 
ATOM      8  C   UNL     1       3.055   5.538  18.967  0.00  0.00    +0.000 C 
ATOM      9  C   UNL     1       3.805   6.127  17.774  0.00  0.00    +0.000 C 
ATOM     10  C   UNL     1       4.200   4.892  16.931  0.00  0.00    +0.000 C 
ATOM     11  C   UNL     1       3.426   3.643  17.489  0.00  0.00    +0.000 C 
ENDROOT
BRANCH   1  19
ATOM     12  C   UNL     1      -0.489   9.648  23.016  0.00  0.00    +0.000 C 
ATOM     13  C   UNL     1      -0.041  10.206  21.878  0.00  0.00    +0.000 C 
ATOM     14  C   UNL     1      -0.037  11.704  21.658  0.00  0.00    +0.000 C 
ATOM     15  C   UNL     1      -0.654  12.092  20.317  0.00  0.00    +0.000 C 
ATOM     16  C   UNL     1      -0.010  11.297  19.178  0.00  0.00    +0.000 C 
ATOM     17  C   UNL     1      -0.167   9.794  19.429  0.00  0.00    +0.000 C 
ATOM     18  C   UNL     1       0.462   9.415  20.745  0.00  0.00    +0.000 C 
ATOM     19  C   UNL     1       1.415   8.487  20.903  0.00  0.00    +0.000 C 
BRANCH  16  20
ATOM     20  O   UNL     1      -0.606  11.660  17.936  0.00  0.00    +0.000 OA
ATOM     21  H   UNL     1      -1.444  11.178  17.852  0.00  0.00    +0.000 HD
ENDBRANCH  16  20
ENDBRANCH   1  19
BRANCH  11  22
ATOM     22  C   UNL     1       4.397   2.616  18.197  0.00  0.00    +0.000 C 
ATOM     23  C   UNL     1       3.766   1.206  18.237  0.00  0.00    +0.000 C 
BRANCH  22  24
ATOM     24  C   UNL     1       4.813   2.896  19.667  0.00  0.00    +0.000 C 
BRANCH  24  25
ATOM     25  O   UNL     1       5.219   1.720  20.350  0.00  0.00    +0.000 OA
ATOM     26  H   UNL     1       4.523   1.050  20.225  0.00  0.00    +0.000 HD
ENDBRANCH  24  25
ENDBRANCH  22  24
ENDBRANCH  11  22
TORSDOF 5
ENDMDL
MODEL 2
REMARK VINA RESULT:      -7.6      2.250      3.187
REMARK  Name = 
REMARK  7 active torsions:
REMARK  status: ('A' for Active; 'I' for Inactive)
REMARK    1  A    between atoms: C_5  and  O_6
REMARK    2  A    between atoms: C_9  and  C_10
REMARK    3  A    between atoms: C_15  and  C_16
REMARK    4  A    between atoms: C_20  and  C_21
REMARK    5  A    between atoms: C_21  and  C_22
REMARK    6  A    between atoms: C_21  and  C_23
REMARK    7  A    between atoms: C_23  and  O_24
REMARK                            x       y       z     vdW  Elec       q    Type
REMARK                         _______ _______ _______ _____ _____    ______ ____
ROOT
ATOM      1  C   UNL     1       1.651   8.390  17.502  0.00  0.00    +0.000 C 
ATOM      2  C   UNL     1       2.542   7.705  18.250  0.00  0.00    +0.000 C 
ATOM      3  C   UNL     1       2.294   7.392  19.725  0.00  0.00    +0.000 C 
ATOM      4  C   UNL     1       2.578   5.935  20.085  0.00  0.00    +0.000 C 
ATOM      5  C   UNL     1       3.962   5.524  19.599  0.00  0.00    +0.000 C 
ATOM      6  C   UNL     1       4.173   5.732  18.098  0.00  0.00    +0.000 C 
ATOM      7  C   UNL     1       3.224   4.783  17.307  0.00  0.00    +0.000 C 
ATOM      8  C   UNL     1       3.902   7.223  17.779  0.00  0.00    +0.000 C 
ATOM      9  C   UNL     1       4.386   7.351  16.336  0.00  0.00    +0.000 C 
ATOM     10  C   UNL     1       5.609   6.406  16.266  0.00  0.00    +0.000 C 
ATOM     11  C   UNL     1       5.636   5.531  17.571  0.00  0.00    +0.000 C 
ENDROOT
BRANCH   1  19
ATOM     12  C   UNL     1      -2.146  10.582  18.483  0.00  0.00    +0.000 C 
ATOM     13  C   UNL     1      -0.935  10.774  19.034  0.00  0.00    +0.000 C 
ATOM     14  C   UNL     1      -0.747  11.521  20.338  0.00  0.00    +0.000 C 
ATOM     15  C   UNL     1       0.340  12.588  20.239  0.00  0.00    +0.000 C 
ATOM     16  C   UNL     1       1.632  11.990  19.676  0.00  0.00    +0.000 C 
ATOM     17  C   UNL     1       1.369  11.361  18.305  0.00  0.00    +0.000 C 
ATOM     18  C   UNL     1       0.309  10.295  18.413  0.00  0.00    +0.000 C 
ATOM     19  C   UNL     1       0.460   9.019  18.032  0.00  0.00    +0.000 C 
BRANCH  16  20
ATOM     20  O   UNL     1       2.632  13.001  19.579  0.00  0.00    +0.000 OA
ATOM     21  H   UNL     1       2.458  13.520  18.777  0.00  0.00    +0.000 HD
ENDBRANCH  16  20
ENDBRANCH   1  19
BRANCH  11  22
ATOM     22  C   UNL     1       6.848   5.913  18.510  0.00  0.00    +0.000 C 
ATOM     23  C   UNL     1       7.626   7.118  17.935  0.00  0.00    +0.000 C 
BRANCH  22  24
ATOM     24  C   UNL     1       7.938   4.838  18.772  0.00  0.00    +0.000 C 
BRANCH  24  25
ATOM     25  O   UNL     1       8.216   4.054  17.623  0.00  0.00    +0.000 OA
ATOM     26  H   UNL     1       7.383   3.950  17.128  0.00  0.00    +0.000 HD
ENDBRANCH  24  25
ENDBRANCH  22  24
ENDBRANCH  11  22
TORSDOF 5
ENDMDL
MODEL 3
REMARK VINA RESULT:      -7.5      1.704      2.371
REMARK  Name = 
REMARK  7 active torsions:
REMARK  status: ('A' for Active; 'I' for Inactive)
REMARK    1  A    between atoms: C_5  and  O_6
REMARK    2  A    between atoms: C_9  and  C_10
REMARK    3  A    between atoms: C_15  and  C_16
REMARK    4  A    between atoms: C_20  and  C_21
REMARK    5  A    between atoms: C_21  and  C_22
REMARK    6  A    between atoms: C_21  and  C_23
REMARK    7  A    between atoms: C_23  and  O_24
REMARK                            x       y       z     vdW  Elec       q    Type
REMARK                         _______ _______ _______ _____ _____    ______ ____
ROOT
ATOM      1  C   UNL     1       1.726   9.049  18.397  0.00  0.00    +0.000 C 
ATOM      2  C   UNL     1       2.149   7.948  19.052  0.00  0.00    +0.000 C 
ATOM      3  C   UNL     1       1.694   7.623  20.474  0.00  0.00    +0.000 C 
ATOM      4  C   UNL     1       1.247   6.171  20.643  0.00  0.00    +0.000 C 
ATOM      5  C   UNL     1       2.310   5.219  20.111  0.00  0.00    +0.000 C 
ATOM      6  C   UNL     1       2.686   5.473  18.650  0.00  0.00    +0.000 C 
ATOM      7  C   UNL     1       1.457   5.174  17.741  0.00  0.00    +0.000 C 
ATOM      8  C   UNL     1       3.158   6.943  18.525  0.00  0.00    +0.000 C 
ATOM      9  C   UNL     1       3.733   6.991  17.111  0.00  0.00    +0.000 C 
ATOM     10  C   UNL     1       4.381   5.599  16.922  0.00  0.00    +0.000 C 
ATOM     11  C   UNL     1       3.919   4.672  18.104  0.00  0.00    +0.000 C 
ENDROOT
BRANCH   1  19
ATOM     12  C   UNL     1      -0.954  11.801  20.728  0.00  0.00    +0.000 C 
ATOM     13  C   UNL     1      -1.027  11.519  19.416  0.00  0.00    +0.000 C 
ATOM     14  C   UNL     1      -1.813  12.377  18.446  0.00  0.00    +0.000 C 
ATOM     15  C   UNL     1      -2.734  11.545  17.557  0.00  0.00    +0.000 C 
ATOM     16  C   UNL     1      -1.958  10.408  16.890  0.00  0.00    +0.000 C 
ATOM     17  C   UNL     1      -1.295   9.526  17.953  0.00  0.00    +0.000 C 
ATOM     18  C   UNL     1      -0.371  10.349  18.813  0.00  0.00    +0.000 C 
ATOM     19  C   UNL     1       0.932  10.098  19.001  0.00  0.00    +0.000 C 
BRANCH  16  20
ATOM     20  O   UNL     1      -2.835   9.635  16.075  0.00  0.00    +0.000 OA
ATOM     21  H   UNL     1      -3.287   8.993  16.646  0.00  0.00    +0.000 HD
ENDBRANCH  16  20
ENDBRANCH   1  19
BRANCH  11  22
ATOM     22  C   UNL     1       5.109   4.334  19.087  0.00  0.00    +0.000 C 
ATOM     23  C   UNL     1       6.470   4.507  18.375  0.00  0.00    +0.000 C 
BRANCH  22  24
ATOM     24  C   UNL     1       5.170   2.907  19.698  0.00  0.00    +0.000 C 
BRANCH  24  25
ATOM     25  O   UNL     1       4.388   1.971  18.973  0.00  0.00    +0.000 OA
ATOM     26  H   UNL     1       3.522   2.382  18.798  0.00  0.00    +0.000 HD
ENDBRANCH  24  25
ENDBRANCH  22  24
ENDBRANCH  11  22
TORSDOF 5
ENDMDL
MODEL 4
REMARK VINA RESULT:      -7.4      1.644      1.926
REMARK  Name = 
REMARK  7 active torsions:
REMARK  status: ('A' for Active; 'I' for Inactive)
REMARK    1  A    between atoms: C_5  and  O_6
REMARK    2  A    between atoms: C_9  and  C_10
REMARK    3  A    between atoms: C_15  and  C_16
REMARK    4  A    between atoms: C_20  and  C_21
REMARK    5  A    between atoms: C_21  and  C_22
REMARK    6  A    between atoms: C_21  and  C_23
REMARK    7  A    between atoms: C_23  and  O_24
REMARK                            x       y       z     vdW  Elec       q    Type
REMARK                         _______ _______ _______ _____ _____    ______ ____
ROOT
ATOM      1  C   UNL     1       1.810   8.485  19.355  0.00  0.00    +0.000 C 
ATOM      2  C   UNL     1       2.466   7.324  19.559  0.00  0.00    +0.000 C 
ATOM      3  C   UNL     1       2.342   6.537  20.863  0.00  0.00    +0.000 C 
ATOM      4  C   UNL     1       2.089   5.047  20.642  0.00  0.00    +0.000 C 
ATOM      5  C   UNL     1       3.115   4.467  19.677  0.00  0.00    +0.000 C 
ATOM      6  C   UNL     1       3.161   5.185  18.326  0.00  0.00    +0.000 C 
ATOM      7  C   UNL     1       1.811   4.969  17.579  0.00  0.00    +0.000 C 
ATOM      8  C   UNL     1       3.446   6.684  18.590  0.00  0.00    +0.000 C 
ATOM      9  C   UNL     1       3.717   7.227  17.188  0.00  0.00    +0.000 C 
ATOM     10  C   UNL     1       4.452   6.068  16.474  0.00  0.00    +0.000 C 
ATOM     11  C   UNL     1       4.334   4.780  17.367  0.00  0.00    +0.000 C 
ENDROOT
BRANCH   1  19
ATOM     12  C   UNL     1      -1.006  10.090  22.468  0.00  0.00    +0.000 C 
ATOM     13  C   UNL     1      -0.628  10.695  21.328  0.00  0.00    +0.000 C 
ATOM     14  C   UNL     1      -0.822  12.179  21.095  0.00  0.00    +0.000 C 
ATOM     15  C   UNL     1      -1.476  12.471  19.747  0.00  0.00    +0.000 C 
ATOM     16  C   UNL     1      -0.724  11.760  18.619  0.00  0.00    +0.000 C 
ATOM     17  C   UNL     1      -0.682  10.251  18.881  0.00  0.00    +0.000 C 
ATOM     18  C   UNL     1      -0.017   9.970  20.204  0.00  0.00    +0.000 C 
ATOM     19  C   UNL     1       1.050   9.177  20.375  0.00  0.00    +0.000 C 
BRANCH  16  20
ATOM     20  O   UNL     1      -1.354  12.032  17.369  0.00  0.00    +0.000 OA
ATOM     21  H   UNL     1      -0.733  11.795  16.662  0.00  0.00    +0.000 HD
ENDBRANCH  16  20
ENDBRANCH   1  19
BRANCH  11  22
ATOM     22  C   UNL     1       5.726   4.367  17.992  0.00  0.00    +0.000 C 
ATOM     23  C   UNL     1       6.103   5.312  19.155  0.00  0.00    +0.000 C 
BRANCH  22  24
ATOM     24  C   UNL     1       6.974   4.373  17.067  0.00  0.00    +0.000 C 
BRANCH  24  25
ATOM     25  O   UNL     1       8.170   4.061  17.766  0.00  0.00    +0.000 OA
ATOM     26  H   UNL     1       8.914   4.202  17.154  0.00  0.00    +0.000 HD
ENDBRANCH  24  25
ENDBRANCH  22  24
ENDBRANCH  11  22
TORSDOF 5
ENDMDL
MODEL 5
REMARK VINA RESULT:      -7.3      1.140      1.210
REMARK  Name = 
REMARK  7 active torsions:
REMARK  status: ('A' for Active; 'I' for Inactive)
REMARK    1  A    between atoms: C_5  and  O_6
REMARK    2  A    between atoms: C_9  and  C_10
REMARK    3  A    between atoms: C_15  and  C_16
REMARK    4  A    between atoms: C_20  and  C_21
REMARK    5  A    between atoms: C_21  and  C_22
REMARK    6  A    between atoms: C_21  and  C_23
REMARK    7  A    between atoms: C_23  and  O_24
REMARK                            x       y       z     vdW  Elec       q    Type
REMARK                         _______ _______ _______ _____ _____    ______ ____
ROOT
ATOM      1  C   UNL     1       2.162   7.701  19.364  0.00  0.00    +0.000 C 
ATOM      2  C   UNL     1       2.250   6.386  19.649  0.00  0.00    +0.000 C 
ATOM      3  C   UNL     1       1.500   5.755  20.822  0.00  0.00    +0.000 C 
ATOM      4  C   UNL     1       0.767   4.470  20.443  0.00  0.00    +0.000 C 
ATOM      5  C   UNL     1       1.709   3.505  19.735  0.00  0.00    +0.000 C 
ATOM      6  C   UNL     1       2.377   4.100  18.493  0.00  0.00    +0.000 C 
ATOM      7  C   UNL     1       1.292   4.391  17.414  0.00  0.00    +0.000 C 
ATOM      8  C   UNL     1       3.130   5.383  18.922  0.00  0.00    +0.000 C 
ATOM      9  C   UNL     1       3.943   5.727  17.676  0.00  0.00    +0.000 C 
ATOM     10  C   UNL     1       4.342   4.350  17.097  0.00  0.00    +0.000 C 
ATOM     11  C   UNL     1       3.514   3.240  17.841  0.00  0.00    +0.000 C 
ENDROOT
BRANCH   1  19
ATOM     12  C   UNL     1      -0.533  10.498  21.623  0.00  0.00    +0.000 C 
ATOM     13  C   UNL     1       0.525  10.830  20.864  0.00  0.00    +0.000 C 
ATOM     14  C   UNL     1       1.188  12.189  20.949  0.00  0.00    +0.000 C 
ATOM     15  C   UNL     1       1.390  12.819  19.573  0.00  0.00    +0.000 C 
ATOM     16  C   UNL     1       2.097  11.843  18.631  0.00  0.00    +0.000 C 
ATOM     17  C   UNL     1       1.293  10.544  18.516  0.00  0.00    +0.000 C 
ATOM     18  C   UNL     1       1.116   9.916  19.875  0.00  0.00    +0.000 C 
ATOM     19  C   UNL     1       1.485   8.669  20.200  0.00  0.00    +0.000 C 
BRANCH  16  20
ATOM     20  O   UNL     1       2.266  12.441  17.349  0.00  0.00    +0.000 OA
ATOM     21  H   UNL     1       1.802  11.891  16.697  0.00  0.00    +0.000 HD
ENDBRANCH  16  20
ENDBRANCH   1  19
BRANCH  11  22
ATOM     22  C   UNL     1       4.429   2.347  18.770  0.00  0.00    +0.000 C 
ATOM     23  C   UNL     1       4.019   0.860  18.672  0.00  0.00    +0.000 C 
BRANCH  22  24
ATOM     24  C   UNL     1       4.437   2.647  20.294  0.00  0.00    +0.000 C 
BRANCH  24  25
ATOM     25  O   UNL     1       5.218   1.716  21.027  0.00  0.00    +0.000 OA
ATOM     26  H   UNL     1       5.475   2.141  21.866  0.00  0.00    +0.000 HD
ENDBRANCH  24  25
ENDBRANCH  22  24
ENDBRANCH  11  22
TORSDOF 5
ENDMDL
MODEL 6
REMARK VINA RESULT:      -7.2      1.136      1.447
REMARK  Name = 
REMARK  7 active torsions:
REMARK  status: ('A' for Active; 'I' for Inactive)
REMARK    1  A    between atoms: C_5  and  O_6
REMARK    2  A    between atoms: C_9  and  C_10
REMARK    3  A    between atoms: C_15  and  C_16
REMARK    4  A    between atoms: C_20  and  C_21
REMARK    5  A    between atoms: C_21  and  C_22
REMARK    6  A    between atoms: C_21  and  C_23
REMARK    7  A    between atoms: C_23  and  O_24
REMARK                            x       y       z     vdW  Elec       q    Type
REMARK                         _______ _______ _______ _____ _____    ______ ____
ROOT
ATOM      1  C   UNL     1       1.699   8.800  19.524  0.00  0.00    +0.000 C 
ATOM      2  C   UNL     1       2.092   7.533  19.768  0.00  0.00    +0.000 C 
ATOM      3  C   UNL     1       1.631   6.762  21.005  0.00  0.00    +0.000 C 
ATOM      4  C   UNL     1       1.143   5.351  20.685  0.00  0.00    +0.000 C 
ATOM      5  C   UNL     1       2.176   4.603  19.852  0.00  0.00    +0.000 C 
ATOM      6  C   UNL     1       2.555   5.321  18.555  0.00  0.00    +0.000 C 
ATOM      7  C   UNL     1       1.315   5.376  17.614  0.00  0.00    +0.000 C 
ATOM      8  C   UNL     1       3.070   6.735  18.923  0.00  0.00    +0.000 C 
ATOM      9  C   UNL     1       3.642   7.239  17.600  0.00  0.00    +0.000 C 
ATOM     10  C   UNL     1       4.249   5.973  16.948  0.00  0.00    +0.000 C 
ATOM     11  C   UNL     1       3.763   4.717  17.758  0.00  0.00    +0.000 C 
ENDROOT
BRANCH   1  19
ATOM     12  C   UNL     1      -1.099  10.742  22.455  0.00  0.00    +0.000 C 
ATOM     13  C   UNL     1      -0.781  11.181  21.225  0.00  0.00    +0.000 C 
ATOM     14  C   UNL     1      -1.049  12.604  20.779  0.00  0.00    +0.000 C 
ATOM     15  C   UNL     1      -1.752  12.662  19.426  0.00  0.00    +0.000 C 
ATOM     16  C   UNL     1      -1.001  11.820  18.392  0.00  0.00    +0.000 C 
ATOM     17  C   UNL     1      -0.882  10.371  18.876  0.00  0.00    +0.000 C 
ATOM     18  C   UNL     1      -0.169  10.320  20.202  0.00  0.00    +0.000 C 
ATOM     19  C   UNL     1       0.938   9.607  20.454  0.00  0.00    +0.000 C 
BRANCH  16  20
ATOM     20  O   UNL     1      -1.676  11.874  17.138  0.00  0.00    +0.000 OA
ATOM     21  H   UNL     1      -2.588  11.569  17.275  0.00  0.00    +0.000 HD
ENDBRANCH  16  20
ENDBRANCH   1  19
BRANCH  11  22
ATOM     22  C   UNL     1       4.945   4.038  18.556  0.00  0.00    +0.000 C 
ATOM     23  C   UNL     1       6.291   4.254  17.827  0.00  0.00    +0.000 C 
BRANCH  22  24
ATOM     24  C   UNL     1       4.879   2.505  18.799  0.00  0.00    +0.000 C 
BRANCH  24  25
ATOM     25  O   UNL     1       5.173   2.154  20.143  0.00  0.00    +0.000 OA
ATOM     26  H   UNL     1       5.566   1.262  20.136  0.00  0.00    +0.000 HD
ENDBRANCH  24  25
ENDBRANCH  22  24
ENDBRANCH  11  22
TORSDOF 5
ENDMDL
MODEL 7
REMARK VINA RESULT:      -7.2      1.738      3.075
REMARK  Name = 
REMARK  7 active torsions:
REMARK  status: ('A' for Active; 'I' for Inactive)
REMARK    1  A    between atoms: C_5  and  O_6
REMARK    2  A    between atoms: C_9  and  C_10
REMARK    3  A    between atoms: C_15  and  C_16
REMARK    4  A    between atoms: C_20  and  C_21
REMARK    5  A    between atoms: C_21  and  C_22
REMARK    6  A    between atoms: C_21  and  C_23
REMARK    7  A    between atoms: C_23  and  O_24
REMARK                            x       y       z     vdW  Elec       q    Type
REMARK                         _______ _______ _______ _____ _____    ______ ____
ROOT
ATOM      1  C   UNL     1       1.861   7.936  19.892  0.00  0.00    +0.000 C 
ATOM      2  C   UNL     1       2.304   7.047  18.979  0.00  0.00    +0.000 C 
ATOM      3  C   UNL     1       2.591   7.443  17.531  0.00  0.00    +0.000 C 
ATOM      4  C   UNL     1       3.936   6.925  17.023  0.00  0.00    +0.000 C 
ATOM      5  C   UNL     1       4.067   5.430  17.283  0.00  0.00    +0.000 C 
ATOM      6  C   UNL     1       3.891   5.045  18.753  0.00  0.00    +0.000 C 
ATOM      7  C   UNL     1       5.057   5.653  19.589  0.00  0.00    +0.000 C 
ATOM      8  C   UNL     1       2.508   5.562  19.222  0.00  0.00    +0.000 C 
ATOM      9  C   UNL     1       2.352   4.905  20.592  0.00  0.00    +0.000 C 
ATOM     10  C   UNL     1       3.017   3.519  20.421  0.00  0.00    +0.000 C 
ATOM     11  C   UNL     1       3.802   3.510  19.060  0.00  0.00    +0.000 C 
ENDROOT
BRANCH   1  19
ATOM     12  C   UNL     1       1.302  12.336  19.173  0.00  0.00    +0.000 C 
ATOM     13  C   UNL     1       0.540  11.537  19.940  0.00  0.00    +0.000 C 
ATOM     14  C   UNL     1      -0.848  11.936  20.395  0.00  0.00    +0.000 C 
ATOM     15  C   UNL     1      -1.046  11.727  21.894  0.00  0.00    +0.000 C 
ATOM     16  C   UNL     1      -0.647  10.306  22.297  0.00  0.00    +0.000 C 
ATOM     17  C   UNL     1       0.808  10.034  21.902  0.00  0.00    +0.000 C 
ATOM     18  C   UNL     1       0.991  10.222  20.419  0.00  0.00    +0.000 C 
ATOM     19  C   UNL     1       1.474   9.296  19.579  0.00  0.00    +0.000 C 
BRANCH  16  20
ATOM     20  O   UNL     1      -0.825  10.131  23.700  0.00  0.00    +0.000 OA
ATOM     21  H   UNL     1      -1.725   9.801  23.849  0.00  0.00    +0.000 HD
ENDBRANCH  16  20
ENDBRANCH   1  19
BRANCH  11  22
ATOM     22  C   UNL     1       3.127   2.554  17.998  0.00  0.00    +0.000 C 
ATOM     23  C   UNL     1       1.743   2.079  18.494  0.00  0.00    +0.000 C 
BRANCH  22  24
ATOM     24  C   UNL     1       3.870   1.246  17.612  0.00  0.00    +0.000 C 
BRANCH  24  25
ATOM     25  O   UNL     1       4.378   0.556  18.744  0.00  0.00    +0.000 OA
ATOM     26  H   UNL     1       3.663   0.507  19.405  0.00  0.00    +0.000 HD
ENDBRANCH  24  25
ENDBRANCH  22  24
ENDBRANCH  11  22
TORSDOF 5
ENDMDL
MODEL 8
REMARK VINA RESULT:      -7.1      1.658      2.987
REMARK  Name = 
REMARK  7 active torsions:
REMARK  status: ('A' for Active; 'I' for Inactive)
REMARK    1  A    between atoms: C_5  and  O_6
REMARK    2  A    between atoms: C_9  and  C_10
REMARK    3  A    between atoms: C_15  and  C_16
REMARK    4  A    between atoms: C_20  and  C_21
REMARK    5  A    between atoms: C_21  and  C_22
REMARK    6  A    between atoms: C_21  and  C_23
REMARK    7  A    between atoms: C_23  and  O_24
REMARK                            x       y       z     vdW  Elec       q    Type
REMARK                         _______ _______ _______ _____ _____    ______ ____
ROOT
ATOM      1  C   UNL     1       1.643   8.518  20.520  0.00  0.00    +0.000 C 
ATOM      2  C   UNL     1       1.897   7.662  19.508  0.00  0.00    +0.000 C 
ATOM      3  C   UNL     1       2.163   8.144  18.082  0.00  0.00    +0.000 C 
ATOM      4  C   UNL     1       3.386   7.486  17.445  0.00  0.00    +0.000 C 
ATOM      5  C   UNL     1       3.303   5.970  17.570  0.00  0.00    +0.000 C 
ATOM      6  C   UNL     1       3.150   5.480  19.011  0.00  0.00    +0.000 C 
ATOM      7  C   UNL     1       4.437   5.832  19.816  0.00  0.00    +0.000 C 
ATOM      8  C   UNL     1       1.888   6.147  19.612  0.00  0.00    +0.000 C 
ATOM      9  C   UNL     1       1.707   5.396  20.930  0.00  0.00    +0.000 C 
ATOM     10  C   UNL     1       2.146   3.950  20.600  0.00  0.00    +0.000 C 
ATOM     11  C   UNL     1       2.847   3.952  19.194  0.00  0.00    +0.000 C 
ENDROOT
BRANCH   1  19
ATOM     12  C   UNL     1       0.739  12.918  20.632  0.00  0.00    +0.000 C 
ATOM     13  C   UNL     1       0.315  12.027  19.719  0.00  0.00    +0.000 C 
ATOM     14  C   UNL     1      -0.244  12.447  18.376  0.00  0.00    +0.000 C 
ATOM     15  C   UNL     1      -1.567  11.755  18.059  0.00  0.00    +0.000 C 
ATOM     16  C   UNL     1      -1.436  10.240  18.228  0.00  0.00    +0.000 C 
ATOM     17  C   UNL     1      -0.980   9.904  19.652  0.00  0.00    +0.000 C 
ATOM     18  C   UNL     1       0.337  10.575  19.950  0.00  0.00    +0.000 C 
ATOM     19  C   UNL     1       1.449   9.942  20.348  0.00  0.00    +0.000 C 
BRANCH  16  20
ATOM     20  O   UNL     1      -2.681   9.610  17.942  0.00  0.00    +0.000 OA
ATOM     21  H   UNL     1      -3.338   9.941  18.575  0.00  0.00    +0.000 HD
ENDBRANCH  16  20
ENDBRANCH   1  19
BRANCH  11  22
ATOM     22  C   UNL     1       1.980   3.208  18.102  0.00  0.00    +0.000 C 
ATOM     23  C   UNL     1       0.699   2.617  18.734  0.00  0.00    +0.000 C 
BRANCH  22  24
ATOM     24  C   UNL     1       2.624   2.015  17.344  0.00  0.00    +0.000 C 
BRANCH  24  25
ATOM     25  O   UNL     1       3.384   1.175  18.198  0.00  0.00    +0.000 OA
ATOM     26  H   UNL     1       3.976   1.744  18.722  0.00  0.00    +0.000 HD
ENDBRANCH  24  25
ENDBRANCH  22  24
ENDBRANCH  11  22
TORSDOF 5
ENDMDL
MODEL 9
REMARK VINA RESULT:      -7.1      1.478      1.737
REMARK  Name = 
REMARK  7 active torsions:
REMARK  status: ('A' for Active; 'I' for Inactive)
REMARK    1  A    between atoms: C_5  and  O_6
REMARK    2  A    between atoms: C_9  and  C_10
REMARK    3  A    between atoms: C_15  and  C_16
REMARK    4  A    between atoms: C_20  and  C_21
REMARK    5  A    between atoms: C_21  and  C_22
REMARK    6  A    between atoms: C_21  and  C_23
REMARK    7  A    between atoms: C_23  and  O_24
REMARK                            x       y       z     vdW  Elec       q    Type
REMARK                         _______ _______ _______ _____ _____    ______ ____
ROOT
ATOM      1  C   UNL     1       1.788   8.666  19.078  0.00  0.00    +0.000 C 
ATOM      2  C   UNL     1       2.223   7.445  19.453  0.00  0.00    +0.000 C 
ATOM      3  C   UNL     1       1.819   6.813  20.785  0.00  0.00    +0.000 C 
ATOM      4  C   UNL     1       1.362   5.362  20.646  0.00  0.00    +0.000 C 
ATOM      5  C   UNL     1       2.390   4.548  19.872  0.00  0.00    +0.000 C 
ATOM      6  C   UNL     1       2.711   5.119  18.490  0.00  0.00    +0.000 C 
ATOM      7  C   UNL     1       1.443   5.035  17.589  0.00  0.00    +0.000 C 
ATOM      8  C   UNL     1       3.196   6.578  18.675  0.00  0.00    +0.000 C 
ATOM      9  C   UNL     1       3.716   6.938  17.284  0.00  0.00    +0.000 C 
ATOM     10  C   UNL     1       4.338   5.621  16.764  0.00  0.00    +0.000 C 
ATOM     11  C   UNL     1       3.911   4.456  17.729  0.00  0.00    +0.000 C 
ENDROOT
BRANCH   1  19
ATOM     12  C   UNL     1      -0.938  10.853  21.902  0.00  0.00    +0.000 C 
ATOM     13  C   UNL     1      -0.754  11.106  20.594  0.00  0.00    +0.000 C 
ATOM     14  C   UNL     1      -1.176  12.413  19.955  0.00  0.00    +0.000 C 
ATOM     15  C   UNL     1      -1.982  12.195  18.677  0.00  0.00    +0.000 C 
ATOM     16  C   UNL     1      -1.241  11.252  17.727  0.00  0.00    +0.000 C 
ATOM     17  C   UNL     1      -0.961   9.915  18.421  0.00  0.00    +0.000 C 
ATOM     18  C   UNL     1      -0.148  10.136  19.670  0.00  0.00    +0.000 C 
ATOM     19  C   UNL     1       1.032   9.557  19.932  0.00  0.00    +0.000 C 
BRANCH  16  20
ATOM     20  O   UNL     1      -2.012  11.049  16.545  0.00  0.00    +0.000 OA
ATOM     21  H   UNL     1      -2.877  11.472  16.675  0.00  0.00    +0.000 HD
ENDBRANCH  16  20
ENDBRANCH   1  19
BRANCH  11  22
ATOM     22  C   UNL     1       5.134   3.902  18.562  0.00  0.00    +0.000 C 
ATOM     23  C   UNL     1       4.654   2.903  19.638  0.00  0.00    +0.000 C 
BRANCH  22  24
ATOM     24  C   UNL     1       6.009   4.921  19.342  0.00  0.00    +0.000 C 
BRANCH  24  25
ATOM     25  O   UNL     1       7.345   4.968  18.865  0.00  0.00    +0.000 OA
ATOM     26  H   UNL     1       7.726   5.823  19.138  0.00  0.00    +0.000 HD
ENDBRANCH  24  25
ENDBRANCH  22  24
ENDBRANCH  11  22
TORSDOF 5
ENDMDL
