MODEL 1
REMARK VINA RESULT:      -7.6      0.000      0.000
REMARK  Name = 
REMARK  7 active torsions:
REMARK  status: ('A' for Active; 'I' for Inactive)
REMARK    1  A    between atoms: C_1  and  C_2
REMARK    2  A    between atoms: C_2  and  C_3
REMARK    3  A    between atoms: C_2  and  O_4
REMARK    4  A    between atoms: C_2  and  C_5
REMARK    5  A    between atoms: C_8  and  C_9
REMARK    6  A    between atoms: C_13  and  C_14
REMARK    7  A    between atoms: C_13  and  O_15
REMARK                            x       y       z     vdW  Elec       q    Type
REMARK                         _______ _______ _______ _____ _____    ______ ____
ROOT
ATOM      1  C   UNL     1       5.433   5.240  17.000  0.00  0.00    +0.000 C 
ATOM      2  C   UNL     1       4.509   6.427  17.367  0.00  0.00    +0.000 C 
ATOM      3  C   UNL     1       3.049   6.021  17.606  0.00  0.00    +0.000 C 
ATOM      4  C   UNL     1       2.893   4.883  18.647  0.00  0.00    +0.000 C 
ATOM      5  C   UNL     1       3.354   5.423  20.020  0.00  0.00    +0.000 C 
ATOM      6  C   UNL     1       1.400   4.486  18.742  0.00  0.00    +0.000 C 
ATOM      7  C   UNL     1       1.171   3.197  19.531  0.00  0.00    +0.000 C 
ATOM      8  C   UNL     1       1.967   2.036  18.948  0.00  0.00    +0.000 C 
ATOM      9  C   UNL     1       3.476   2.318  18.838  0.00  0.00    +0.000 C 
ATOM     10  C   UNL     1       4.180   2.153  20.189  0.00  0.00    +0.000 C 
ATOM     11  C   UNL     1       3.715   3.675  18.113  0.00  0.00    +0.000 C 
ATOM     12  C   UNL     1       5.203   4.032  17.942  0.00  0.00    +0.000 C 
ENDROOT
BRANCH   1  14
ATOM     13  C   UNL     1       7.825   4.719  17.790  0.00  0.00    +0.000 C 
ATOM     14  C   UNL     1       6.941   5.662  16.962  0.00  0.00    +0.000 C 
ATOM     15  C   UNL     1       7.155   7.098  17.465  0.00  0.00    +0.000 C 
BRANCH  14  16
ATOM     16  O   UNL     1       7.397   5.610  15.605  0.00  0.00    +0.000 OA
ATOM     17  H   UNL     1       7.337   6.508  15.233  0.00  0.00    +0.000 HD
ENDBRANCH  14  16
ENDBRANCH   1  14
BRANCH   9  18
ATOM     18  O   UNL     1       4.025   1.292  17.987  0.00  0.00    +0.000 OA
ATOM     19  H   UNL     1       4.269   1.704  17.140  0.00  0.00    +0.000 HD
ENDBRANCH   9  18
TORSDOF 3
ENDMDL
MODEL 2
REMARK VINA RESULT:      -7.3      1.736      2.161
REMARK  Name = 
REMARK  7 active torsions:
REMARK  status: ('A' for Active; 'I' for Inactive)
REMARK    1  A    between atoms: C_1  and  C_2
REMARK    2  A    between atoms: C_2  and  C_3
REMARK    3  A    between atoms: C_2  and  O_4
REMARK    4  A    between atoms: C_2  and  C_5
REMARK    5  A    between atoms: C_8  and  C_9
REMARK    6  A    between atoms: C_13  and  C_14
REMARK    7  A    between atoms: C_13  and  O_15
REMARK                            x       y       z     vdW  Elec       q    Type
REMARK                         _______ _______ _______ _____ _____    ______ ____
ROOT
ATOM      1  C   UNL     1       4.631   4.707  15.964  0.00  0.00    +0.000 C 
ATOM      2  C   UNL     1       4.923   6.075  16.628  0.00  0.00    +0.000 C 
ATOM      3  C   UNL     1       3.820   6.545  17.583  0.00  0.00    +0.000 C 
ATOM      4  C   UNL     1       3.459   5.495  18.665  0.00  0.00    +0.000 C 
ATOM      5  C   UNL     1       4.689   5.312  19.584  0.00  0.00    +0.000 C 
ATOM      6  C   UNL     1       2.277   6.027  19.511  0.00  0.00    +0.000 C 
ATOM      7  C   UNL     1       1.666   4.963  20.424  0.00  0.00    +0.000 C 
ATOM      8  C   UNL     1       1.213   3.742  19.633  0.00  0.00    +0.000 C 
ATOM      9  C   UNL     1       2.328   3.115  18.777  0.00  0.00    +0.000 C 
ATOM     10  C   UNL     1       3.268   2.249  19.621  0.00  0.00    +0.000 C 
ATOM     11  C   UNL     1       3.014   4.211  17.909  0.00  0.00    +0.000 C 
ATOM     12  C   UNL     1       4.135   3.669  17.002  0.00  0.00    +0.000 C 
ENDROOT
BRANCH   1  14
ATOM     13  C   UNL     1       7.099   5.064  15.332  0.00  0.00    +0.000 C 
ATOM     14  C   UNL     1       5.863   4.171  15.158  0.00  0.00    +0.000 C 
ATOM     15  C   UNL     1       5.562   4.042  13.657  0.00  0.00    +0.000 C 
BRANCH  14  16
ATOM     16  O   UNL     1       6.194   2.864  15.644  0.00  0.00    +0.000 OA
ATOM     17  H   UNL     1       5.641   2.686  16.426  0.00  0.00    +0.000 HD
ENDBRANCH  14  16
ENDBRANCH   1  14
BRANCH   9  18
ATOM     18  O   UNL     1       1.681   2.208  17.861  0.00  0.00    +0.000 OA
ATOM     19  H   UNL     1       2.212   1.394  17.820  0.00  0.00    +0.000 HD
ENDBRANCH   9  18
TORSDOF 3
ENDMDL
MODEL 3
REMARK VINA RESULT:      -7.3      1.599      1.990
REMARK  Name = 
REMARK  7 active torsions:
REMARK  status: ('A' for Active; 'I' for Inactive)
REMARK    1  A    between atoms: C_1  and  C_2
REMARK    2  A    between atoms: C_2  and  C_3
REMARK    3  A    between atoms: C_2  and  O_4
REMARK    4  A    between atoms: C_2  and  C_5
REMARK    5  A    between atoms: C_8  and  C_9
REMARK    6  A    between atoms: C_13  and  C_14
REMARK    7  A    between atoms: C_13  and  O_15
REMARK                            x       y       z     vdW  Elec       q    Type
REMARK                         _______ _______ _______ _____ _____    ______ ____
ROOT
ATOM      1  C   UNL     1       5.748   4.069  17.958  0.00  0.00    +0.000 C 
ATOM      2  C   UNL     1       4.887   4.438  16.725  0.00  0.00    +0.000 C 
ATOM      3  C   UNL     1       3.519   3.745  16.699  0.00  0.00    +0.000 C 
ATOM      4  C   UNL     1       2.703   3.952  18.000  0.00  0.00    +0.000 C 
ATOM      5  C   UNL     1       2.352   5.453  18.113  0.00  0.00    +0.000 C 
ATOM      6  C   UNL     1       1.390   3.138  17.909  0.00  0.00    +0.000 C 
ATOM      7  C   UNL     1       0.643   3.051  19.240  0.00  0.00    +0.000 C 
ATOM      8  C   UNL     1       1.523   2.469  20.339  0.00  0.00    +0.000 C 
ATOM      9  C   UNL     1       2.848   3.229  20.533  0.00  0.00    +0.000 C 
ATOM     10  C   UNL     1       2.647   4.514  21.343  0.00  0.00    +0.000 C 
ATOM     11  C   UNL     1       3.572   3.398  19.165  0.00  0.00    +0.000 C 
ATOM     12  C   UNL     1       4.921   4.134  19.266  0.00  0.00    +0.000 C 
ENDROOT
BRANCH   1  14
ATOM     13  C   UNL     1       7.249   5.523  19.458  0.00  0.00    +0.000 C 
ATOM     14  C   UNL     1       7.044   4.945  18.052  0.00  0.00    +0.000 C 
ATOM     15  C   UNL     1       7.033   6.105  17.044  0.00  0.00    +0.000 C 
BRANCH  14  16
ATOM     16  O   UNL     1       8.176   4.122  17.746  0.00  0.00    +0.000 OA
ATOM     17  H   UNL     1       8.940   4.706  17.595  0.00  0.00    +0.000 HD
ENDBRANCH  14  16
ENDBRANCH   1  14
BRANCH   9  18
ATOM     18  O   UNL     1       3.690   2.386  21.345  0.00  0.00    +0.000 OA
ATOM     19  H   UNL     1       3.498   1.460  21.115  0.00  0.00    +0.000 HD
ENDBRANCH   9  18
TORSDOF 3
ENDMDL
MODEL 4
REMARK VINA RESULT:      -7.3      0.871      1.173
REMARK  Name = 
REMARK  7 active torsions:
REMARK  status: ('A' for Active; 'I' for Inactive)
REMARK    1  A    between atoms: C_1  and  C_2
REMARK    2  A    between atoms: C_2  and  C_3
REMARK    3  A    between atoms: C_2  and  O_4
REMARK    4  A    between atoms: C_2  and  C_5
REMARK    5  A    between atoms: C_8  and  C_9
REMARK    6  A    between atoms: C_13  and  C_14
REMARK    7  A    between atoms: C_13  and  O_15
REMARK                            x       y       z     vdW  Elec       q    Type
REMARK                         _______ _______ _______ _____ _____    ______ ____
ROOT
ATOM      1  C   UNL     1       4.872   4.945  16.605  0.00  0.00    +0.000 C 
ATOM      2  C   UNL     1       4.162   6.227  17.105  0.00  0.00    +0.000 C 
ATOM      3  C   UNL     1       2.778   5.967  17.715  0.00  0.00    +0.000 C 
ATOM      4  C   UNL     1       2.794   4.896  18.835  0.00  0.00    +0.000 C 
ATOM      5  C   UNL     1       3.619   5.452  20.018  0.00  0.00    +0.000 C 
ATOM      6  C   UNL     1       1.344   4.641  19.312  0.00  0.00    +0.000 C 
ATOM      7  C   UNL     1       1.216   3.414  20.215  0.00  0.00    +0.000 C 
ATOM      8  C   UNL     1       1.752   2.161  19.536  0.00  0.00    +0.000 C 
ATOM      9  C   UNL     1       3.205   2.299  19.048  0.00  0.00    +0.000 C 
ATOM     10  C   UNL     1       4.204   2.131  20.198  0.00  0.00    +0.000 C 
ATOM     11  C   UNL     1       3.363   3.594  18.199  0.00  0.00    +0.000 C 
ATOM     12  C   UNL     1       4.787   3.806  17.652  0.00  0.00    +0.000 C 
ENDROOT
BRANCH   1  14
ATOM     13  C   UNL     1       6.654   4.711  14.763  0.00  0.00    +0.000 C 
ATOM     14  C   UNL     1       6.354   5.224  16.179  0.00  0.00    +0.000 C 
ATOM     15  C   UNL     1       7.365   4.597  17.150  0.00  0.00    +0.000 C 
BRANCH  14  16
ATOM     16  O   UNL     1       6.572   6.641  16.187  0.00  0.00    +0.000 OA
ATOM     17  H   UNL     1       5.826   7.062  15.722  0.00  0.00    +0.000 HD
ENDBRANCH  14  16
ENDBRANCH   1  14
BRANCH   9  18
ATOM     18  O   UNL     1       3.447   1.190  18.158  0.00  0.00    +0.000 OA
ATOM     19  H   UNL     1       4.338   1.294  17.784  0.00  0.00    +0.000 HD
ENDBRANCH   9  18
TORSDOF 3
ENDMDL
MODEL 5
REMARK VINA RESULT:      -7.3      1.696      5.165
REMARK  Name = 
REMARK  7 active torsions:
REMARK  status: ('A' for Active; 'I' for Inactive)
REMARK    1  A    between atoms: C_1  and  C_2
REMARK    2  A    between atoms: C_2  and  C_3
REMARK    3  A    between atoms: C_2  and  O_4
REMARK    4  A    between atoms: C_2  and  C_5
REMARK    5  A    between atoms: C_8  and  C_9
REMARK    6  A    between atoms: C_13  and  C_14
REMARK    7  A    between atoms: C_13  and  O_15
REMARK                            x       y       z     vdW  Elec       q    Type
REMARK                         _______ _______ _______ _____ _____    ______ ____
ROOT
ATOM      1  C   UNL     1       3.478   4.465  19.278  0.00  0.00    +0.000 C 
ATOM      2  C   UNL     1       2.839   5.274  18.123  0.00  0.00    +0.000 C 
ATOM      3  C   UNL     1       3.616   6.546  17.759  0.00  0.00    +0.000 C 
ATOM      4  C   UNL     1       5.114   6.284  17.460  0.00  0.00    +0.000 C 
ATOM      5  C   UNL     1       5.204   5.419  16.182  0.00  0.00    +0.000 C 
ATOM      6  C   UNL     1       5.822   7.635  17.200  0.00  0.00    +0.000 C 
ATOM      7  C   UNL     1       7.346   7.518  17.166  0.00  0.00    +0.000 C 
ATOM      8  C   UNL     1       7.888   6.903  18.450  0.00  0.00    +0.000 C 
ATOM      9  C   UNL     1       7.267   5.535  18.786  0.00  0.00    +0.000 C 
ATOM     10  C   UNL     1       7.896   4.411  17.954  0.00  0.00    +0.000 C 
ATOM     11  C   UNL     1       5.714   5.626  18.736  0.00  0.00    +0.000 C 
ATOM     12  C   UNL     1       5.006   4.302  19.078  0.00  0.00    +0.000 C 
ENDROOT
BRANCH   1  14
ATOM     13  C   UNL     1       3.027   2.124  18.310  0.00  0.00    +0.000 C 
ATOM     14  C   UNL     1       2.773   3.081  19.484  0.00  0.00    +0.000 C 
ATOM     15  C   UNL     1       1.256   3.226  19.676  0.00  0.00    +0.000 C 
BRANCH  14  16
ATOM     16  O   UNL     1       3.300   2.471  20.668  0.00  0.00    +0.000 OA
ATOM     17  H   UNL     1       3.133   3.073  21.416  0.00  0.00    +0.000 HD
ENDBRANCH  14  16
ENDBRANCH   1  14
BRANCH   9  18
ATOM     18  O   UNL     1       7.620   5.249  20.155  0.00  0.00    +0.000 OA
ATOM     19  H   UNL     1       8.230   5.944  20.459  0.00  0.00    +0.000 HD
ENDBRANCH   9  18
TORSDOF 3
ENDMDL
MODEL 6
REMARK VINA RESULT:      -7.2      0.811      1.120
REMARK  Name = 
REMARK  7 active torsions:
REMARK  status: ('A' for Active; 'I' for Inactive)
REMARK    1  A    between atoms: C_1  and  C_2
REMARK    2  A    between atoms: C_2  and  C_3
REMARK    3  A    between atoms: C_2  and  O_4
REMARK    4  A    between atoms: C_2  and  C_5
REMARK    5  A    between atoms: C_8  and  C_9
REMARK    6  A    between atoms: C_13  and  C_14
REMARK    7  A    between atoms: C_13  and  O_15
REMARK                            x       y       z     vdW  Elec       q    Type
REMARK                         _______ _______ _______ _____ _____    ______ ____
ROOT
ATOM      1  C   UNL     1       5.203   4.840  16.809  0.00  0.00    +0.000 C 
ATOM      2  C   UNL     1       4.382   6.100  17.179  0.00  0.00    +0.000 C 
ATOM      3  C   UNL     1       2.942   5.793  17.609  0.00  0.00    +0.000 C 
ATOM      4  C   UNL     1       2.854   4.747  18.748  0.00  0.00    +0.000 C 
ATOM      5  C   UNL     1       3.492   5.362  20.015  0.00  0.00    +0.000 C 
ATOM      6  C   UNL     1       1.365   4.439  19.038  0.00  0.00    +0.000 C 
ATOM      7  C   UNL     1       1.168   3.227  19.949  0.00  0.00    +0.000 C 
ATOM      8  C   UNL     1       1.838   1.984  19.378  0.00  0.00    +0.000 C 
ATOM      9  C   UNL     1       3.336   2.175  19.081  0.00  0.00    +0.000 C 
ATOM     10  C   UNL     1       4.181   2.073  20.355  0.00  0.00    +0.000 C 
ATOM     11  C   UNL     1       3.553   3.459  18.227  0.00  0.00    +0.000 C 
ATOM     12  C   UNL     1       5.027   3.720  17.865  0.00  0.00    +0.000 C 
ENDROOT
BRANCH   1  14
ATOM     13  C   UNL     1       7.073   6.592  17.039  0.00  0.00    +0.000 C 
ATOM     14  C   UNL     1       6.715   5.175  16.573  0.00  0.00    +0.000 C 
ATOM     15  C   UNL     1       7.117   5.031  15.097  0.00  0.00    +0.000 C 
BRANCH  14  16
ATOM     16  O   UNL     1       7.511   4.251  17.326  0.00  0.00    +0.000 OA
ATOM     17  H   UNL     1       6.958   3.476  17.531  0.00  0.00    +0.000 HD
ENDBRANCH  14  16
ENDBRANCH   1  14
BRANCH   9  18
ATOM     18  O   UNL     1       3.737   1.060  18.259  0.00  0.00    +0.000 OA
ATOM     19  H   UNL     1       4.693   1.137  18.093  0.00  0.00    +0.000 HD
ENDBRANCH   9  18
TORSDOF 3
ENDMDL
MODEL 7
REMARK VINA RESULT:      -7.0      1.675      5.108
REMARK  Name = 
REMARK  7 active torsions:
REMARK  status: ('A' for Active; 'I' for Inactive)
REMARK    1  A    between atoms: C_1  and  C_2
REMARK    2  A    between atoms: C_2  and  C_3
REMARK    3  A    between atoms: C_2  and  O_4
REMARK    4  A    between atoms: C_2  and  C_5
REMARK    5  A    between atoms: C_8  and  C_9
REMARK    6  A    between atoms: C_13  and  C_14
REMARK    7  A    between atoms: C_13  and  O_15
REMARK                            x       y       z     vdW  Elec       q    Type
REMARK                         _______ _______ _______ _____ _____    ______ ____
ROOT
ATOM      1  C   UNL     1       3.377   4.401  18.947  0.00  0.00    +0.000 C 
ATOM      2  C   UNL     1       2.788   5.294  17.828  0.00  0.00    +0.000 C 
ATOM      3  C   UNL     1       3.575   6.590  17.594  0.00  0.00    +0.000 C 
ATOM      4  C   UNL     1       5.086   6.351  17.344  0.00  0.00    +0.000 C 
ATOM      5  C   UNL     1       5.236   5.584  16.011  0.00  0.00    +0.000 C 
ATOM      6  C   UNL     1       5.800   7.719  17.217  0.00  0.00    +0.000 C 
ATOM      7  C   UNL     1       7.324   7.605  17.243  0.00  0.00    +0.000 C 
ATOM      8  C   UNL     1       7.811   6.896  18.500  0.00  0.00    +0.000 C 
ATOM      9  C   UNL     1       7.181   5.507  18.706  0.00  0.00    +0.000 C 
ATOM     10  C   UNL     1       7.850   4.448  17.822  0.00  0.00    +0.000 C 
ATOM     11  C   UNL     1       5.631   5.600  18.593  0.00  0.00    +0.000 C 
ATOM     12  C   UNL     1       4.913   4.254  18.804  0.00  0.00    +0.000 C 
ENDROOT
BRANCH   1  14
ATOM     13  C   UNL     1       1.952   2.788  20.357  0.00  0.00    +0.000 C 
ATOM     14  C   UNL     1       2.670   3.005  19.017  0.00  0.00    +0.000 C 
ATOM     15  C   UNL     1       3.652   1.845  18.796  0.00  0.00    +0.000 C 
BRANCH  14  16
ATOM     16  O   UNL     1       1.686   2.939  17.978  0.00  0.00    +0.000 OA
ATOM     17  H   UNL     1       1.372   2.019  17.920  0.00  0.00    +0.000 HD
ENDBRANCH  14  16
ENDBRANCH   1  14
BRANCH   9  18
ATOM     18  O   UNL     1       7.474   5.120  20.064  0.00  0.00    +0.000 OA
ATOM     19  H   UNL     1       7.214   4.189  20.174  0.00  0.00    +0.000 HD
ENDBRANCH   9  18
TORSDOF 3
ENDMDL
MODEL 8
REMARK VINA RESULT:      -6.9      1.213      1.382
REMARK  Name = 
REMARK  7 active torsions:
REMARK  status: ('A' for Active; 'I' for Inactive)
REMARK    1  A    between atoms: C_1  and  C_2
REMARK    2  A    between atoms: C_2  and  C_3
REMARK    3  A    between atoms: C_2  and  O_4
REMARK    4  A    between atoms: C_2  and  C_5
REMARK    5  A    between atoms: C_8  and  C_9
REMARK    6  A    between atoms: C_13  and  C_14
REMARK    7  A    between atoms: C_13  and  O_15
REMARK                            x       y       z     vdW  Elec       q    Type
REMARK                         _______ _______ _______ _____ _____    ______ ____
ROOT
ATOM      1  C   UNL     1       4.445   5.399  16.658  0.00  0.00    +0.000 C 
ATOM      2  C   UNL     1       4.257   6.488  17.742  0.00  0.00    +0.000 C 
ATOM      3  C   UNL     1       2.948   6.353  18.531  0.00  0.00    +0.000 C 
ATOM      4  C   UNL     1       2.750   4.946  19.150  0.00  0.00    +0.000 C 
ATOM      5  C   UNL     1       3.847   4.733  20.218  0.00  0.00    +0.000 C 
ATOM      6  C   UNL     1       1.365   4.887  19.839  0.00  0.00    +0.000 C 
ATOM      7  C   UNL     1       0.954   3.471  20.242  0.00  0.00    +0.000 C 
ATOM      8  C   UNL     1       0.966   2.524  19.048  0.00  0.00    +0.000 C 
ATOM      9  C   UNL     1       2.315   2.485  18.308  0.00  0.00    +0.000 C 
ATOM     10  C   UNL     1       3.336   1.609  19.042  0.00  0.00    +0.000 C 
ATOM     11  C   UNL     1       2.782   3.932  17.972  0.00  0.00    +0.000 C 
ATOM     12  C   UNL     1       4.120   3.988  17.211  0.00  0.00    +0.000 C 
ENDROOT
BRANCH   1  14
ATOM     13  C   UNL     1       6.372   4.059  15.603  0.00  0.00    +0.000 C 
ATOM     14  C   UNL     1       5.873   5.451  16.017  0.00  0.00    +0.000 C 
ATOM     15  C   UNL     1       6.910   6.080  16.960  0.00  0.00    +0.000 C 
BRANCH  14  16
ATOM     16  O   UNL     1       5.816   6.264  14.838  0.00  0.00    +0.000 OA
ATOM     17  H   UNL     1       6.547   6.907  14.881  0.00  0.00    +0.000 HD
ENDBRANCH  14  16
ENDBRANCH   1  14
BRANCH   9  18
ATOM     18  O   UNL     1       2.073   1.826  17.048  0.00  0.00    +0.000 OA
ATOM     19  H   UNL     1       1.618   0.986  17.231  0.00  0.00    +0.000 HD
ENDBRANCH   9  18
TORSDOF 3
ENDMDL
MODEL 9
REMARK VINA RESULT:      -6.9      1.634      5.131
REMARK  Name = 
REMARK  7 active torsions:
REMARK  status: ('A' for Active; 'I' for Inactive)
REMARK    1  A    between atoms: C_1  and  C_2
REMARK    2  A    between atoms: C_2  and  C_3
REMARK    3  A    between atoms: C_2  and  O_4
REMARK    4  A    between atoms: C_2  and  C_5
REMARK    5  A    between atoms: C_8  and  C_9
REMARK    6  A    between atoms: C_13  and  C_14
REMARK    7  A    between atoms: C_13  and  O_15
REMARK                            x       y       z     vdW  Elec       q    Type
REMARK                         _______ _______ _______ _____ _____    ______ ____
ROOT
ATOM      1  C   UNL     1       3.108   3.764  18.811  0.00  0.00    +0.000 C 
ATOM      2  C   UNL     1       3.333   5.085  19.587  0.00  0.00    +0.000 C 
ATOM      3  C   UNL     1       4.764   5.627  19.480  0.00  0.00    +0.000 C 
ATOM      4  C   UNL     1       5.251   5.780  18.017  0.00  0.00    +0.000 C 
ATOM      5  C   UNL     1       4.393   6.870  17.335  0.00  0.00    +0.000 C 
ATOM      6  C   UNL     1       6.730   6.239  18.022  0.00  0.00    +0.000 C 
ATOM      7  C   UNL     1       7.389   6.157  16.645  0.00  0.00    +0.000 C 
ATOM      8  C   UNL     1       7.298   4.751  16.065  0.00  0.00    +0.000 C 
ATOM      9  C   UNL     1       5.860   4.209  15.987  0.00  0.00    +0.000 C 
ATOM     10  C   UNL     1       5.107   4.781  14.781  0.00  0.00    +0.000 C 
ATOM     11  C   UNL     1       5.153   4.371  17.364  0.00  0.00    +0.000 C 
ATOM     12  C   UNL     1       3.708   3.837  17.384  0.00  0.00    +0.000 C 
ENDROOT
BRANCH   1  14
ATOM     13  C   UNL     1       0.832   3.865  20.008  0.00  0.00    +0.000 C 
ATOM     14  C   UNL     1       1.597   3.353  18.779  0.00  0.00    +0.000 C 
ATOM     15  C   UNL     1       1.412   1.830  18.689  0.00  0.00    +0.000 C 
BRANCH  14  16
ATOM     16  O   UNL     1       0.991   3.928  17.615  0.00  0.00    +0.000 OA
ATOM     17  H   UNL     1       0.362   4.611  17.910  0.00  0.00    +0.000 HD
ENDBRANCH  14  16
ENDBRANCH   1  14
BRANCH   9  18
ATOM     18  O   UNL     1       5.968   2.792  15.742  0.00  0.00    +0.000 OA
ATOM     19  H   UNL     1       5.364   2.567  15.013  0.00  0.00    +0.000 HD
ENDBRANCH   9  18
TORSDOF 3
ENDMDL
