MODEL 1
REMARK VINA RESULT:      -6.4      0.000      0.000
REMARK  Name = 
REMARK  8 active torsions:
REMARK  status: ('A' for Active; 'I' for Inactive)
REMARK    1  A    between atoms: C_1  and  O_2
REMARK    2  A    between atoms: O_2  and  C_3
REMARK    3  A    between atoms: C_5  and  O_6
REMARK    4  A    between atoms: O_6  and  C_7
REMARK    5  A    between atoms: N_13  and  S_14
REMARK    6  A    between atoms: S_14  and  C_17
REMARK    7  A    between atoms: C_18  and  S_19
REMARK    8  A    between atoms: S_19  and  C_20
REMARK                            x       y       z     vdW  Elec       q    Type
REMARK                         _______ _______ _______ _____ _____    ______ ____
ROOT
ATOM      1  C   UNL     1       2.653  15.007  18.201  0.00  0.00    +0.000 A 
ATOM      2  C   UNL     1       1.076  15.746  19.266  0.00  0.00    +0.000 A 
ATOM      3  C   UNL     1       0.242  14.545  20.273  0.00  0.00    +0.000 A 
ATOM      4  N   UNL     1       0.788  12.912  20.144  0.00  0.00    +0.000 NA
ATOM      5  C   UNL     1       1.992  12.383  19.086  0.00  0.00    +0.000 A 
ATOM      6  N   UNL     1       1.851  11.142  18.468  0.00  0.00    +0.000 N 
ATOM      7  C   UNL     1       0.778  10.324  18.279  0.00  0.00    +0.000 C 
ATOM      8  O   UNL     1       1.003   9.212  17.809  0.00  0.00    +0.000 OA
ATOM      9  N   UNL     1      -0.553  10.645  18.485  0.00  0.00    +0.000 N 
ATOM     10  N   UNL     1       2.942  13.343  18.165  0.00  0.00    +0.000 NA
ATOM     11  H   UNL     1       2.617  10.911  17.852  0.00  0.00    +0.000 HD
ATOM     12  H   UNL     1      -1.214   9.876  18.432  0.00  0.00    +0.000 HD
ENDROOT
BRANCH   9  13
ATOM     13  S   UNL     1      -1.294  12.066  18.833  0.00  0.00    +0.000 S 
ATOM     14  O   UNL     1      -1.273  12.241  20.269  0.00  0.00    +0.000 OA
ATOM     15  O   UNL     1      -0.592  13.075  18.081  0.00  0.00    +0.000 OA
BRANCH  13  16
ATOM     16  C   UNL     1      -3.125  11.777  18.424  0.00  0.00    +0.000 A 
ATOM     17  C   UNL     1      -3.608  11.193  17.231  0.00  0.00    +0.000 A 
ATOM     18  N   UNL     1      -4.939  10.791  17.184  0.00  0.00    +0.000 NA
ATOM     19  C   UNL     1      -5.476  11.033  18.346  0.00  0.00    +0.000 A 
ATOM     20  C   UNL     1      -7.041  10.666  19.076  0.00  0.00    +0.000 A 
ATOM     21  C   UNL     1      -7.489  11.122  20.492  0.00  0.00    +0.000 A 
ATOM     22  C   UNL     1      -6.515  12.341  21.552  0.00  0.00    +0.000 A 
ATOM     23  C   UNL     1      -5.085  12.943  20.948  0.00  0.00    +0.000 A 
ATOM     24  N   UNL     1      -4.395  12.149  19.218  0.00  0.00    +0.000 N 
BRANCH  17  25
ATOM     25  S   UNL     1      -2.621  10.836  15.802  0.00  0.00    +0.000 S 
ATOM     26  C   UNL     1      -3.833  10.131  14.665  0.00  0.00    +0.000 C 
ENDBRANCH  17  25
ENDBRANCH  13  16
ENDBRANCH   9  13
BRANCH   1  28
ATOM     27  C   UNL     1       4.484  16.382  19.072  0.00  0.00    +0.000 C 
ATOM     28  O   UNL     1       3.930  15.614  18.046  0.00  0.00    +0.000 OA
ENDBRANCH   1  28
BRANCH   3  29
ATOM     29  O   UNL     1      -0.916  14.651  20.945  0.00  0.00    +0.000 OA
ATOM     30  C   UNL     1      -0.892  15.232  22.217  0.00  0.00    +0.000 C 
ENDBRANCH   3  29
TORSDOF 5
ENDMDL
MODEL 2
REMARK VINA RESULT:      -5.8      6.993      9.783
REMARK  Name = 
REMARK  8 active torsions:
REMARK  status: ('A' for Active; 'I' for Inactive)
REMARK    1  A    between atoms: C_1  and  O_2
REMARK    2  A    between atoms: O_2  and  C_3
REMARK    3  A    between atoms: C_5  and  O_6
REMARK    4  A    between atoms: O_6  and  C_7
REMARK    5  A    between atoms: N_13  and  S_14
REMARK    6  A    between atoms: S_14  and  C_17
REMARK    7  A    between atoms: C_18  and  S_19
REMARK    8  A    between atoms: S_19  and  C_20
REMARK                            x       y       z     vdW  Elec       q    Type
REMARK                         _______ _______ _______ _____ _____    ______ ____
ROOT
ATOM      1  C   UNL     1       6.491   4.978  14.246  0.00  0.00    +0.000 A 
ATOM      2  C   UNL     1       6.958   6.512  15.511  0.00  0.00    +0.000 A 
ATOM      3  C   UNL     1       6.880   6.093  17.234  0.00  0.00    +0.000 A 
ATOM      4  N   UNL     1       6.322   4.505  17.622  0.00  0.00    +0.000 NA
ATOM      5  C   UNL     1       5.788   3.373  16.490  0.00  0.00    +0.000 A 
ATOM      6  N   UNL     1       4.709   2.553  16.814  0.00  0.00    +0.000 N 
ATOM      7  C   UNL     1       3.741   2.638  17.769  0.00  0.00    +0.000 C 
ATOM      8  O   UNL     1       2.995   1.671  17.892  0.00  0.00    +0.000 OA
ATOM      9  N   UNL     1       3.458   3.736  18.564  0.00  0.00    +0.000 N 
ATOM     10  N   UNL     1       5.882   3.530  14.866  0.00  0.00    +0.000 NA
ATOM     11  H   UNL     1       4.457   1.910  16.077  0.00  0.00    +0.000 HD
ATOM     12  H   UNL     1       2.799   3.584  19.322  0.00  0.00    +0.000 HD
ENDROOT
BRANCH   9  13
ATOM     13  S   UNL     1       4.013   5.279  18.536  0.00  0.00    +0.000 S 
ATOM     14  O   UNL     1       5.161   5.357  19.413  0.00  0.00    +0.000 OA
ATOM     15  O   UNL     1       4.276   5.581  17.152  0.00  0.00    +0.000 OA
BRANCH  13  16
ATOM     16  C   UNL     1       2.678   6.296  19.422  0.00  0.00    +0.000 A 
ATOM     17  C   UNL     1       1.998   5.897  20.595  0.00  0.00    +0.000 A 
ATOM     18  N   UNL     1       1.255   6.850  21.284  0.00  0.00    +0.000 NA
ATOM     19  C   UNL     1       1.384   7.989  20.665  0.00  0.00    +0.000 A 
ATOM     20  C   UNL     1       0.876   9.642  21.018  0.00  0.00    +0.000 A 
ATOM     21  C   UNL     1       1.096  10.859  20.077  0.00  0.00    +0.000 A 
ATOM     22  C   UNL     1       1.730  10.707  18.306  0.00  0.00    +0.000 A 
ATOM     23  C   UNL     1       2.097   9.189  17.729  0.00  0.00    +0.000 A 
ATOM     24  N   UNL     1       2.043   7.651  19.045  0.00  0.00    +0.000 N 
BRANCH  17  25
ATOM     25  S   UNL     1       2.094   4.284  21.327  0.00  0.00    +0.000 S 
ATOM     26  C   UNL     1       0.801   3.386  20.444  0.00  0.00    +0.000 C 
ENDBRANCH  17  25
ENDBRANCH  13  16
ENDBRANCH   9  13
BRANCH   1  28
ATOM     27  C   UNL     1       8.189   5.440  12.541  0.00  0.00    +0.000 C 
ATOM     28  O   UNL     1       7.186   4.618  13.059  0.00  0.00    +0.000 OA
ENDBRANCH   1  28
BRANCH   3  29
ATOM     29  O   UNL     1       6.950   6.893  18.311  0.00  0.00    +0.000 OA
ATOM     30  C   UNL     1       8.199   7.412  18.670  0.00  0.00    +0.000 C 
ENDBRANCH   3  29
TORSDOF 5
ENDMDL
MODEL 3
REMARK VINA RESULT:      -5.7      3.041      7.926
REMARK  Name = 
REMARK  8 active torsions:
REMARK  status: ('A' for Active; 'I' for Inactive)
REMARK    1  A    between atoms: C_1  and  O_2
REMARK    2  A    between atoms: O_2  and  C_3
REMARK    3  A    between atoms: C_5  and  O_6
REMARK    4  A    between atoms: O_6  and  C_7
REMARK    5  A    between atoms: N_13  and  S_14
REMARK    6  A    between atoms: S_14  and  C_17
REMARK    7  A    between atoms: C_18  and  S_19
REMARK    8  A    between atoms: S_19  and  C_20
REMARK                            x       y       z     vdW  Elec       q    Type
REMARK                         _______ _______ _______ _____ _____    ______ ____
ROOT
ATOM      1  C   UNL     1      -5.100  12.678  21.047  0.00  0.00    +0.000 A 
ATOM      2  C   UNL     1      -4.041  12.234  19.359  0.00  0.00    +0.000 A 
ATOM      3  C   UNL     1      -2.323  11.887  19.639  0.00  0.00    +0.000 A 
ATOM      4  N   UNL     1      -1.748  12.074  21.257  0.00  0.00    +0.000 NA
ATOM      5  C   UNL     1      -2.683  12.625  22.550  0.00  0.00    +0.000 A 
ATOM      6  N   UNL     1      -2.095  13.459  23.500  0.00  0.00    +0.000 N 
ATOM      7  C   UNL     1      -0.960  14.211  23.488  0.00  0.00    +0.000 C 
ATOM      8  O   UNL     1      -0.634  14.740  24.548  0.00  0.00    +0.000 OA
ATOM      9  N   UNL     1      -0.178  14.512  22.386  0.00  0.00    +0.000 N 
ATOM     10  N   UNL     1      -4.295  12.891  22.516  0.00  0.00    +0.000 NA
ATOM     11  H   UNL     1      -2.730  13.740  24.234  0.00  0.00    +0.000 HD
ATOM     12  H   UNL     1       0.710  14.966  22.577  0.00  0.00    +0.000 HD
ENDROOT
BRANCH   9  13
ATOM     13  S   UNL     1      -0.399  14.247  20.783  0.00  0.00    +0.000 S 
ATOM     14  O   UNL     1       0.146  12.944  20.466  0.00  0.00    +0.000 OA
ATOM     15  O   UNL     1      -1.812  14.394  20.548  0.00  0.00    +0.000 OA
BRANCH  13  16
ATOM     16  C   UNL     1       0.771  15.466  19.919  0.00  0.00    +0.000 A 
ATOM     17  C   UNL     1       2.183  15.410  19.967  0.00  0.00    +0.000 A 
ATOM     18  N   UNL     1       2.905  16.190  19.072  0.00  0.00    +0.000 NA
ATOM     19  C   UNL     1       2.058  16.825  18.312  0.00  0.00    +0.000 A 
ATOM     20  C   UNL     1       2.219  17.851  16.886  0.00  0.00    +0.000 A 
ATOM     21  C   UNL     1       1.039  18.565  16.167  0.00  0.00    +0.000 A 
ATOM     22  C   UNL     1      -0.716  18.630  16.857  0.00  0.00    +0.000 A 
ATOM     23  C   UNL     1      -1.023  17.861  18.302  0.00  0.00    +0.000 A 
ATOM     24  N   UNL     1       0.459  16.731  19.092  0.00  0.00    +0.000 N 
BRANCH  17  25
ATOM     25  S   UNL     1       3.122  14.339  21.024  0.00  0.00    +0.000 S 
ATOM     26  C   UNL     1       4.821  14.751  20.574  0.00  0.00    +0.000 C 
ENDBRANCH  17  25
ENDBRANCH  13  16
ENDBRANCH   9  13
BRANCH   1  28
ATOM     27  C   UNL     1      -7.542  12.864  20.985  0.00  0.00    +0.000 C 
ATOM     28  O   UNL     1      -6.390  12.188  21.391  0.00  0.00    +0.000 OA
ENDBRANCH   1  28
BRANCH   3  29
ATOM     29  O   UNL     1      -1.326  11.738  18.751  0.00  0.00    +0.000 OA
ATOM     30  C   UNL     1      -1.153  10.484  18.155  0.00  0.00    +0.000 C 
ENDBRANCH   3  29
TORSDOF 5
ENDMDL
MODEL 4
REMARK VINA RESULT:      -5.7      2.896      6.553
REMARK  Name = 
REMARK  8 active torsions:
REMARK  status: ('A' for Active; 'I' for Inactive)
REMARK    1  A    between atoms: C_1  and  O_2
REMARK    2  A    between atoms: O_2  and  C_3
REMARK    3  A    between atoms: C_5  and  O_6
REMARK    4  A    between atoms: O_6  and  C_7
REMARK    5  A    between atoms: N_13  and  S_14
REMARK    6  A    between atoms: S_14  and  C_17
REMARK    7  A    between atoms: C_18  and  S_19
REMARK    8  A    between atoms: S_19  and  C_20
REMARK                            x       y       z     vdW  Elec       q    Type
REMARK                         _______ _______ _______ _____ _____    ______ ____
ROOT
ATOM      1  C   UNL     1       1.562  10.213  18.290  0.00  0.00    +0.000 A 
ATOM      2  C   UNL     1      -0.417  10.220  18.793  0.00  0.00    +0.000 A 
ATOM      3  C   UNL     1      -1.172  11.826  18.786  0.00  0.00    +0.000 A 
ATOM      4  N   UNL     1      -0.133  13.169  18.470  0.00  0.00    +0.000 NA
ATOM      5  C   UNL     1       1.536  13.059  18.244  0.00  0.00    +0.000 A 
ATOM      6  N   UNL     1       2.355  14.060  18.764  0.00  0.00    +0.000 N 
ATOM      7  C   UNL     1       2.150  15.017  19.711  0.00  0.00    +0.000 C 
ATOM      8  O   UNL     1       3.038  15.854  19.855  0.00  0.00    +0.000 OA
ATOM      9  N   UNL     1       1.082  15.099  20.588  0.00  0.00    +0.000 N 
ATOM     10  N   UNL     1       2.391  11.673  18.109  0.00  0.00    +0.000 NA
ATOM     11  H   UNL     1       3.337  13.909  18.583  0.00  0.00    +0.000 HD
ATOM     12  H   UNL     1       1.013  15.954  21.132  0.00  0.00    +0.000 HD
ENDROOT
BRANCH   9  13
ATOM     13  S   UNL     1      -0.148  14.064  20.912  0.00  0.00    +0.000 S 
ATOM     14  O   UNL     1      -1.208  14.317  19.961  0.00  0.00    +0.000 OA
ATOM     15  O   UNL     1       0.422  12.742  20.859  0.00  0.00    +0.000 OA
BRANCH  13  16
ATOM     16  C   UNL     1      -0.858  14.652  22.571  0.00  0.00    +0.000 A 
ATOM     17  C   UNL     1      -1.818  13.953  23.338  0.00  0.00    +0.000 A 
ATOM     18  N   UNL     1      -2.038  14.358  24.649  0.00  0.00    +0.000 NA
ATOM     19  C   UNL     1      -1.230  15.347  24.910  0.00  0.00    +0.000 A 
ATOM     20  C   UNL     1      -0.831  16.254  26.369  0.00  0.00    +0.000 A 
ATOM     21  C   UNL     1       0.145  17.463  26.425  0.00  0.00    +0.000 A 
ATOM     22  C   UNL     1       0.867  18.292  24.891  0.00  0.00    +0.000 A 
ATOM     23  C   UNL     1       0.456  17.679  23.398  0.00  0.00    +0.000 A 
ATOM     24  N   UNL     1      -0.609  15.958  23.355  0.00  0.00    +0.000 N 
BRANCH  17  25
ATOM     25  S   UNL     1      -2.708  12.520  22.789  0.00  0.00    +0.000 S 
ATOM     26  C   UNL     1      -1.553  11.185  23.163  0.00  0.00    +0.000 C 
ENDBRANCH  17  25
ENDBRANCH  13  16
ENDBRANCH   9  13
BRANCH   1  28
ATOM     27  C   UNL     1       2.715   8.089  17.890  0.00  0.00    +0.000 C 
ATOM     28  O   UNL     1       2.210   9.300  17.413  0.00  0.00    +0.000 OA
ENDBRANCH   1  28
BRANCH   3  29
ATOM     29  O   UNL     1      -2.382  12.203  19.231  0.00  0.00    +0.000 OA
ATOM     30  C   UNL     1      -3.509  11.789  18.513  0.00  0.00    +0.000 C 
ENDBRANCH   3  29
TORSDOF 5
ENDMDL
MODEL 5
REMARK VINA RESULT:      -5.7      2.472      4.418
REMARK  Name = 
REMARK  8 active torsions:
REMARK  status: ('A' for Active; 'I' for Inactive)
REMARK    1  A    between atoms: C_1  and  O_2
REMARK    2  A    between atoms: O_2  and  C_3
REMARK    3  A    between atoms: C_5  and  O_6
REMARK    4  A    between atoms: O_6  and  C_7
REMARK    5  A    between atoms: N_13  and  S_14
REMARK    6  A    between atoms: S_14  and  C_17
REMARK    7  A    between atoms: C_18  and  S_19
REMARK    8  A    between atoms: S_19  and  C_20
REMARK                            x       y       z     vdW  Elec       q    Type
REMARK                         _______ _______ _______ _____ _____    ______ ____
ROOT
ATOM      1  C   UNL     1       2.008   7.802  19.282  0.00  0.00    +0.000 A 
ATOM      2  C   UNL     1       1.959   9.308  17.905  0.00  0.00    +0.000 A 
ATOM      3  C   UNL     1       1.668  10.920  18.588  0.00  0.00    +0.000 A 
ATOM      4  N   UNL     1       1.357  10.998  20.285  0.00  0.00    +0.000 NA
ATOM      5  C   UNL     1       1.243   9.656  21.303  0.00  0.00    +0.000 A 
ATOM      6  N   UNL     1       0.296   9.663  22.325  0.00  0.00    +0.000 N 
ATOM      7  C   UNL     1      -0.818  10.415  22.543  0.00  0.00    +0.000 C 
ATOM      8  O   UNL     1      -1.382  10.273  23.625  0.00  0.00    +0.000 OA
ATOM      9  N   UNL     1      -1.433  11.265  21.639  0.00  0.00    +0.000 N 
ATOM     10  N   UNL     1       1.582   8.112  20.887  0.00  0.00    +0.000 NA
ATOM     11  H   UNL     1       0.299   8.819  22.880  0.00  0.00    +0.000 HD
ATOM     12  H   UNL     1      -2.171  11.856  22.008  0.00  0.00    +0.000 HD
ENDROOT
BRANCH   9  13
ATOM     13  S   UNL     1      -1.177  11.531  20.041  0.00  0.00    +0.000 S 
ATOM     14  O   UNL     1      -0.417  12.755  19.907  0.00  0.00    +0.000 OA
ATOM     15  O   UNL     1      -0.528  10.347  19.540  0.00  0.00    +0.000 OA
BRANCH  13  16
ATOM     16  C   UNL     1      -2.886  11.964  19.337  0.00  0.00    +0.000 A 
ATOM     17  C   UNL     1      -3.330  11.651  18.032  0.00  0.00    +0.000 A 
ATOM     18  N   UNL     1      -4.685  11.778  17.747  0.00  0.00    +0.000 NA
ATOM     19  C   UNL     1      -5.294  12.158  18.835  0.00  0.00    +0.000 A 
ATOM     20  C   UNL     1      -6.987  12.374  19.283  0.00  0.00    +0.000 A 
ATOM     21  C   UNL     1      -7.482  12.908  20.656  0.00  0.00    +0.000 A 
ATOM     22  C   UNL     1      -6.335  13.632  21.968  0.00  0.00    +0.000 A 
ATOM     23  C   UNL     1      -4.702  13.678  21.647  0.00  0.00    +0.000 A 
ATOM     24  N   UNL     1      -4.053  12.752  19.967  0.00  0.00    +0.000 N 
BRANCH  17  25
ATOM     25  S   UNL     1      -2.304  11.007  16.736  0.00  0.00    +0.000 S 
ATOM     26  C   UNL     1      -3.458  10.896  15.353  0.00  0.00    +0.000 C 
ENDBRANCH  17  25
ENDBRANCH  13  16
ENDBRANCH   9  13
BRANCH   1  28
ATOM     27  C   UNL     1       2.779   5.589  18.566  0.00  0.00    +0.000 C 
ATOM     28  O   UNL     1       2.950   6.738  19.342  0.00  0.00    +0.000 OA
ENDBRANCH   1  28
BRANCH   3  29
ATOM     29  O   UNL     1       1.403  12.078  17.960  0.00  0.00    +0.000 OA
ATOM     30  C   UNL     1       2.397  13.062  17.942  0.00  0.00    +0.000 C 
ENDBRANCH   3  29
TORSDOF 5
ENDMDL
MODEL 6
REMARK VINA RESULT:      -5.6      3.323      6.780
REMARK  Name = 
REMARK  8 active torsions:
REMARK  status: ('A' for Active; 'I' for Inactive)
REMARK    1  A    between atoms: C_1  and  O_2
REMARK    2  A    between atoms: O_2  and  C_3
REMARK    3  A    between atoms: C_5  and  O_6
REMARK    4  A    between atoms: O_6  and  C_7
REMARK    5  A    between atoms: N_13  and  S_14
REMARK    6  A    between atoms: S_14  and  C_17
REMARK    7  A    between atoms: C_18  and  S_19
REMARK    8  A    between atoms: S_19  and  C_20
REMARK                            x       y       z     vdW  Elec       q    Type
REMARK                         _______ _______ _______ _____ _____    ______ ____
ROOT
ATOM      1  C   UNL     1      -1.700  10.771  17.719  0.00  0.00    +0.000 A 
ATOM      2  C   UNL     1      -1.113  12.726  17.767  0.00  0.00    +0.000 A 
ATOM      3  C   UNL     1       0.070  13.108  19.034  0.00  0.00    +0.000 A 
ATOM      4  N   UNL     1       0.485  11.829  20.118  0.00  0.00    +0.000 NA
ATOM      5  C   UNL     1      -0.205  10.288  20.094  0.00  0.00    +0.000 A 
ATOM      6  N   UNL     1      -0.459   9.644  21.303  0.00  0.00    +0.000 N 
ATOM      7  C   UNL     1      -0.553  10.094  22.585  0.00  0.00    +0.000 C 
ATOM      8  O   UNL     1      -0.653   9.245  23.466  0.00  0.00    +0.000 OA
ATOM      9  N   UNL     1      -0.630  11.415  22.994  0.00  0.00    +0.000 N 
ATOM     10  N   UNL     1      -1.223   9.717  18.949  0.00  0.00    +0.000 NA
ATOM     11  H   UNL     1      -0.874   8.730  21.191  0.00  0.00    +0.000 HD
ATOM     12  H   UNL     1      -0.552  11.580  23.993  0.00  0.00    +0.000 HD
ENDROOT
BRANCH   9  13
ATOM     13  S   UNL     1      -0.803  12.812  22.153  0.00  0.00    +0.000 S 
ATOM     14  O   UNL     1       0.515  13.269  21.770  0.00  0.00    +0.000 OA
ATOM     15  O   UNL     1      -1.690  12.509  21.060  0.00  0.00    +0.000 OA
BRANCH  13  16
ATOM     16  C   UNL     1      -1.385  14.086  23.434  0.00  0.00    +0.000 A 
ATOM     17  C   UNL     1      -2.558  13.975  24.215  0.00  0.00    +0.000 A 
ATOM     18  N   UNL     1      -2.714  14.832  25.298  0.00  0.00    +0.000 NA
ATOM     19  C   UNL     1      -1.652  15.583  25.377  0.00  0.00    +0.000 A 
ATOM     20  C   UNL     1      -1.071  16.768  26.548  0.00  0.00    +0.000 A 
ATOM     21  C   UNL     1       0.231  17.604  26.395  0.00  0.00    +0.000 A 
ATOM     22  C   UNL     1       1.263  17.646  24.816  0.00  0.00    +0.000 A 
ATOM     23  C   UNL     1       0.766  16.719  23.525  0.00  0.00    +0.000 A 
ATOM     24  N   UNL     1      -0.783  15.451  23.827  0.00  0.00    +0.000 N 
BRANCH  17  25
ATOM     25  S   UNL     1      -3.821  12.752  23.983  0.00  0.00    +0.000 S 
ATOM     26  C   UNL     1      -4.792  13.455  22.633  0.00  0.00    +0.000 C 
ENDBRANCH  17  25
ENDBRANCH  13  16
ENDBRANCH   9  13
BRANCH   1  28
ATOM     27  C   UNL     1      -2.751  10.303  15.556  0.00  0.00    +0.000 C 
ATOM     28  O   UNL     1      -1.845   9.958  16.561  0.00  0.00    +0.000 OA
ENDBRANCH   1  28
BRANCH   3  29
ATOM     29  O   UNL     1       0.520  14.303  19.450  0.00  0.00    +0.000 OA
ATOM     30  C   UNL     1       1.624  14.859  18.794  0.00  0.00    +0.000 C 
ENDBRANCH   3  29
TORSDOF 5
ENDMDL
MODEL 7
REMARK VINA RESULT:      -5.5      2.745      4.734
REMARK  Name = 
REMARK  8 active torsions:
REMARK  status: ('A' for Active; 'I' for Inactive)
REMARK    1  A    between atoms: C_1  and  O_2
REMARK    2  A    between atoms: O_2  and  C_3
REMARK    3  A    between atoms: C_5  and  O_6
REMARK    4  A    between atoms: O_6  and  C_7
REMARK    5  A    between atoms: N_13  and  S_14
REMARK    6  A    between atoms: S_14  and  C_17
REMARK    7  A    between atoms: C_18  and  S_19
REMARK    8  A    between atoms: S_19  and  C_20
REMARK                            x       y       z     vdW  Elec       q    Type
REMARK                         _______ _______ _______ _____ _____    ______ ____
ROOT
ATOM      1  C   UNL     1       2.086   7.651  18.837  0.00  0.00    +0.000 A 
ATOM      2  C   UNL     1       1.801   9.321  17.696  0.00  0.00    +0.000 A 
ATOM      3  C   UNL     1       1.664  10.829  18.621  0.00  0.00    +0.000 A 
ATOM      4  N   UNL     1       1.678  10.687  20.342  0.00  0.00    +0.000 NA
ATOM      5  C   UNL     1       1.738   9.225  21.184  0.00  0.00    +0.000 A 
ATOM      6  N   UNL     1       0.999   9.092  22.358  0.00  0.00    +0.000 N 
ATOM      7  C   UNL     1      -0.044   9.798  22.875  0.00  0.00    +0.000 C 
ATOM      8  O   UNL     1      -0.397   9.513  24.016  0.00  0.00    +0.000 OA
ATOM      9  N   UNL     1      -0.805  10.750  22.217  0.00  0.00    +0.000 N 
ATOM     10  N   UNL     1       1.972   7.750  20.519  0.00  0.00    +0.000 NA
ATOM     11  H   UNL     1       1.094   8.184  22.791  0.00  0.00    +0.000 HD
ATOM     12  H   UNL     1      -1.453  11.282  22.791  0.00  0.00    +0.000 HD
ENDROOT
BRANCH   9  13
ATOM     13  S   UNL     1      -0.850  11.221  20.647  0.00  0.00    +0.000 S 
ATOM     14  O   UNL     1       0.050  12.344  20.491  0.00  0.00    +0.000 OA
ATOM     15  O   UNL     1      -0.514  10.053  19.873  0.00  0.00    +0.000 OA
BRANCH  13  16
ATOM     16  C   UNL     1      -2.577  11.969  20.409  0.00  0.00    +0.000 A 
ATOM     17  C   UNL     1      -3.289  11.998  19.187  0.00  0.00    +0.000 A 
ATOM     18  N   UNL     1      -4.641  12.322  19.218  0.00  0.00    +0.000 NA
ATOM     19  C   UNL     1      -4.984  12.512  20.461  0.00  0.00    +0.000 A 
ATOM     20  C   UNL     1      -6.520  12.795  21.281  0.00  0.00    +0.000 A 
ATOM     21  C   UNL     1      -6.679  13.061  22.804  0.00  0.00    +0.000 A 
ATOM     22  C   UNL     1      -5.224  13.357  23.968  0.00  0.00    +0.000 A 
ATOM     23  C   UNL     1      -3.685  13.307  23.333  0.00  0.00    +0.000 A 
ATOM     24  N   UNL     1      -3.488  12.714  21.408  0.00  0.00    +0.000 N 
BRANCH  17  25
ATOM     25  S   UNL     1      -2.615  11.555  17.608  0.00  0.00    +0.000 S 
ATOM     26  C   UNL     1      -3.125   9.832  17.443  0.00  0.00    +0.000 C 
ENDBRANCH  17  25
ENDBRANCH  13  16
ENDBRANCH   9  13
BRANCH   1  28
ATOM     27  C   UNL     1       2.563   5.356  18.127  0.00  0.00    +0.000 C 
ATOM     28  O   UNL     1       3.007   6.599  18.583  0.00  0.00    +0.000 OA
ENDBRANCH   1  28
BRANCH   3  29
ATOM     29  O   UNL     1       1.303  12.055  18.207  0.00  0.00    +0.000 OA
ATOM     30  C   UNL     1       2.306  13.011  18.015  0.00  0.00    +0.000 C 
ENDBRANCH   3  29
TORSDOF 5
ENDMDL
MODEL 8
REMARK VINA RESULT:      -5.5      1.219      1.246
REMARK  Name = 
REMARK  8 active torsions:
REMARK  status: ('A' for Active; 'I' for Inactive)
REMARK    1  A    between atoms: C_1  and  O_2
REMARK    2  A    between atoms: O_2  and  C_3
REMARK    3  A    between atoms: C_5  and  O_6
REMARK    4  A    between atoms: O_6  and  C_7
REMARK    5  A    between atoms: N_13  and  S_14
REMARK    6  A    between atoms: S_14  and  C_17
REMARK    7  A    between atoms: C_18  and  S_19
REMARK    8  A    between atoms: S_19  and  C_20
REMARK                            x       y       z     vdW  Elec       q    Type
REMARK                         _______ _______ _______ _____ _____    ______ ____
ROOT
ATOM      1  C   UNL     1       2.499  15.272  19.071  0.00  0.00    +0.000 A 
ATOM      2  C   UNL     1       0.744  16.239  19.466  0.00  0.00    +0.000 A 
ATOM      3  C   UNL     1      -0.326  15.387  20.596  0.00  0.00    +0.000 A 
ATOM      4  N   UNL     1       0.189  13.826  21.125  0.00  0.00    +0.000 NA
ATOM      5  C   UNL     1       1.585  13.043  20.589  0.00  0.00    +0.000 A 
ATOM      6  N   UNL     1       1.550  11.664  20.390  0.00  0.00    +0.000 N 
ATOM      7  C   UNL     1       0.525  10.780  20.244  0.00  0.00    +0.000 C 
ATOM      8  O   UNL     1       0.818   9.588  20.220  0.00  0.00    +0.000 OA
ATOM      9  N   UNL     1      -0.809  11.087  20.035  0.00  0.00    +0.000 N 
ATOM     10  N   UNL     1       2.742  13.700  19.640  0.00  0.00    +0.000 NA
ATOM     11  H   UNL     1       2.429  11.284  20.066  0.00  0.00    +0.000 HD
ATOM     12  H   UNL     1      -1.462  10.311  20.090  0.00  0.00    +0.000 HD
ENDROOT
BRANCH   9  13
ATOM     13  S   UNL     1      -1.570  12.509  19.734  0.00  0.00    +0.000 S 
ATOM     14  O   UNL     1      -1.827  13.156  21.002  0.00  0.00    +0.000 OA
ATOM     15  O   UNL     1      -0.709  13.236  18.836  0.00  0.00    +0.000 OA
BRANCH  13  16
ATOM     16  C   UNL     1      -3.291  12.018  19.101  0.00  0.00    +0.000 A 
ATOM     17  C   UNL     1      -3.548  11.349  17.883  0.00  0.00    +0.000 A 
ATOM     18  N   UNL     1      -4.814  10.811  17.680  0.00  0.00    +0.000 NA
ATOM     19  C   UNL     1      -5.525  11.033  18.748  0.00  0.00    +0.000 A 
ATOM     20  C   UNL     1      -7.130  10.530  19.282  0.00  0.00    +0.000 A 
ATOM     21  C   UNL     1      -7.810  10.982  20.605  0.00  0.00    +0.000 A 
ATOM     22  C   UNL     1      -7.113  12.329  21.727  0.00  0.00    +0.000 A 
ATOM     23  C   UNL     1      -5.680  13.056  21.289  0.00  0.00    +0.000 A 
ATOM     24  N   UNL     1      -4.687  12.282  19.703  0.00  0.00    +0.000 N 
BRANCH  17  25
ATOM     25  S   UNL     1      -2.345  11.050  16.614  0.00  0.00    +0.000 S 
ATOM     26  C   UNL     1      -3.368  10.464  15.247  0.00  0.00    +0.000 C 
ENDBRANCH  17  25
ENDBRANCH  13  16
ENDBRANCH   9  13
BRANCH   1  28
ATOM     27  C   UNL     1       4.232  16.722  20.019  0.00  0.00    +0.000 C 
ATOM     28  O   UNL     1       3.794  15.857  19.014  0.00  0.00    +0.000 OA
ENDBRANCH   1  28
BRANCH   3  29
ATOM     29  O   UNL     1      -1.602  15.649  20.925  0.00  0.00    +0.000 OA
ATOM     30  C   UNL     1      -1.994  16.987  21.041  0.00  0.00    +0.000 C 
ENDBRANCH   3  29
TORSDOF 5
ENDMDL
MODEL 9
REMARK VINA RESULT:      -5.5      1.344      1.568
REMARK  Name = 
REMARK  8 active torsions:
REMARK  status: ('A' for Active; 'I' for Inactive)
REMARK    1  A    between atoms: C_1  and  O_2
REMARK    2  A    between atoms: O_2  and  C_3
REMARK    3  A    between atoms: C_5  and  O_6
REMARK    4  A    between atoms: O_6  and  C_7
REMARK    5  A    between atoms: N_13  and  S_14
REMARK    6  A    between atoms: S_14  and  C_17
REMARK    7  A    between atoms: C_18  and  S_19
REMARK    8  A    between atoms: S_19  and  C_20
REMARK                            x       y       z     vdW  Elec       q    Type
REMARK                         _______ _______ _______ _____ _____    ______ ____
ROOT
ATOM      1  C   UNL     1       2.474  15.043  18.276  0.00  0.00    +0.000 A 
ATOM      2  C   UNL     1       1.166  16.097  19.437  0.00  0.00    +0.000 A 
ATOM      3  C   UNL     1       0.420  15.156  20.744  0.00  0.00    +0.000 A 
ATOM      4  N   UNL     1       0.802  13.472  20.802  0.00  0.00    +0.000 NA
ATOM      5  C   UNL     1       1.762  12.666  19.672  0.00  0.00    +0.000 A 
ATOM      6  N   UNL     1       1.417  11.369  19.297  0.00  0.00    +0.000 N 
ATOM      7  C   UNL     1       0.265  10.653  19.413  0.00  0.00    +0.000 C 
ATOM      8  O   UNL     1       0.316   9.465  19.103  0.00  0.00    +0.000 OA
ATOM      9  N   UNL     1      -0.981  11.141  19.767  0.00  0.00    +0.000 N 
ATOM     10  N   UNL     1       2.616  13.371  18.470  0.00  0.00    +0.000 NA
ATOM     11  H   UNL     1       2.046  10.968  18.615  0.00  0.00    +0.000 HD
ATOM     12  H   UNL     1      -1.702  10.448  19.944  0.00  0.00    +0.000 HD
ENDROOT
BRANCH   9  13
ATOM     13  S   UNL     1      -1.534  12.669  19.988  0.00  0.00    +0.000 S 
ATOM     14  O   UNL     1      -1.285  13.041  21.364  0.00  0.00    +0.000 OA
ATOM     15  O   UNL     1      -0.866  13.479  19.002  0.00  0.00    +0.000 OA
BRANCH  13  16
ATOM     16  C   UNL     1      -3.424  12.527  19.878  0.00  0.00    +0.000 A 
ATOM     17  C   UNL     1      -4.132  11.916  18.817  0.00  0.00    +0.000 A 
ATOM     18  N   UNL     1      -5.482  11.638  18.998  0.00  0.00    +0.000 NA
ATOM     19  C   UNL     1      -5.812  12.002  20.205  0.00  0.00    +0.000 A 
ATOM     20  C   UNL     1      -7.270  11.829  21.184  0.00  0.00    +0.000 A 
ATOM     21  C   UNL     1      -7.456  12.413  22.613  0.00  0.00    +0.000 A 
ATOM     22  C   UNL     1      -6.233  13.601  23.421  0.00  0.00    +0.000 A 
ATOM     23  C   UNL     1      -4.868  14.026  22.567  0.00  0.00    +0.000 A 
ATOM     24  N   UNL     1      -4.521  13.065  20.820  0.00  0.00    +0.000 N 
BRANCH  17  25
ATOM     25  S   UNL     1      -3.409  11.379  17.289  0.00  0.00    +0.000 S 
ATOM     26  C   UNL     1      -3.192   9.610  17.569  0.00  0.00    +0.000 C 
ENDBRANCH  17  25
ENDBRANCH  13  16
ENDBRANCH   9  13
BRANCH   1  28
ATOM     27  C   UNL     1       4.666  16.044  18.719  0.00  0.00    +0.000 C 
ATOM     28  O   UNL     1       3.750  15.480  17.828  0.00  0.00    +0.000 OA
ENDBRANCH   1  28
BRANCH   3  29
ATOM     29  O   UNL     1      -0.594  15.484  21.561  0.00  0.00    +0.000 OA
ATOM     30  C   UNL     1      -0.376  16.479  22.520  0.00  0.00    +0.000 C 
ENDBRANCH   3  29
TORSDOF 5
ENDMDL
