MODEL 1
REMARK VINA RESULT:      -8.2      0.000      0.000
REMARK  Name = 
REMARK  8 active torsions:
REMARK  status: ('A' for Active; 'I' for Inactive)
REMARK    1  A    between atoms: C_1  and  C_2
REMARK    2  A    between atoms: C_2  and  C_3
REMARK    3  A    between atoms: C_6  and  O_7
REMARK    4  A    between atoms: O_7  and  C_8
REMARK    5  A    between atoms: C_8  and  C_9
REMARK    6  A    between atoms: C_21  and  N_22
REMARK    7  A    between atoms: N_22  and  C_23
REMARK    8  A    between atoms: C_24  and  C_26
REMARK                            x       y       z     vdW  Elec       q    Type
REMARK                         _______ _______ _______ _____ _____    ______ ____
ROOT
ATOM      1  C   UNL     1       0.872   9.366  21.643  0.00  0.00    +0.000 A 
ATOM      2  N   UNL     1       1.492   8.181  21.393  0.00  0.00    +0.000 NA
ATOM      3  C   UNL     1       1.782   8.171  20.117  0.00  0.00    +0.000 A 
ATOM      4  C   UNL     1       2.367   7.122  19.332  0.00  0.00    +0.000 A 
ATOM      5  C   UNL     1       2.637   7.346  18.035  0.00  0.00    +0.000 A 
ATOM      6  C   UNL     1       2.252   8.588  17.395  0.00  0.00    +0.000 A 
ATOM      7  C   UNL     1       1.612   9.534  18.109  0.00  0.00    +0.000 A 
ATOM      8  N   UNL     1       1.402   9.368  19.487  0.00  0.00    +0.000 N 
ATOM      9  C   UNL     1       0.761  10.150  20.483  0.00  0.00    +0.000 A 
ENDROOT
BRANCH   9  10
ATOM     10  N   UNL     1       0.065  11.391  20.331  0.00  0.00    +0.000 N 
ATOM     11  C   UNL     1      -1.314  11.350  19.829  0.00  0.00    +0.000 C 
ATOM     12  C   UNL     1       0.618  12.593  20.831  0.00  0.00    +0.000 C 
ATOM     13  O   UNL     1       1.702  12.690  21.411  0.00  0.00    +0.000 OA
BRANCH  12  14
ATOM     14  C   UNL     1      -0.098  13.899  20.677  0.00  0.00    +0.000 A 
ATOM     15  C   UNL     1      -0.965  14.318  21.703  0.00  0.00    +0.000 A 
ATOM     16  C   UNL     1      -1.703  15.503  21.578  0.00  0.00    +0.000 A 
ATOM     17  C   UNL     1      -1.577  16.290  20.434  0.00  0.00    +0.000 A 
ATOM     18  C   UNL     1      -0.747  15.869  19.400  0.00  0.00    +0.000 A 
ATOM     19  C   UNL     1      -0.049  14.664  19.511  0.00  0.00    +0.000 A 
ATOM     20  F   UNL     1       0.655  14.258  18.447  0.00  0.00    +0.000 F 
ENDBRANCH  12  14
ENDBRANCH   9  10
BRANCH   1  22
ATOM     21  C   UNL     1      -0.966  10.050  23.199  0.00  0.00    +0.000 C 
ATOM     22  C   UNL     1       0.473   9.563  23.070  0.00  0.00    +0.000 C 
ENDBRANCH   1  22
BRANCH   4  23
ATOM     23  O   UNL     1       2.628   5.873  19.890  0.00  0.00    +0.000 OA
BRANCH  23  24
ATOM     24  C   UNL     1       2.811   4.803  18.953  0.00  0.00    +0.000 C 
BRANCH  24  25
ATOM     25  C   UNL     1       4.235   4.722  18.447  0.00  0.00    +0.000 A 
ATOM     26  C   UNL     1       4.473   4.290  17.129  0.00  0.00    +0.000 A 
ATOM     27  C   UNL     1       5.766   4.275  16.611  0.00  0.00    +0.000 A 
ATOM     28 CL   UNL     1       6.031   3.744  14.998  0.00  0.00    +0.000 Cl
ATOM     29  C   UNL     1       6.840   4.695  17.389  0.00  0.00    +0.000 A 
ATOM     30  C   UNL     1       6.609   5.141  18.689  0.00  0.00    +0.000 A 
ATOM     31 CL   UNL     1       7.930   5.686  19.648  0.00  0.00    +0.000 Cl
ATOM     32  C   UNL     1       5.319   5.165  19.217  0.00  0.00    +0.000 A 
ENDBRANCH  24  25
ENDBRANCH  23  24
ENDBRANCH   4  23
TORSDOF 6
ENDMDL
MODEL 2
REMARK VINA RESULT:      -8.1      0.264      1.615
REMARK  Name = 
REMARK  8 active torsions:
REMARK  status: ('A' for Active; 'I' for Inactive)
REMARK    1  A    between atoms: C_1  and  C_2
REMARK    2  A    between atoms: C_2  and  C_3
REMARK    3  A    between atoms: C_6  and  O_7
REMARK    4  A    between atoms: O_7  and  C_8
REMARK    5  A    between atoms: C_8  and  C_9
REMARK    6  A    between atoms: C_21  and  N_22
REMARK    7  A    between atoms: N_22  and  C_23
REMARK    8  A    between atoms: C_24  and  C_26
REMARK                            x       y       z     vdW  Elec       q    Type
REMARK                         _______ _______ _______ _____ _____    ______ ____
ROOT
ATOM      1  C   UNL     1       0.653   9.482  21.680  0.00  0.00    +0.000 A 
ATOM      2  N   UNL     1       1.304   8.317  21.418  0.00  0.00    +0.000 NA
ATOM      3  C   UNL     1       1.637   8.349  20.153  0.00  0.00    +0.000 A 
ATOM      4  C   UNL     1       2.269   7.333  19.360  0.00  0.00    +0.000 A 
ATOM      5  C   UNL     1       2.578   7.599  18.080  0.00  0.00    +0.000 A 
ATOM      6  C   UNL     1       2.190   8.851  17.461  0.00  0.00    +0.000 A 
ATOM      7  C   UNL     1       1.508   9.764  18.179  0.00  0.00    +0.000 A 
ATOM      8  N   UNL     1       1.255   9.556  19.544  0.00  0.00    +0.000 N 
ATOM      9  C   UNL     1       0.565  10.297  20.539  0.00  0.00    +0.000 A 
ENDROOT
BRANCH   9  10
ATOM     10  N   UNL     1      -0.150  11.528  20.397  0.00  0.00    +0.000 N 
ATOM     11  C   UNL     1      -1.527  11.471  19.892  0.00  0.00    +0.000 C 
ATOM     12  C   UNL     1       0.384  12.734  20.910  0.00  0.00    +0.000 C 
ATOM     13  O   UNL     1       1.465  12.842  21.493  0.00  0.00    +0.000 OA
BRANCH  12  14
ATOM     14  C   UNL     1      -0.352  14.030  20.767  0.00  0.00    +0.000 A 
ATOM     15  C   UNL     1      -1.321  14.366  21.731  0.00  0.00    +0.000 A 
ATOM     16  C   UNL     1      -2.078  15.539  21.608  0.00  0.00    +0.000 A 
ATOM     17  C   UNL     1      -1.871  16.397  20.529  0.00  0.00    +0.000 A 
ATOM     18  C   UNL     1      -0.938  16.059  19.553  0.00  0.00    +0.000 A 
ATOM     19  C   UNL     1      -0.219  14.866  19.657  0.00  0.00    +0.000 A 
ATOM     20  F   UNL     1       0.591  14.542  18.642  0.00  0.00    +0.000 F 
ENDBRANCH  12  14
ENDBRANCH   9  10
BRANCH   1  22
ATOM     21  C   UNL     1      -1.115  10.394  23.201  0.00  0.00    +0.000 C 
ATOM     22  C   UNL     1       0.203   9.632  23.097  0.00  0.00    +0.000 C 
ENDBRANCH   1  22
BRANCH   4  23
ATOM     23  O   UNL     1       2.536   6.075  19.892  0.00  0.00    +0.000 OA
BRANCH  23  24
ATOM     24  C   UNL     1       2.683   5.017  18.935  0.00  0.00    +0.000 C 
BRANCH  24  25
ATOM     25  C   UNL     1       4.086   4.946  18.372  0.00  0.00    +0.000 A 
ATOM     26  C   UNL     1       5.175   5.299  19.192  0.00  0.00    +0.000 A 
ATOM     27  C   UNL     1       6.482   5.174  18.727  0.00  0.00    +0.000 A 
ATOM     28 CL   UNL     1       7.794   5.611  19.747  0.00  0.00    +0.000 Cl
ATOM     29  C   UNL     1       6.728   4.692  17.445  0.00  0.00    +0.000 A 
ATOM     30  C   UNL     1       5.656   4.324  16.635  0.00  0.00    +0.000 A 
ATOM     31 CL   UNL     1       5.956   3.702  15.059  0.00  0.00    +0.000 Cl
ATOM     32  C   UNL     1       4.344   4.439  17.092  0.00  0.00    +0.000 A 
ENDBRANCH  24  25
ENDBRANCH  23  24
ENDBRANCH   4  23
TORSDOF 6
ENDMDL
MODEL 3
REMARK VINA RESULT:      -7.8      4.655      9.706
REMARK  Name = 
REMARK  8 active torsions:
REMARK  status: ('A' for Active; 'I' for Inactive)
REMARK    1  A    between atoms: C_1  and  C_2
REMARK    2  A    between atoms: C_2  and  C_3
REMARK    3  A    between atoms: C_6  and  O_7
REMARK    4  A    between atoms: O_7  and  C_8
REMARK    5  A    between atoms: C_8  and  C_9
REMARK    6  A    between atoms: C_21  and  N_22
REMARK    7  A    between atoms: N_22  and  C_23
REMARK    8  A    between atoms: C_24  and  C_26
REMARK                            x       y       z     vdW  Elec       q    Type
REMARK                         _______ _______ _______ _____ _____    ______ ____
ROOT
ATOM      1  C   UNL     1       2.052   6.263  20.269  0.00  0.00    +0.000 A 
ATOM      2  N   UNL     1       1.366   7.258  20.893  0.00  0.00    +0.000 NA
ATOM      3  C   UNL     1       1.344   8.273  20.068  0.00  0.00    +0.000 A 
ATOM      4  C   UNL     1       0.815   9.592  20.274  0.00  0.00    +0.000 A 
ATOM      5  C   UNL     1       0.844  10.474  19.262  0.00  0.00    +0.000 A 
ATOM      6  C   UNL     1       1.491  10.151  18.005  0.00  0.00    +0.000 A 
ATOM      7  C   UNL     1       2.075   8.947  17.848  0.00  0.00    +0.000 A 
ATOM      8  N   UNL     1       1.978   7.971  18.852  0.00  0.00    +0.000 N 
ATOM      9  C   UNL     1       2.487   6.653  18.991  0.00  0.00    +0.000 A 
ENDROOT
BRANCH   9  10
ATOM     10  N   UNL     1       3.337   5.927  18.097  0.00  0.00    +0.000 N 
ATOM     11  C   UNL     1       2.828   4.672  17.530  0.00  0.00    +0.000 C 
ATOM     12  C   UNL     1       4.542   6.498  17.627  0.00  0.00    +0.000 C 
ATOM     13  O   UNL     1       4.965   7.616  17.930  0.00  0.00    +0.000 OA
BRANCH  12  14
ATOM     14  C   UNL     1       5.442   5.750  16.693  0.00  0.00    +0.000 A 
ATOM     15  C   UNL     1       5.187   5.818  15.311  0.00  0.00    +0.000 A 
ATOM     16  C   UNL     1       5.964   5.087  14.402  0.00  0.00    +0.000 A 
ATOM     17  C   UNL     1       7.012   4.288  14.859  0.00  0.00    +0.000 A 
ATOM     18  C   UNL     1       7.253   4.188  16.226  0.00  0.00    +0.000 A 
ATOM     19  C   UNL     1       6.446   4.883  17.129  0.00  0.00    +0.000 A 
ATOM     20  F   UNL     1       6.657   4.673  18.435  0.00  0.00    +0.000 F 
ENDBRANCH  12  14
ENDBRANCH   9  10
BRANCH   1  22
ATOM     21  C   UNL     1       1.119   3.973  20.664  0.00  0.00    +0.000 C 
ATOM     22  C   UNL     1       2.171   5.003  21.064  0.00  0.00    +0.000 C 
ENDBRANCH   1  22
BRANCH   4  23
ATOM     23  O   UNL     1       0.305   9.972  21.512  0.00  0.00    +0.000 OA
BRANCH  23  24
ATOM     24  C   UNL     1       0.128  11.382  21.702  0.00  0.00    +0.000 C 
BRANCH  24  25
ATOM     25  C   UNL     1      -1.332  11.767  21.803  0.00  0.00    +0.000 A 
ATOM     26  C   UNL     1      -1.911  11.942  23.074  0.00  0.00    +0.000 A 
ATOM     27  C   UNL     1      -3.231  12.367  23.199  0.00  0.00    +0.000 A 
ATOM     28 CL   UNL     1      -3.915  12.575  24.762  0.00  0.00    +0.000 Cl
ATOM     29  C   UNL     1      -3.995  12.631  22.066  0.00  0.00    +0.000 A 
ATOM     30  C   UNL     1      -3.422  12.477  20.805  0.00  0.00    +0.000 A 
ATOM     31 CL   UNL     1      -4.354  12.826  19.400  0.00  0.00    +0.000 Cl
ATOM     32  C   UNL     1      -2.100  12.057  20.668  0.00  0.00    +0.000 A 
ENDBRANCH  24  25
ENDBRANCH  23  24
ENDBRANCH   4  23
TORSDOF 6
ENDMDL
MODEL 4
REMARK VINA RESULT:      -7.8      4.619      9.572
REMARK  Name = 
REMARK  8 active torsions:
REMARK  status: ('A' for Active; 'I' for Inactive)
REMARK    1  A    between atoms: C_1  and  C_2
REMARK    2  A    between atoms: C_2  and  C_3
REMARK    3  A    between atoms: C_6  and  O_7
REMARK    4  A    between atoms: O_7  and  C_8
REMARK    5  A    between atoms: C_8  and  C_9
REMARK    6  A    between atoms: C_21  and  N_22
REMARK    7  A    between atoms: N_22  and  C_23
REMARK    8  A    between atoms: C_24  and  C_26
REMARK                            x       y       z     vdW  Elec       q    Type
REMARK                         _______ _______ _______ _____ _____    ______ ____
ROOT
ATOM      1  C   UNL     1       2.014   6.365  20.287  0.00  0.00    +0.000 A 
ATOM      2  N   UNL     1       1.333   7.376  20.891  0.00  0.00    +0.000 NA
ATOM      3  C   UNL     1       1.332   8.380  20.051  0.00  0.00    +0.000 A 
ATOM      4  C   UNL     1       0.816   9.707  20.233  0.00  0.00    +0.000 A 
ATOM      5  C   UNL     1       0.866  10.575  19.208  0.00  0.00    +0.000 A 
ATOM      6  C   UNL     1       1.522  10.226  17.963  0.00  0.00    +0.000 A 
ATOM      7  C   UNL     1       2.093   9.013  17.830  0.00  0.00    +0.000 A 
ATOM      8  N   UNL     1       1.975   8.053  18.846  0.00  0.00    +0.000 N 
ATOM      9  C   UNL     1       2.466   6.731  19.009  0.00  0.00    +0.000 A 
ENDROOT
BRANCH   9  10
ATOM     10  N   UNL     1       3.316   5.982  18.135  0.00  0.00    +0.000 N 
ATOM     11  C   UNL     1       2.818   4.701  17.620  0.00  0.00    +0.000 C 
ATOM     12  C   UNL     1       4.510   6.551  17.631  0.00  0.00    +0.000 C 
ATOM     13  O   UNL     1       4.922   7.684  17.887  0.00  0.00    +0.000 OA
BRANCH  12  14
ATOM     14  C   UNL     1       5.410   5.779  16.716  0.00  0.00    +0.000 A 
ATOM     15  C   UNL     1       5.182   5.847  15.330  0.00  0.00    +0.000 A 
ATOM     16  C   UNL     1       5.960   5.095  14.438  0.00  0.00    +0.000 A 
ATOM     17  C   UNL     1       6.981   4.275  14.917  0.00  0.00    +0.000 A 
ATOM     18  C   UNL     1       7.195   4.177  16.289  0.00  0.00    +0.000 A 
ATOM     19  C   UNL     1       6.386   4.893  17.175  0.00  0.00    +0.000 A 
ATOM     20  F   UNL     1       6.570   4.684  18.485  0.00  0.00    +0.000 F 
ENDBRANCH  12  14
ENDBRANCH   9  10
BRANCH   1  22
ATOM     21  C   UNL     1       1.129   4.047  20.626  0.00  0.00    +0.000 C 
ATOM     22  C   UNL     1       2.109   5.114  21.102  0.00  0.00    +0.000 C 
ENDBRANCH   1  22
BRANCH   4  23
ATOM     23  O   UNL     1       0.298  10.111  21.460  0.00  0.00    +0.000 OA
BRANCH  23  24
ATOM     24  C   UNL     1       0.164  11.527  21.639  0.00  0.00    +0.000 C 
BRANCH  24  25
ATOM     25  C   UNL     1      -1.281  11.949  21.796  0.00  0.00    +0.000 A 
ATOM     26  C   UNL     1      -2.068  12.148  20.646  0.00  0.00    +0.000 A 
ATOM     27  C   UNL     1      -3.420  12.464  20.758  0.00  0.00    +0.000 A 
ATOM     28 CL   UNL     1      -4.361  12.701  19.340  0.00  0.00    +0.000 Cl
ATOM     29  C   UNL     1      -4.012  12.582  22.012  0.00  0.00    +0.000 A 
ATOM     30  C   UNL     1      -3.243  12.369  23.154  0.00  0.00    +0.000 A 
ATOM     31 CL   UNL     1      -3.976  12.489  24.707  0.00  0.00    +0.000 Cl
ATOM     32  C   UNL     1      -1.891  12.047  23.054  0.00  0.00    +0.000 A 
ENDBRANCH  24  25
ENDBRANCH  23  24
ENDBRANCH   4  23
TORSDOF 6
ENDMDL
MODEL 5
REMARK VINA RESULT:      -7.8      4.386      9.634
REMARK  Name = 
REMARK  8 active torsions:
REMARK  status: ('A' for Active; 'I' for Inactive)
REMARK    1  A    between atoms: C_1  and  C_2
REMARK    2  A    between atoms: C_2  and  C_3
REMARK    3  A    between atoms: C_6  and  O_7
REMARK    4  A    between atoms: O_7  and  C_8
REMARK    5  A    between atoms: C_8  and  C_9
REMARK    6  A    between atoms: C_21  and  N_22
REMARK    7  A    between atoms: N_22  and  C_23
REMARK    8  A    between atoms: C_24  and  C_26
REMARK                            x       y       z     vdW  Elec       q    Type
REMARK                         _______ _______ _______ _____ _____    ______ ____
ROOT
ATOM      1  C   UNL     1       2.175   6.157  20.254  0.00  0.00    +0.000 A 
ATOM      2  N   UNL     1       1.539   7.161  20.916  0.00  0.00    +0.000 NA
ATOM      3  C   UNL     1       1.503   8.183  20.101  0.00  0.00    +0.000 A 
ATOM      4  C   UNL     1       1.012   9.511  20.340  0.00  0.00    +0.000 A 
ATOM      5  C   UNL     1       1.015  10.402  19.334  0.00  0.00    +0.000 A 
ATOM      6  C   UNL     1       1.598  10.075  18.047  0.00  0.00    +0.000 A 
ATOM      7  C   UNL     1       2.148   8.860  17.856  0.00  0.00    +0.000 A 
ATOM      8  N   UNL     1       2.075   7.878  18.855  0.00  0.00    +0.000 N 
ATOM      9  C   UNL     1       2.561   6.548  18.961  0.00  0.00    +0.000 A 
ENDROOT
BRANCH   9  10
ATOM     10  N   UNL     1       3.354   5.812  18.025  0.00  0.00    +0.000 N 
ATOM     11  C   UNL     1       2.781   4.590  17.449  0.00  0.00    +0.000 C 
ATOM     12  C   UNL     1       4.564   6.350  17.527  0.00  0.00    +0.000 C 
ATOM     13  O   UNL     1       5.038   7.445  17.839  0.00  0.00    +0.000 OA
BRANCH  12  14
ATOM     14  C   UNL     1       5.405   5.590  16.548  0.00  0.00    +0.000 A 
ATOM     15  C   UNL     1       5.095   5.682  15.179  0.00  0.00    +0.000 A 
ATOM     16  C   UNL     1       5.815   4.943  14.230  0.00  0.00    +0.000 A 
ATOM     17  C   UNL     1       6.859   4.111  14.634  0.00  0.00    +0.000 A 
ATOM     18  C   UNL     1       7.153   3.989  15.989  0.00  0.00    +0.000 A 
ATOM     19  C   UNL     1       6.402   4.693  16.933  0.00  0.00    +0.000 A 
ATOM     20  F   UNL     1       6.662   4.461  18.226  0.00  0.00    +0.000 F 
ENDBRANCH  12  14
ENDBRANCH   9  10
BRANCH   1  22
ATOM     21  C   UNL     1       1.204   3.889  20.682  0.00  0.00    +0.000 C 
ATOM     22  C   UNL     1       2.302   4.888  21.034  0.00  0.00    +0.000 C 
ENDBRANCH   1  22
BRANCH   4  23
ATOM     23  O   UNL     1       0.567   9.891  21.603  0.00  0.00    +0.000 OA
BRANCH  23  24
ATOM     24  C   UNL     1      -0.831  10.200  21.699  0.00  0.00    +0.000 C 
BRANCH  24  25
ATOM     25  C   UNL     1      -1.075  11.563  22.310  0.00  0.00    +0.000 A 
ATOM     26  C   UNL     1      -0.219  12.629  21.976  0.00  0.00    +0.000 A 
ATOM     27  C   UNL     1      -0.461  13.912  22.464  0.00  0.00    +0.000 A 
ATOM     28 CL   UNL     1       0.598  15.198  22.042  0.00  0.00    +0.000 Cl
ATOM     29  C   UNL     1      -1.559  14.156  23.283  0.00  0.00    +0.000 A 
ATOM     30  C   UNL     1      -2.420  13.108  23.603  0.00  0.00    +0.000 A 
ATOM     31 CL   UNL     1      -3.794  13.409  24.595  0.00  0.00    +0.000 Cl
ATOM     32  C   UNL     1      -2.190  11.822  23.116  0.00  0.00    +0.000 A 
ENDBRANCH  24  25
ENDBRANCH  23  24
ENDBRANCH   4  23
TORSDOF 6
ENDMDL
MODEL 6
REMARK VINA RESULT:      -7.7      0.979      2.050
REMARK  Name = 
REMARK  8 active torsions:
REMARK  status: ('A' for Active; 'I' for Inactive)
REMARK    1  A    between atoms: C_1  and  C_2
REMARK    2  A    between atoms: C_2  and  C_3
REMARK    3  A    between atoms: C_6  and  O_7
REMARK    4  A    between atoms: O_7  and  C_8
REMARK    5  A    between atoms: C_8  and  C_9
REMARK    6  A    between atoms: C_21  and  N_22
REMARK    7  A    between atoms: N_22  and  C_23
REMARK    8  A    between atoms: C_24  and  C_26
REMARK                            x       y       z     vdW  Elec       q    Type
REMARK                         _______ _______ _______ _____ _____    ______ ____
ROOT
ATOM      1  C   UNL     1       0.304   8.923  21.213  0.00  0.00    +0.000 A 
ATOM      2  N   UNL     1       1.034   7.804  20.960  0.00  0.00    +0.000 NA
ATOM      3  C   UNL     1       1.654   8.009  19.826  0.00  0.00    +0.000 A 
ATOM      4  C   UNL     1       2.487   7.112  19.077  0.00  0.00    +0.000 A 
ATOM      5  C   UNL     1       3.080   7.551  17.954  0.00  0.00    +0.000 A 
ATOM      6  C   UNL     1       2.810   8.877  17.435  0.00  0.00    +0.000 A 
ATOM      7  C   UNL     1       1.949   9.684  18.086  0.00  0.00    +0.000 A 
ATOM      8  N   UNL     1       1.389   9.289  19.311  0.00  0.00    +0.000 N 
ATOM      9  C   UNL     1       0.461   9.888  20.204  0.00  0.00    +0.000 A 
ENDROOT
BRANCH   9  10
ATOM     10  N   UNL     1      -0.239  11.128  20.062  0.00  0.00    +0.000 N 
ATOM     11  C   UNL     1      -1.603  11.090  19.523  0.00  0.00    +0.000 C 
ATOM     12  C   UNL     1       0.293  12.320  20.606  0.00  0.00    +0.000 C 
ATOM     13  O   UNL     1       1.361  12.410  21.216  0.00  0.00    +0.000 OA
BRANCH  12  14
ATOM     14  C   UNL     1      -0.427  13.625  20.465  0.00  0.00    +0.000 A 
ATOM     15  C   UNL     1      -0.073  14.480  19.404  0.00  0.00    +0.000 A 
ATOM     16  C   UNL     1      -0.676  15.737  19.265  0.00  0.00    +0.000 A 
ATOM     17  C   UNL     1      -1.647  16.153  20.175  0.00  0.00    +0.000 A 
ATOM     18  C   UNL     1      -1.983  15.330  21.245  0.00  0.00    +0.000 A 
ATOM     19  C   UNL     1      -1.345  14.097  21.404  0.00  0.00    +0.000 A 
ATOM     20  F   UNL     1      -1.632  13.390  22.505  0.00  0.00    +0.000 F 
ENDBRANCH  12  14
ENDBRANCH   9  10
BRANCH   1  22
ATOM     21  C   UNL     1      -0.423  10.205  23.237  0.00  0.00    +0.000 C 
ATOM     22  C   UNL     1      -0.473   8.876  22.490  0.00  0.00    +0.000 C 
ENDBRANCH   1  22
BRANCH   4  23
ATOM     23  O   UNL     1       2.660   5.792  19.483  0.00  0.00    +0.000 OA
BRANCH  23  24
ATOM     24  C   UNL     1       2.855   4.840  18.428  0.00  0.00    +0.000 C 
BRANCH  24  25
ATOM     25  C   UNL     1       4.282   4.829  17.923  0.00  0.00    +0.000 A 
ATOM     26  C   UNL     1       5.326   5.165  18.806  0.00  0.00    +0.000 A 
ATOM     27  C   UNL     1       6.654   5.093  18.392  0.00  0.00    +0.000 A 
ATOM     28 CL   UNL     1       7.911   5.508  19.488  0.00  0.00    +0.000 Cl
ATOM     29  C   UNL     1       6.966   4.681  17.101  0.00  0.00    +0.000 A 
ATOM     30  C   UNL     1       5.939   4.330  16.228  0.00  0.00    +0.000 A 
ATOM     31 CL   UNL     1       6.320   3.794  14.637  0.00  0.00    +0.000 Cl
ATOM     32  C   UNL     1       4.606   4.393  16.632  0.00  0.00    +0.000 A 
ENDBRANCH  24  25
ENDBRANCH  23  24
ENDBRANCH   4  23
TORSDOF 6
ENDMDL
MODEL 7
REMARK VINA RESULT:      -7.7      3.679      6.418
REMARK  Name = 
REMARK  8 active torsions:
REMARK  status: ('A' for Active; 'I' for Inactive)
REMARK    1  A    between atoms: C_1  and  C_2
REMARK    2  A    between atoms: C_2  and  C_3
REMARK    3  A    between atoms: C_6  and  O_7
REMARK    4  A    between atoms: O_7  and  C_8
REMARK    5  A    between atoms: C_8  and  C_9
REMARK    6  A    between atoms: C_21  and  N_22
REMARK    7  A    between atoms: N_22  and  C_23
REMARK    8  A    between atoms: C_24  and  C_26
REMARK                            x       y       z     vdW  Elec       q    Type
REMARK                         _______ _______ _______ _____ _____    ______ ____
ROOT
ATOM      1  C   UNL     1       2.768   4.392  17.523  0.00  0.00    +0.000 A 
ATOM      2  N   UNL     1       3.737   3.893  16.708  0.00  0.00    +0.000 NA
ATOM      3  C   UNL     1       4.806   4.620  16.910  0.00  0.00    +0.000 A 
ATOM      4  C   UNL     1       6.076   4.559  16.244  0.00  0.00    +0.000 A 
ATOM      5  C   UNL     1       7.069   5.368  16.652  0.00  0.00    +0.000 A 
ATOM      6  C   UNL     1       6.846   6.367  17.679  0.00  0.00    +0.000 A 
ATOM      7  C   UNL     1       5.624   6.490  18.233  0.00  0.00    +0.000 A 
ATOM      8  N   UNL     1       4.594   5.597  17.896  0.00  0.00    +0.000 N 
ATOM      9  C   UNL     1       3.232   5.480  18.280  0.00  0.00    +0.000 A 
ENDROOT
BRANCH   9  10
ATOM     10  N   UNL     1       2.474   6.331  19.144  0.00  0.00    +0.000 N 
ATOM     11  C   UNL     1       2.085   5.808  20.458  0.00  0.00    +0.000 C 
ATOM     12  C   UNL     1       2.276   7.694  18.819  0.00  0.00    +0.000 C 
ATOM     13  O   UNL     1       2.707   8.255  17.809  0.00  0.00    +0.000 OA
BRANCH  12  14
ATOM     14  C   UNL     1       1.483   8.597  19.713  0.00  0.00    +0.000 A 
ATOM     15  C   UNL     1       1.482   8.344  21.097  0.00  0.00    +0.000 A 
ATOM     16  C   UNL     1       0.708   9.124  21.967  0.00  0.00    +0.000 A 
ATOM     17  C   UNL     1      -0.066  10.172  21.469  0.00  0.00    +0.000 A 
ATOM     18  C   UNL     1      -0.097  10.410  20.098  0.00  0.00    +0.000 A 
ATOM     19  C   UNL     1       0.641   9.601  19.232  0.00  0.00    +0.000 A 
ATOM     20  F   UNL     1       0.497   9.810  17.917  0.00  0.00    +0.000 F 
ENDBRANCH  12  14
ENDBRANCH   9  10
BRANCH   1  22
ATOM     21  C   UNL     1       1.249   2.730  18.620  0.00  0.00    +0.000 C 
ATOM     22  C   UNL     1       1.461   3.671  17.438  0.00  0.00    +0.000 C 
ENDBRANCH   1  22
BRANCH   4  23
ATOM     23  O   UNL     1       6.279   3.699  15.169  0.00  0.00    +0.000 OA
BRANCH  23  24
ATOM     24  C   UNL     1       6.541   4.335  13.909  0.00  0.00    +0.000 C 
BRANCH  24  25
ATOM     25  C   UNL     1       5.905   3.595  12.752  0.00  0.00    +0.000 A 
ATOM     26  C   UNL     1       6.316   2.279  12.468  0.00  0.00    +0.000 A 
ATOM     27  C   UNL     1       5.698   1.547  11.457  0.00  0.00    +0.000 A 
ATOM     28 CL   UNL     1       6.217  -0.058  11.129  0.00  0.00    +0.000 Cl
ATOM     29  C   UNL     1       4.660   2.106  10.718  0.00  0.00    +0.000 A 
ATOM     30  C   UNL     1       4.236   3.402  11.007  0.00  0.00    +0.000 A 
ATOM     31 CL   UNL     1       2.936   4.090  10.113  0.00  0.00    +0.000 Cl
ATOM     32  C   UNL     1       4.844   4.142  12.019  0.00  0.00    +0.000 A 
ENDBRANCH  24  25
ENDBRANCH  23  24
ENDBRANCH   4  23
TORSDOF 6
ENDMDL
MODEL 8
REMARK VINA RESULT:      -7.6      3.725      6.424
REMARK  Name = 
REMARK  8 active torsions:
REMARK  status: ('A' for Active; 'I' for Inactive)
REMARK    1  A    between atoms: C_1  and  C_2
REMARK    2  A    between atoms: C_2  and  C_3
REMARK    3  A    between atoms: C_6  and  O_7
REMARK    4  A    between atoms: O_7  and  C_8
REMARK    5  A    between atoms: C_8  and  C_9
REMARK    6  A    between atoms: C_21  and  N_22
REMARK    7  A    between atoms: N_22  and  C_23
REMARK    8  A    between atoms: C_24  and  C_26
REMARK                            x       y       z     vdW  Elec       q    Type
REMARK                         _______ _______ _______ _____ _____    ______ ____
ROOT
ATOM      1  C   UNL     1       2.935   4.393  17.541  0.00  0.00    +0.000 A 
ATOM      2  N   UNL     1       3.917   3.925  16.723  0.00  0.00    +0.000 NA
ATOM      3  C   UNL     1       4.949   4.711  16.889  0.00  0.00    +0.000 A 
ATOM      4  C   UNL     1       6.211   4.700  16.205  0.00  0.00    +0.000 A 
ATOM      5  C   UNL     1       7.166   5.568  16.578  0.00  0.00    +0.000 A 
ATOM      6  C   UNL     1       6.907   6.580  17.584  0.00  0.00    +0.000 A 
ATOM      7  C   UNL     1       5.689   6.652  18.155  0.00  0.00    +0.000 A 
ATOM      8  N   UNL     1       4.702   5.700  17.856  0.00  0.00    +0.000 N 
ATOM      9  C   UNL     1       3.354   5.522  18.264  0.00  0.00    +0.000 A 
ENDROOT
BRANCH   9  10
ATOM     10  N   UNL     1       2.565   6.354  19.120  0.00  0.00    +0.000 N 
ATOM     11  C   UNL     1       2.208   5.836  20.446  0.00  0.00    +0.000 C 
ATOM     12  C   UNL     1       2.308   7.702  18.776  0.00  0.00    +0.000 C 
ATOM     13  O   UNL     1       2.707   8.264  17.753  0.00  0.00    +0.000 OA
BRANCH  12  14
ATOM     14  C   UNL     1       1.482   8.584  19.661  0.00  0.00    +0.000 A 
ATOM     15  C   UNL     1       1.537   8.384  21.052  0.00  0.00    +0.000 A 
ATOM     16  C   UNL     1       0.738   9.144  21.917  0.00  0.00    +0.000 A 
ATOM     17  C   UNL     1      -0.117  10.120  21.407  0.00  0.00    +0.000 A 
ATOM     18  C   UNL     1      -0.202  10.304  20.030  0.00  0.00    +0.000 A 
ATOM     19  C   UNL     1       0.563   9.512  19.170  0.00  0.00    +0.000 A 
ATOM     20  F   UNL     1       0.368   9.663  17.854  0.00  0.00    +0.000 F 
ENDBRANCH  12  14
ENDBRANCH   9  10
BRANCH   1  22
ATOM     21  C   UNL     1       1.535   2.662  18.687  0.00  0.00    +0.000 C 
ATOM     22  C   UNL     1       1.666   3.604  17.495  0.00  0.00    +0.000 C 
ENDBRANCH   1  22
BRANCH   4  23
ATOM     23  O   UNL     1       6.442   3.826  15.147  0.00  0.00    +0.000 OA
BRANCH  23  24
ATOM     24  C   UNL     1       6.505   4.430  13.848  0.00  0.00    +0.000 C 
BRANCH  24  25
ATOM     25  C   UNL     1       5.841   3.578  12.788  0.00  0.00    +0.000 A 
ATOM     26  C   UNL     1       4.806   4.131  12.009  0.00  0.00    +0.000 A 
ATOM     27  C   UNL     1       4.226   3.397  10.977  0.00  0.00    +0.000 A 
ATOM     28 CL   UNL     1       2.966   4.094  10.040  0.00  0.00    +0.000 Cl
ATOM     29  C   UNL     1       4.668   2.107  10.698  0.00  0.00    +0.000 A 
ATOM     30  C   UNL     1       5.704   1.561  11.453  0.00  0.00    +0.000 A 
ATOM     31 CL   UNL     1       6.271  -0.025  11.096  0.00  0.00    +0.000 Cl
ATOM     32  C   UNL     1       6.295   2.288  12.485  0.00  0.00    +0.000 A 
ENDBRANCH  24  25
ENDBRANCH  23  24
ENDBRANCH   4  23
TORSDOF 6
ENDMDL
MODEL 9
REMARK VINA RESULT:      -7.6      2.060      3.485
REMARK  Name = 
REMARK  8 active torsions:
REMARK  status: ('A' for Active; 'I' for Inactive)
REMARK    1  A    between atoms: C_1  and  C_2
REMARK    2  A    between atoms: C_2  and  C_3
REMARK    3  A    between atoms: C_6  and  O_7
REMARK    4  A    between atoms: O_7  and  C_8
REMARK    5  A    between atoms: C_8  and  C_9
REMARK    6  A    between atoms: C_21  and  N_22
REMARK    7  A    between atoms: N_22  and  C_23
REMARK    8  A    between atoms: C_24  and  C_26
REMARK                            x       y       z     vdW  Elec       q    Type
REMARK                         _______ _______ _______ _____ _____    ______ ____
ROOT
ATOM      1  C   UNL     1      -0.892  11.365  18.829  0.00  0.00    +0.000 A 
ATOM      2  N   UNL     1      -0.171  10.310  18.360  0.00  0.00    +0.000 NA
ATOM      3  C   UNL     1       0.377   9.739  19.402  0.00  0.00    +0.000 A 
ATOM      4  C   UNL     1       1.293   8.635  19.448  0.00  0.00    +0.000 A 
ATOM      5  C   UNL     1       1.691   8.163  20.641  0.00  0.00    +0.000 A 
ATOM      6  C   UNL     1       1.293   8.813  21.874  0.00  0.00    +0.000 A 
ATOM      7  C   UNL     1       0.512   9.910  21.825  0.00  0.00    +0.000 A 
ATOM      8  N   UNL     1       0.003  10.370  20.600  0.00  0.00    +0.000 N 
ATOM      9  C   UNL     1      -0.806  11.475  20.227  0.00  0.00    +0.000 A 
ENDROOT
BRANCH   9  10
ATOM     10  N   UNL     1      -1.322  12.522  21.055  0.00  0.00    +0.000 N 
ATOM     11  C   UNL     1      -2.764  12.537  21.326  0.00  0.00    +0.000 C 
ATOM     12  C   UNL     1      -0.445  13.392  21.744  0.00  0.00    +0.000 C 
ATOM     13  O   UNL     1       0.786  13.346  21.697  0.00  0.00    +0.000 OA
BRANCH  12  14
ATOM     14  C   UNL     1      -0.971  14.493  22.613  0.00  0.00    +0.000 A 
ATOM     15  C   UNL     1      -1.320  14.194  23.942  0.00  0.00    +0.000 A 
ATOM     16  C   UNL     1      -1.873  15.177  24.776  0.00  0.00    +0.000 A 
ATOM     17  C   UNL     1      -2.073  16.471  24.297  0.00  0.00    +0.000 A 
ATOM     18  C   UNL     1      -1.760  16.769  22.974  0.00  0.00    +0.000 A 
ATOM     19  C   UNL     1      -1.253  15.774  22.135  0.00  0.00    +0.000 A 
ATOM     20  F   UNL     1      -1.064  16.089  20.848  0.00  0.00    +0.000 F 
ENDBRANCH  12  14
ENDBRANCH   9  10
BRANCH   1  22
ATOM     21  C   UNL     1      -2.476  11.244  16.893  0.00  0.00    +0.000 C 
ATOM     22  C   UNL     1      -1.607  12.141  17.770  0.00  0.00    +0.000 C 
ENDBRANCH   1  22
BRANCH   4  23
ATOM     23  O   UNL     1       1.795   8.075  18.276  0.00  0.00    +0.000 OA
BRANCH  23  24
ATOM     24  C   UNL     1       3.109   7.507  18.375  0.00  0.00    +0.000 C 
BRANCH  24  25
ATOM     25  C   UNL     1       3.140   6.057  17.942  0.00  0.00    +0.000 A 
ATOM     26  C   UNL     1       4.239   5.584  17.201  0.00  0.00    +0.000 A 
ATOM     27  C   UNL     1       4.331   4.239  16.851  0.00  0.00    +0.000 A 
ATOM     28 CL   UNL     1       5.683   3.685  15.946  0.00  0.00    +0.000 Cl
ATOM     29  C   UNL     1       3.339   3.343  17.237  0.00  0.00    +0.000 A 
ATOM     30  C   UNL     1       2.258   3.801  17.986  0.00  0.00    +0.000 A 
ATOM     31 CL   UNL     1       1.041   2.693  18.488  0.00  0.00    +0.000 Cl
ATOM     32  C   UNL     1       2.157   5.144  18.346  0.00  0.00    +0.000 A 
ENDBRANCH  24  25
ENDBRANCH  23  24
ENDBRANCH   4  23
TORSDOF 6
ENDMDL
