MODEL 1
REMARK VINA RESULT:      -8.5      0.000      0.000
REMARK  Name = 
REMARK  7 active torsions:
REMARK  status: ('A' for Active; 'I' for Inactive)
REMARK    1  A    between atoms: CD1_1  and  CG1_2
REMARK    2  A    between atoms: CG1_2  and  CB_3
REMARK    3  A    between atoms: CB_3  and  CG2_4
REMARK    4  A    between atoms: CB_3  and  CA_5
REMARK    5  A    between atoms: C_11  and  N_12
REMARK    6  A    between atoms: C_13  and  C_15
REMARK    7  A    between atoms: C_18  and  C_19
REMARK                            x       y       z     vdW  Elec       q    Type
REMARK                         _______ _______ _______ _____ _____    ______ ____
ROOT
ATOM      1  CA  ILE A   1       5.429   4.855  17.067  0.00  0.00    +0.000 C 
ATOM      2  N   ILE A   1       4.400   3.969  17.631  0.00  0.00    +0.000 N 
ATOM      3  C   UNK A   2       3.568   4.430  18.635  0.00  0.00    +0.000 C 
ATOM      4  O   UNK A   2       2.952   3.662  19.363  0.00  0.00    +0.000 OA
ATOM      5  C   UNK A   2       3.644   5.946  18.833  0.00  0.00    +0.000 C 
ATOM      6  C   UNK A   2       2.396   6.583  19.416  0.00  0.00    +0.000 C 
ATOM      7  C   UNK A   2       2.431   7.992  18.812  0.00  0.00    +0.000 C 
ATOM      8  C   UNK A   2       2.988   7.772  17.398  0.00  0.00    +0.000 C 
ATOM      9  N   UNK A   2       3.797   6.585  17.529  0.00  0.00    +0.000 N 
ATOM     10  C   ILE A   1       4.762   6.181  16.626  0.00  0.00    +0.000 C 
ATOM     11  O   ILE A   1       5.118   6.855  15.668  0.00  0.00    +0.000 OA
ATOM     12  H   ILE A   1       4.486   2.963  17.573  0.00  0.00    +0.000 HD
ENDROOT
BRANCH   7  13
ATOM     13  N   UNK A   2       1.137   8.627  18.838  0.00  0.00    +0.000 N 
ATOM     14  C   UNK A   2       1.003   9.955  18.491  0.00  0.00    +0.000 C 
ATOM     15  O   UNK A   2       1.943  10.668  18.168  0.00  0.00    +0.000 OA
ATOM     16  H   UNK A   2       0.310   8.042  18.855  0.00  0.00    +0.000 HD
BRANCH  14  17
ATOM     17  C   UNK A   2      -0.383  10.468  18.483  0.00  0.00    +0.000 A 
ATOM     18  C   UNK A   2      -1.309   9.997  17.554  0.00  0.00    +0.000 A 
ATOM     19  C   UNK A   2      -2.613  10.491  17.569  0.00  0.00    +0.000 A 
ATOM     20  C   UNK A   2      -3.039  11.436  18.520  0.00  0.00    +0.000 A 
ATOM     21  C   UNK A   2      -2.083  11.894  19.447  0.00  0.00    +0.000 A 
ATOM     22  C   UNK A   2      -0.764  11.420  19.432  0.00  0.00    +0.000 A 
BRANCH  20  23
ATOM     23  C   UNK A   2      -4.447  11.887  18.549  0.00  0.00    +0.000 A 
ATOM     24  C   UNK A   2      -5.035  12.337  19.747  0.00  0.00    +0.000 A 
ATOM     25  C   UNK A   2      -6.370  12.741  19.800  0.00  0.00    +0.000 A 
ATOM     26  C   UNK A   2      -7.143  12.724  18.647  0.00  0.00    +0.000 A 
ATOM     27  C   UNK A   2      -6.585  12.301  17.445  0.00  0.00    +0.000 A 
ATOM     28  C   UNK A   2      -5.252  11.881  17.399  0.00  0.00    +0.000 A 
ENDBRANCH  20  23
ENDBRANCH  14  17
ENDBRANCH   7  13
BRANCH   1  29
ATOM     29  CB  ILE A   1       6.281   4.188  15.974  0.00  0.00    +0.000 C 
ATOM     30  CG2 ILE A   1       7.552   4.987  15.654  0.00  0.00    +0.000 C 
BRANCH  29  32
ATOM     31  CD1 ILE A   1       6.340   3.844  13.425  0.00  0.00    +0.000 C 
ATOM     32  CG1 ILE A   1       5.478   3.942  14.678  0.00  0.00    +0.000 C 
ENDBRANCH  29  32
ENDBRANCH   1  29
TORSDOF 5
ENDMDL
MODEL 2
REMARK VINA RESULT:      -8.2      0.630      1.392
REMARK  Name = 
REMARK  7 active torsions:
REMARK  status: ('A' for Active; 'I' for Inactive)
REMARK    1  A    between atoms: CD1_1  and  CG1_2
REMARK    2  A    between atoms: CG1_2  and  CB_3
REMARK    3  A    between atoms: CB_3  and  CG2_4
REMARK    4  A    between atoms: CB_3  and  CA_5
REMARK    5  A    between atoms: C_11  and  N_12
REMARK    6  A    between atoms: C_13  and  C_15
REMARK    7  A    between atoms: C_18  and  C_19
REMARK                            x       y       z     vdW  Elec       q    Type
REMARK                         _______ _______ _______ _____ _____    ______ ____
ROOT
ATOM      1  CA  ILE A   1       5.186   5.066  17.731  0.00  0.00    +0.000 C 
ATOM      2  N   ILE A   1       4.200   4.229  18.429  0.00  0.00    +0.000 N 
ATOM      3  C   UNK A   2       3.380   4.787  19.392  0.00  0.00    +0.000 C 
ATOM      4  O   UNK A   2       2.806   4.099  20.227  0.00  0.00    +0.000 OA
ATOM      5  C   UNK A   2       3.413   6.318  19.400  0.00  0.00    +0.000 C 
ATOM      6  C   UNK A   2       2.161   6.988  19.935  0.00  0.00    +0.000 C 
ATOM      7  C   UNK A   2       2.138   8.311  19.162  0.00  0.00    +0.000 C 
ATOM      8  C   UNK A   2       2.665   7.933  17.771  0.00  0.00    +0.000 C 
ATOM      9  N   UNK A   2       3.514   6.794  18.023  0.00  0.00    +0.000 N 
ATOM     10  C   ILE A   1       4.468   6.308  17.149  0.00  0.00    +0.000 C 
ATOM     11  O   ILE A   1       4.778   6.868  16.105  0.00  0.00    +0.000 OA
ATOM     12  H   ILE A   1       4.315   3.226  18.493  0.00  0.00    +0.000 HD
ENDROOT
BRANCH   7  13
ATOM     13  N   UNK A   2       0.826   8.909  19.147  0.00  0.00    +0.000 N 
ATOM     14  C   UNK A   2       0.649  10.194  18.678  0.00  0.00    +0.000 C 
ATOM     15  O   UNK A   2       1.563  10.900  18.275  0.00  0.00    +0.000 OA
ATOM     16  H   UNK A   2       0.018   8.306  19.231  0.00  0.00    +0.000 HD
BRANCH  14  17
ATOM     17  C   UNK A   2      -0.752  10.664  18.642  0.00  0.00    +0.000 A 
ATOM     18  C   UNK A   2      -1.218  11.578  19.585  0.00  0.00    +0.000 A 
ATOM     19  C   UNK A   2      -2.542  12.014  19.528  0.00  0.00    +0.000 A 
ATOM     20  C   UNK A   2      -3.423  11.581  18.521  0.00  0.00    +0.000 A 
ATOM     21  C   UNK A   2      -2.926  10.658  17.580  0.00  0.00    +0.000 A 
ATOM     22  C   UNK A   2      -1.602  10.198  17.637  0.00  0.00    +0.000 A 
BRANCH  20  23
ATOM     23  C   UNK A   2      -4.800  12.115  18.450  0.00  0.00    +0.000 A 
ATOM     24  C   UNK A   2      -5.515  12.110  17.236  0.00  0.00    +0.000 A 
ATOM     25  C   UNK A   2      -6.805  12.634  17.143  0.00  0.00    +0.000 A 
ATOM     26  C   UNK A   2      -7.420  13.158  18.273  0.00  0.00    +0.000 A 
ATOM     27  C   UNK A   2      -6.746  13.161  19.490  0.00  0.00    +0.000 A 
ATOM     28  C   UNK A   2      -5.447  12.650  19.575  0.00  0.00    +0.000 A 
ENDBRANCH  20  23
ENDBRANCH  14  17
ENDBRANCH   7  13
BRANCH   1  29
ATOM     29  CB  ILE A   1       6.031   4.293  16.704  0.00  0.00    +0.000 C 
ATOM     30  CG2 ILE A   1       7.471   4.815  16.618  0.00  0.00    +0.000 C 
BRANCH  29  32
ATOM     31  CD1 ILE A   1       6.397   4.236  14.158  0.00  0.00    +0.000 C 
ATOM     32  CG1 ILE A   1       5.388   4.297  15.299  0.00  0.00    +0.000 C 
ENDBRANCH  29  32
ENDBRANCH   1  29
TORSDOF 5
ENDMDL
MODEL 3
REMARK VINA RESULT:      -8.1      6.970     10.459
REMARK  Name = 
REMARK  7 active torsions:
REMARK  status: ('A' for Active; 'I' for Inactive)
REMARK    1  A    between atoms: CD1_1  and  CG1_2
REMARK    2  A    between atoms: CG1_2  and  CB_3
REMARK    3  A    between atoms: CB_3  and  CG2_4
REMARK    4  A    between atoms: CB_3  and  CA_5
REMARK    5  A    between atoms: C_11  and  N_12
REMARK    6  A    between atoms: C_13  and  C_15
REMARK    7  A    between atoms: C_18  and  C_19
REMARK                            x       y       z     vdW  Elec       q    Type
REMARK                         _______ _______ _______ _____ _____    ______ ____
ROOT
ATOM      1  CA  ILE A   1      10.738  13.832  19.410  0.00  0.00    +0.000 C 
ATOM      2  N   ILE A   1       9.411  14.371  19.075  0.00  0.00    +0.000 N 
ATOM      3  C   UNK A   2       8.592  13.689  18.194  0.00  0.00    +0.000 C 
ATOM      4  O   UNK A   2       7.659  14.242  17.624  0.00  0.00    +0.000 OA
ATOM      5  C   UNK A   2       9.076  12.268  17.897  0.00  0.00    +0.000 C 
ATOM      6  C   UNK A   2       7.991  11.289  17.488  0.00  0.00    +0.000 C 
ATOM      7  C   UNK A   2       8.545   9.952  17.993  0.00  0.00    +0.000 C 
ATOM      8  C   UNK A   2       9.248  10.318  19.307  0.00  0.00    +0.000 C 
ATOM      9  N   UNK A   2       9.635  11.694  19.118  0.00  0.00    +0.000 N 
ATOM     10  C   ILE A   1      10.579  12.363  19.874  0.00  0.00    +0.000 C 
ATOM     11  O   ILE A   1      11.278  11.820  20.719  0.00  0.00    +0.000 OA
ATOM     12  H   ILE A   1       9.205  15.356  19.178  0.00  0.00    +0.000 HD
ENDROOT
BRANCH   7  13
ATOM     13  N   UNK A   2       7.511   8.957  18.141  0.00  0.00    +0.000 N 
ATOM     14  C   UNK A   2       7.535   7.807  17.379  0.00  0.00    +0.000 C 
ATOM     15  O   UNK A   2       8.393   7.567  16.541  0.00  0.00    +0.000 OA
ATOM     16  H   UNK A   2       6.930   8.981  18.969  0.00  0.00    +0.000 HD
BRANCH  14  17
ATOM     17  C   UNK A   2       6.466   6.831  17.678  0.00  0.00    +0.000 A 
ATOM     18  C   UNK A   2       5.253   6.876  16.993  0.00  0.00    +0.000 A 
ATOM     19  C   UNK A   2       4.260   5.941  17.286  0.00  0.00    +0.000 A 
ATOM     20  C   UNK A   2       4.456   4.924  18.237  0.00  0.00    +0.000 A 
ATOM     21  C   UNK A   2       5.691   4.901  18.914  0.00  0.00    +0.000 A 
ATOM     22  C   UNK A   2       6.691   5.846  18.642  0.00  0.00    +0.000 A 
BRANCH  20  23
ATOM     23  C   UNK A   2       3.408   3.908  18.475  0.00  0.00    +0.000 A 
ATOM     24  C   UNK A   2       2.135   4.281  18.949  0.00  0.00    +0.000 A 
ATOM     25  C   UNK A   2       1.142   3.334  19.204  0.00  0.00    +0.000 A 
ATOM     26  C   UNK A   2       1.395   1.988  18.971  0.00  0.00    +0.000 A 
ATOM     27  C   UNK A   2       2.638   1.591  18.487  0.00  0.00    +0.000 A 
ATOM     28  C   UNK A   2       3.635   2.541  18.248  0.00  0.00    +0.000 A 
ENDBRANCH  20  23
ENDBRANCH  14  17
ENDBRANCH   7  13
BRANCH   1  29
ATOM     29  CB  ILE A   1      11.531  14.716  20.387  0.00  0.00    +0.000 C 
ATOM     30  CG2 ILE A   1      10.638  15.348  21.463  0.00  0.00    +0.000 C 
BRANCH  29  32
ATOM     31  CD1 ILE A   1      11.664  17.188  19.687  0.00  0.00    +0.000 C 
ATOM     32  CG1 ILE A   1      12.331  15.818  19.658  0.00  0.00    +0.000 C 
ENDBRANCH  29  32
ENDBRANCH   1  29
TORSDOF 5
ENDMDL
MODEL 4
REMARK VINA RESULT:      -8.1      2.526      3.486
REMARK  Name = 
REMARK  7 active torsions:
REMARK  status: ('A' for Active; 'I' for Inactive)
REMARK    1  A    between atoms: CD1_1  and  CG1_2
REMARK    2  A    between atoms: CG1_2  and  CB_3
REMARK    3  A    between atoms: CB_3  and  CG2_4
REMARK    4  A    between atoms: CB_3  and  CA_5
REMARK    5  A    between atoms: C_11  and  N_12
REMARK    6  A    between atoms: C_13  and  C_15
REMARK    7  A    between atoms: C_18  and  C_19
REMARK                            x       y       z     vdW  Elec       q    Type
REMARK                         _______ _______ _______ _____ _____    ______ ____
ROOT
ATOM      1  CA  ILE A   1       3.556   6.031  18.244  0.00  0.00    +0.000 C 
ATOM      2  N   ILE A   1       2.599   5.140  18.916  0.00  0.00    +0.000 N 
ATOM      3  C   UNK A   2       2.003   5.534  20.100  0.00  0.00    +0.000 C 
ATOM      4  O   UNK A   2       1.489   4.725  20.862  0.00  0.00    +0.000 OA
ATOM      5  C   UNK A   2       2.210   7.018  20.415  0.00  0.00    +0.000 C 
ATOM      6  C   UNK A   2       1.138   7.648  21.284  0.00  0.00    +0.000 C 
ATOM      7  C   UNK A   2       1.147   9.107  20.815  0.00  0.00    +0.000 C 
ATOM      8  C   UNK A   2       1.410   9.006  19.305  0.00  0.00    +0.000 C 
ATOM      9  N   UNK A   2       2.154   7.777  19.169  0.00  0.00    +0.000 N 
ATOM     10  C   ILE A   1       2.902   7.423  18.062  0.00  0.00    +0.000 C 
ATOM     11  O   ILE A   1       3.112   8.174  17.118  0.00  0.00    +0.000 OA
ATOM     12  H   ILE A   1       2.609   4.141  18.752  0.00  0.00    +0.000 HD
ENDROOT
BRANCH   7  13
ATOM     13  N   UNK A   2      -0.076   9.793  21.149  0.00  0.00    +0.000 N 
ATOM     14  C   UNK A   2      -0.053  11.120  21.524  0.00  0.00    +0.000 C 
ATOM     15  O   UNK A   2       0.973  11.780  21.615  0.00  0.00    +0.000 OA
ATOM     16  H   UNK A   2      -0.956   9.384  20.861  0.00  0.00    +0.000 HD
BRANCH  14  17
ATOM     17  C   UNK A   2      -1.377  11.731  21.767  0.00  0.00    +0.000 A 
ATOM     18  C   UNK A   2      -2.089  12.319  20.723  0.00  0.00    +0.000 A 
ATOM     19  C   UNK A   2      -3.340  12.883  20.974  0.00  0.00    +0.000 A 
ATOM     20  C   UNK A   2      -3.927  12.850  22.251  0.00  0.00    +0.000 A 
ATOM     21  C   UNK A   2      -3.186  12.249  23.287  0.00  0.00    +0.000 A 
ATOM     22  C   UNK A   2      -1.920  11.694  23.053  0.00  0.00    +0.000 A 
BRANCH  20  23
ATOM     23  C   UNK A   2      -5.284  13.397  22.467  0.00  0.00    +0.000 A 
ATOM     24  C   UNK A   2      -5.522  14.365  23.462  0.00  0.00    +0.000 A 
ATOM     25  C   UNK A   2      -6.800  14.874  23.699  0.00  0.00    +0.000 A 
ATOM     26  C   UNK A   2      -7.870  14.438  22.928  0.00  0.00    +0.000 A 
ATOM     27  C   UNK A   2      -7.663  13.495  21.926  0.00  0.00    +0.000 A 
ATOM     28  C   UNK A   2      -6.384  12.976  21.703  0.00  0.00    +0.000 A 
ENDBRANCH  20  23
ENDBRANCH  14  17
ENDBRANCH   7  13
BRANCH   1  29
ATOM     29  CB  ILE A   1       4.142   5.440  16.951  0.00  0.00    +0.000 C 
ATOM     30  CG2 ILE A   1       4.016   3.912  16.895  0.00  0.00    +0.000 C 
BRANCH  29  32
ATOM     31  CD1 ILE A   1       6.595   4.684  16.777  0.00  0.00    +0.000 C 
ATOM     32  CG1 ILE A   1       5.616   5.851  16.738  0.00  0.00    +0.000 C 
ENDBRANCH  29  32
ENDBRANCH   1  29
TORSDOF 5
ENDMDL
MODEL 5
REMARK VINA RESULT:      -8.0      3.677     11.524
REMARK  Name = 
REMARK  7 active torsions:
REMARK  status: ('A' for Active; 'I' for Inactive)
REMARK    1  A    between atoms: CD1_1  and  CG1_2
REMARK    2  A    between atoms: CG1_2  and  CB_3
REMARK    3  A    between atoms: CB_3  and  CG2_4
REMARK    4  A    between atoms: CB_3  and  CA_5
REMARK    5  A    between atoms: C_11  and  N_12
REMARK    6  A    between atoms: C_13  and  C_15
REMARK    7  A    between atoms: C_18  and  C_19
REMARK                            x       y       z     vdW  Elec       q    Type
REMARK                         _______ _______ _______ _____ _____    ______ ____
ROOT
ATOM      1  CA  ILE A   1      -5.028  13.946  22.574  0.00  0.00    +0.000 C 
ATOM      2  N   ILE A   1      -5.708  13.300  21.441  0.00  0.00    +0.000 N 
ATOM      3  C   UNK A   2      -5.009  13.032  20.279  0.00  0.00    +0.000 C 
ATOM      4  O   UNK A   2      -5.582  12.828  19.216  0.00  0.00    +0.000 OA
ATOM      5  C   UNK A   2      -3.494  13.187  20.436  0.00  0.00    +0.000 C 
ATOM      6  C   UNK A   2      -2.658  12.353  19.483  0.00  0.00    +0.000 C 
ATOM      7  C   UNK A   2      -1.384  12.099  20.297  0.00  0.00    +0.000 C 
ATOM      8  C   UNK A   2      -1.893  11.933  21.735  0.00  0.00    +0.000 C 
ATOM      9  N   UNK A   2      -3.106  12.713  21.762  0.00  0.00    +0.000 N 
ATOM     10  C   ILE A   1      -3.744  13.146  22.909  0.00  0.00    +0.000 C 
ATOM     11  O   ILE A   1      -3.280  13.012  24.034  0.00  0.00    +0.000 OA
ATOM     12  H   ILE A   1      -6.713  13.352  21.335  0.00  0.00    +0.000 HD
ENDROOT
BRANCH   7  13
ATOM     13  N   UNK A   2      -0.642  10.964  19.805  0.00  0.00    +0.000 N 
ATOM     14  C   UNK A   2       0.642  10.724  20.249  0.00  0.00    +0.000 C 
ATOM     15  O   UNK A   2       1.228  11.441  21.047  0.00  0.00    +0.000 OA
ATOM     16  H   UNK A   2      -1.147  10.217  19.347  0.00  0.00    +0.000 HD
BRANCH  14  17
ATOM     17  C   UNK A   2       1.267   9.489  19.730  0.00  0.00    +0.000 A 
ATOM     18  C   UNK A   2       1.700   9.414  18.407  0.00  0.00    +0.000 A 
ATOM     19  C   UNK A   2       2.293   8.241  17.940  0.00  0.00    +0.000 A 
ATOM     20  C   UNK A   2       2.499   7.130  18.777  0.00  0.00    +0.000 A 
ATOM     21  C   UNK A   2       2.053   7.232  20.109  0.00  0.00    +0.000 A 
ATOM     22  C   UNK A   2       1.439   8.399  20.586  0.00  0.00    +0.000 A 
BRANCH  20  23
ATOM     23  C   UNK A   2       3.192   5.927  18.268  0.00  0.00    +0.000 A 
ATOM     24  C   UNK A   2       4.080   6.012  17.178  0.00  0.00    +0.000 A 
ATOM     25  C   UNK A   2       4.722   4.884  16.667  0.00  0.00    +0.000 A 
ATOM     26  C   UNK A   2       4.506   3.642  17.251  0.00  0.00    +0.000 A 
ATOM     27  C   UNK A   2       3.648   3.529  18.340  0.00  0.00    +0.000 A 
ATOM     28  C   UNK A   2       2.993   4.659  18.839  0.00  0.00    +0.000 A 
ENDBRANCH  20  23
ENDBRANCH  14  17
ENDBRANCH   7  13
BRANCH   1  29
ATOM     29  CB  ILE A   1      -5.946  14.192  23.783  0.00  0.00    +0.000 C 
ATOM     30  CG2 ILE A   1      -7.329  13.551  23.608  0.00  0.00    +0.000 C 
BRANCH  29  32
ATOM     31  CD1 ILE A   1      -6.121  16.588  22.864  0.00  0.00    +0.000 C 
ATOM     32  CG1 ILE A   1      -6.103  15.696  24.099  0.00  0.00    +0.000 C 
ENDBRANCH  29  32
ENDBRANCH   1  29
TORSDOF 5
ENDMDL
MODEL 6
REMARK VINA RESULT:      -8.0      1.301      2.171
REMARK  Name = 
REMARK  7 active torsions:
REMARK  status: ('A' for Active; 'I' for Inactive)
REMARK    1  A    between atoms: CD1_1  and  CG1_2
REMARK    2  A    between atoms: CG1_2  and  CB_3
REMARK    3  A    between atoms: CB_3  and  CG2_4
REMARK    4  A    between atoms: CB_3  and  CA_5
REMARK    5  A    between atoms: C_11  and  N_12
REMARK    6  A    between atoms: C_13  and  C_15
REMARK    7  A    between atoms: C_18  and  C_19
REMARK                            x       y       z     vdW  Elec       q    Type
REMARK                         _______ _______ _______ _____ _____    ______ ____
ROOT
ATOM      1  CA  ILE A   1       5.005   5.695  17.919  0.00  0.00    +0.000 C 
ATOM      2  N   ILE A   1       4.039   4.847  18.632  0.00  0.00    +0.000 N 
ATOM      3  C   UNK A   2       3.159   5.413  19.537  0.00  0.00    +0.000 C 
ATOM      4  O   UNK A   2       2.593   4.742  20.390  0.00  0.00    +0.000 OA
ATOM      5  C   UNK A   2       3.116   6.942  19.460  0.00  0.00    +0.000 C 
ATOM      6  C   UNK A   2       1.814   7.574  19.918  0.00  0.00    +0.000 C 
ATOM      7  C   UNK A   2       1.751   8.851  19.072  0.00  0.00    +0.000 C 
ATOM      8  C   UNK A   2       2.343   8.426  17.721  0.00  0.00    +0.000 C 
ATOM      9  N   UNK A   2       3.239   7.348  18.063  0.00  0.00    +0.000 N 
ATOM     10  C   ILE A   1       4.245   6.865  17.247  0.00  0.00    +0.000 C 
ATOM     11  O   ILE A   1       4.562   7.384  16.184  0.00  0.00    +0.000 OA
ATOM     12  H   ILE A   1       4.202   3.856  18.755  0.00  0.00    +0.000 HD
ENDROOT
BRANCH   7  13
ATOM     13  N   UNK A   2       0.412   9.377  18.983  0.00  0.00    +0.000 N 
ATOM     14  C   UNK A   2       0.095  10.584  19.570  0.00  0.00    +0.000 C 
ATOM     15  O   UNK A   2       0.895  11.260  20.203  0.00  0.00    +0.000 OA
ATOM     16  H   UNK A   2      -0.213   8.998  18.282  0.00  0.00    +0.000 HD
BRANCH  14  17
ATOM     17  C   UNK A   2      -1.288  11.053  19.343  0.00  0.00    +0.000 A 
ATOM     18  C   UNK A   2      -1.840  12.050  20.144  0.00  0.00    +0.000 A 
ATOM     19  C   UNK A   2      -3.146  12.481  19.908  0.00  0.00    +0.000 A 
ATOM     20  C   UNK A   2      -3.921  11.960  18.857  0.00  0.00    +0.000 A 
ATOM     21  C   UNK A   2      -3.338  10.954  18.062  0.00  0.00    +0.000 A 
ATOM     22  C   UNK A   2      -2.034  10.498  18.300  0.00  0.00    +0.000 A 
BRANCH  20  23
ATOM     23  C   UNK A   2      -5.277  12.488  18.592  0.00  0.00    +0.000 A 
ATOM     24  C   UNK A   2      -5.862  12.367  17.317  0.00  0.00    +0.000 A 
ATOM     25  C   UNK A   2      -7.129  12.883  17.041  0.00  0.00    +0.000 A 
ATOM     26  C   UNK A   2      -7.851  13.516  18.045  0.00  0.00    +0.000 A 
ATOM     27  C   UNK A   2      -7.306  13.636  19.319  0.00  0.00    +0.000 A 
ATOM     28  C   UNK A   2      -6.029  13.132  19.588  0.00  0.00    +0.000 A 
ENDBRANCH  20  23
ENDBRANCH  14  17
ENDBRANCH   7  13
BRANCH   1  29
ATOM     29  CB  ILE A   1       5.922   4.913  16.964  0.00  0.00    +0.000 C 
ATOM     30  CG2 ILE A   1       5.233   3.676  16.373  0.00  0.00    +0.000 C 
BRANCH  29  32
ATOM     31  CD1 ILE A   1       7.763   5.506  18.661  0.00  0.00    +0.000 C 
ATOM     32  CG1 ILE A   1       7.249   4.500  17.638  0.00  0.00    +0.000 C 
ENDBRANCH  29  32
ENDBRANCH   1  29
TORSDOF 5
ENDMDL
MODEL 7
REMARK VINA RESULT:      -8.0      3.801     11.676
REMARK  Name = 
REMARK  7 active torsions:
REMARK  status: ('A' for Active; 'I' for Inactive)
REMARK    1  A    between atoms: CD1_1  and  CG1_2
REMARK    2  A    between atoms: CG1_2  and  CB_3
REMARK    3  A    between atoms: CB_3  and  CG2_4
REMARK    4  A    between atoms: CB_3  and  CA_5
REMARK    5  A    between atoms: C_11  and  N_12
REMARK    6  A    between atoms: C_13  and  C_15
REMARK    7  A    between atoms: C_18  and  C_19
REMARK                            x       y       z     vdW  Elec       q    Type
REMARK                         _______ _______ _______ _____ _____    ______ ____
ROOT
ATOM      1  CA  ILE A   1      -5.074  14.288  22.647  0.00  0.00    +0.000 C 
ATOM      2  N   ILE A   1      -5.775  13.478  21.640  0.00  0.00    +0.000 N 
ATOM      3  C   UNK A   2      -5.101  13.041  20.515  0.00  0.00    +0.000 C 
ATOM      4  O   UNK A   2      -5.697  12.678  19.508  0.00  0.00    +0.000 OA
ATOM      5  C   UNK A   2      -3.584  13.223  20.612  0.00  0.00    +0.000 C 
ATOM      6  C   UNK A   2      -2.764  12.259  19.775  0.00  0.00    +0.000 C 
ATOM      7  C   UNK A   2      -1.470  12.134  20.586  0.00  0.00    +0.000 C 
ATOM      8  C   UNK A   2      -1.945  12.184  22.045  0.00  0.00    +0.000 C 
ATOM      9  N   UNK A   2      -3.163  12.955  21.984  0.00  0.00    +0.000 N 
ATOM     10  C   ILE A   1      -3.778  13.553  23.067  0.00  0.00    +0.000 C 
ATOM     11  O   ILE A   1      -3.287  13.591  24.188  0.00  0.00    +0.000 OA
ATOM     12  H   ILE A   1      -6.783  13.510  21.551  0.00  0.00    +0.000 HD
ENDROOT
BRANCH   7  13
ATOM     13  N   UNK A   2      -0.732  10.942  20.253  0.00  0.00    +0.000 N 
ATOM     14  C   UNK A   2       0.353  11.006  19.404  0.00  0.00    +0.000 C 
ATOM     15  O   UNK A   2       0.740  12.040  18.877  0.00  0.00    +0.000 OA
ATOM     16  H   UNK A   2      -0.846  10.122  20.835  0.00  0.00    +0.000 HD
BRANCH  14  17
ATOM     17  C   UNK A   2       1.072   9.731  19.201  0.00  0.00    +0.000 A 
ATOM     18  C   UNK A   2       1.702   9.456  17.988  0.00  0.00    +0.000 A 
ATOM     19  C   UNK A   2       2.380   8.249  17.821  0.00  0.00    +0.000 A 
ATOM     20  C   UNK A   2       2.478   7.303  18.857  0.00  0.00    +0.000 A 
ATOM     21  C   UNK A   2       1.833   7.606  20.072  0.00  0.00    +0.000 A 
ATOM     22  C   UNK A   2       1.133   8.808  20.247  0.00  0.00    +0.000 A 
BRANCH  20  23
ATOM     23  C   UNK A   2       3.262   6.063  18.668  0.00  0.00    +0.000 A 
ATOM     24  C   UNK A   2       3.199   5.019  19.610  0.00  0.00    +0.000 A 
ATOM     25  C   UNK A   2       3.952   3.853  19.463  0.00  0.00    +0.000 A 
ATOM     26  C   UNK A   2       4.774   3.697  18.354  0.00  0.00    +0.000 A 
ATOM     27  C   UNK A   2       4.844   4.705  17.398  0.00  0.00    +0.000 A 
ATOM     28  C   UNK A   2       4.101   5.878  17.557  0.00  0.00    +0.000 A 
ENDBRANCH  20  23
ENDBRANCH  14  17
ENDBRANCH   7  13
BRANCH   1  29
ATOM     29  CB  ILE A   1      -5.966  14.709  23.827  0.00  0.00    +0.000 C 
ATOM     30  CG2 ILE A   1      -7.384  14.130  23.725  0.00  0.00    +0.000 C 
BRANCH  29  32
ATOM     31  CD1 ILE A   1      -7.259  16.876  23.324  0.00  0.00    +0.000 C 
ATOM     32  CG1 ILE A   1      -6.039  16.245  23.984  0.00  0.00    +0.000 C 
ENDBRANCH  29  32
ENDBRANCH   1  29
TORSDOF 5
ENDMDL
MODEL 8
REMARK VINA RESULT:      -7.9      0.877      1.340
REMARK  Name = 
REMARK  7 active torsions:
REMARK  status: ('A' for Active; 'I' for Inactive)
REMARK    1  A    between atoms: CD1_1  and  CG1_2
REMARK    2  A    between atoms: CG1_2  and  CB_3
REMARK    3  A    between atoms: CB_3  and  CG2_4
REMARK    4  A    between atoms: CB_3  and  CA_5
REMARK    5  A    between atoms: C_11  and  N_12
REMARK    6  A    between atoms: C_13  and  C_15
REMARK    7  A    between atoms: C_18  and  C_19
REMARK                            x       y       z     vdW  Elec       q    Type
REMARK                         _______ _______ _______ _____ _____    ______ ____
ROOT
ATOM      1  CA  ILE A   1       5.110   5.290  17.449  0.00  0.00    +0.000 C 
ATOM      2  N   ILE A   1       4.091   4.400  18.024  0.00  0.00    +0.000 N 
ATOM      3  C   UNK A   2       3.254   4.864  19.023  0.00  0.00    +0.000 C 
ATOM      4  O   UNK A   2       2.647   4.099  19.760  0.00  0.00    +0.000 OA
ATOM      5  C   UNK A   2       3.313   6.384  19.201  0.00  0.00    +0.000 C 
ATOM      6  C   UNK A   2       2.058   7.014  19.776  0.00  0.00    +0.000 C 
ATOM      7  C   UNK A   2       2.078   8.415  19.155  0.00  0.00    +0.000 C 
ATOM      8  C   UNK A   2       2.636   8.184  17.744  0.00  0.00    +0.000 C 
ATOM      9  N   UNK A   2       3.459   7.008  17.889  0.00  0.00    +0.000 N 
ATOM     10  C   ILE A   1       4.428   6.603  16.991  0.00  0.00    +0.000 C 
ATOM     11  O   ILE A   1       4.776   7.269  16.024  0.00  0.00    +0.000 OA
ATOM     12  H   ILE A   1       4.188   3.394  17.979  0.00  0.00    +0.000 HD
ENDROOT
BRANCH   7  13
ATOM     13  N   UNK A   2       0.776   9.036  19.173  0.00  0.00    +0.000 N 
ATOM     14  C   UNK A   2       0.624  10.351  18.785  0.00  0.00    +0.000 C 
ATOM     15  O   UNK A   2       1.552  11.064  18.429  0.00  0.00    +0.000 OA
ATOM     16  H   UNK A   2      -0.043   8.443  19.218  0.00  0.00    +0.000 HD
BRANCH  14  17
ATOM     17  C   UNK A   2      -0.768  10.848  18.774  0.00  0.00    +0.000 A 
ATOM     18  C   UNK A   2      -1.670  10.411  17.805  0.00  0.00    +0.000 A 
ATOM     19  C   UNK A   2      -2.981  10.888  17.818  0.00  0.00    +0.000 A 
ATOM     20  C   UNK A   2      -3.436  11.781  18.804  0.00  0.00    +0.000 A 
ATOM     21  C   UNK A   2      -2.504  12.206  19.771  0.00  0.00    +0.000 A 
ATOM     22  C   UNK A   2      -1.179  11.748  19.759  0.00  0.00    +0.000 A 
BRANCH  20  23
ATOM     23  C   UNK A   2      -4.850  12.214  18.828  0.00  0.00    +0.000 A 
ATOM     24  C   UNK A   2      -5.317  13.098  19.820  0.00  0.00    +0.000 A 
ATOM     25  C   UNK A   2      -6.654  13.497  19.874  0.00  0.00    +0.000 A 
ATOM     26  C   UNK A   2      -7.552  13.035  18.921  0.00  0.00    +0.000 A 
ATOM     27  C   UNK A   2      -7.116  12.174  17.919  0.00  0.00    +0.000 A 
ATOM     28  C   UNK A   2      -5.780  11.763  17.877  0.00  0.00    +0.000 A 
ENDBRANCH  20  23
ENDBRANCH  14  17
ENDBRANCH   7  13
BRANCH   1  29
ATOM     29  CB  ILE A   1       5.970   4.619  16.364  0.00  0.00    +0.000 C 
ATOM     30  CG2 ILE A   1       5.465   3.217  16.000  0.00  0.00    +0.000 C 
BRANCH  29  32
ATOM     31  CD1 ILE A   1       7.729   4.909  18.218  0.00  0.00    +0.000 C 
ATOM     32  CG1 ILE A   1       7.461   4.551  16.761  0.00  0.00    +0.000 C 
ENDBRANCH  29  32
ENDBRANCH   1  29
TORSDOF 5
ENDMDL
MODEL 9
REMARK VINA RESULT:      -7.9      6.913     10.519
REMARK  Name = 
REMARK  7 active torsions:
REMARK  status: ('A' for Active; 'I' for Inactive)
REMARK    1  A    between atoms: CD1_1  and  CG1_2
REMARK    2  A    between atoms: CG1_2  and  CB_3
REMARK    3  A    between atoms: CB_3  and  CG2_4
REMARK    4  A    between atoms: CB_3  and  CA_5
REMARK    5  A    between atoms: C_11  and  N_12
REMARK    6  A    between atoms: C_13  and  C_15
REMARK    7  A    between atoms: C_18  and  C_19
REMARK                            x       y       z     vdW  Elec       q    Type
REMARK                         _______ _______ _______ _____ _____    ______ ____
ROOT
ATOM      1  CA  ILE A   1      10.559  13.970  19.577  0.00  0.00    +0.000 C 
ATOM      2  N   ILE A   1       9.239  14.477  19.174  0.00  0.00    +0.000 N 
ATOM      3  C   UNK A   2       8.488  13.782  18.244  0.00  0.00    +0.000 C 
ATOM      4  O   UNK A   2       7.574  14.315  17.628  0.00  0.00    +0.000 OA
ATOM      5  C   UNK A   2       9.026  12.376  17.962  0.00  0.00    +0.000 C 
ATOM      6  C   UNK A   2       7.992  11.373  17.487  0.00  0.00    +0.000 C 
ATOM      7  C   UNK A   2       8.553  10.046  18.010  0.00  0.00    +0.000 C 
ATOM      8  C   UNK A   2       9.173  10.418  19.365  0.00  0.00    +0.000 C 
ATOM      9  N   UNK A   2       9.533  11.807  19.208  0.00  0.00    +0.000 N 
ATOM     10  C   ILE A   1      10.415  12.493  20.020  0.00  0.00    +0.000 C 
ATOM     11  O   ILE A   1      11.081  11.960  20.898  0.00  0.00    +0.000 OA
ATOM     12  H   ILE A   1       9.001  15.455  19.274  0.00  0.00    +0.000 HD
ENDROOT
BRANCH   7  13
ATOM     13  N   UNK A   2       7.540   9.023  18.093  0.00  0.00    +0.000 N 
ATOM     14  C   UNK A   2       7.639   7.879  17.328  0.00  0.00    +0.000 C 
ATOM     15  O   UNK A   2       8.551   7.669  16.540  0.00  0.00    +0.000 OA
ATOM     16  H   UNK A   2       6.912   9.026  18.886  0.00  0.00    +0.000 HD
BRANCH  14  17
ATOM     17  C   UNK A   2       6.582   6.873  17.559  0.00  0.00    +0.000 A 
ATOM     18  C   UNK A   2       6.856   5.704  18.265  0.00  0.00    +0.000 A 
ATOM     19  C   UNK A   2       5.841   4.770  18.477  0.00  0.00    +0.000 A 
ATOM     20  C   UNK A   2       4.528   4.987  18.024  0.00  0.00    +0.000 A 
ATOM     21  C   UNK A   2       4.278   6.177  17.313  0.00  0.00    +0.000 A 
ATOM     22  C   UNK A   2       5.293   7.115  17.077  0.00  0.00    +0.000 A 
BRANCH  20  23
ATOM     23  C   UNK A   2       3.461   4.009  18.324  0.00  0.00    +0.000 A 
ATOM     24  C   UNK A   2       3.769   2.657  18.572  0.00  0.00    +0.000 A 
ATOM     25  C   UNK A   2       2.773   1.714  18.831  0.00  0.00    +0.000 A 
ATOM     26  C   UNK A   2       1.442   2.108  18.868  0.00  0.00    +0.000 A 
ATOM     27  C   UNK A   2       1.107   3.440  18.643  0.00  0.00    +0.000 A 
ATOM     28  C   UNK A   2       2.106   4.379  18.368  0.00  0.00    +0.000 A 
ENDBRANCH  20  23
ENDBRANCH  14  17
ENDBRANCH   7  13
BRANCH   1  29
ATOM     29  CB  ILE A   1      11.274  14.865  20.604  0.00  0.00    +0.000 C 
ATOM     30  CG2 ILE A   1      10.305  15.468  21.630  0.00  0.00    +0.000 C 
BRANCH  29  32
ATOM     31  CD1 ILE A   1      11.492  17.381  20.115  0.00  0.00    +0.000 C 
ATOM     32  CG1 ILE A   1      12.088  15.991  19.929  0.00  0.00    +0.000 C 
ENDBRANCH  29  32
ENDBRANCH   1  29
TORSDOF 5
ENDMDL
