MODEL 1
REMARK VINA RESULT:      -5.3      0.000      0.000
REMARK  Name = 
REMARK  22 active torsions:
REMARK  status: ('A' for Active; 'I' for Inactive)
REMARK    1  A    between atoms: C_1  and  C_2
REMARK    2  A    between atoms: C_2  and  C_3
REMARK    3  A    between atoms: C_3  and  C_4
REMARK    4  A    between atoms: C_4  and  C_5
REMARK    5  A    between atoms: C_5  and  C_6
REMARK    6  A    between atoms: C_6  and  C_7
REMARK    7  A    between atoms: C_7  and  C_8
REMARK    8  A    between atoms: C_8  and  S_9
REMARK    9  A    between atoms: S_9  and  N_12
REMARK   10  A    between atoms: N_12  and  C_13
REMARK   11  A    between atoms: C_13  and  C_14
REMARK   12  A    between atoms: C_14  and  C_15
REMARK   13  A    between atoms: C_15  and  N_16
REMARK   14  A    between atoms: N_16  and  C_17
REMARK   15  A    between atoms: C_17  and  C_18
REMARK   16  A    between atoms: C_18  and  C_19
REMARK   17  A    between atoms: C_19  and  C_20
REMARK   18  A    between atoms: C_20  and  N_21
REMARK   19  A    between atoms: N_21  and  C_22
REMARK   20  A    between atoms: C_22  and  C_23
REMARK   21  A    between atoms: C_23  and  C_24
REMARK   22  A    between atoms: C_24  and  N_25
REMARK                            x       y       z     vdW  Elec       q    Type
REMARK                         _______ _______ _______ _____ _____    ______ ____
ROOT
ATOM      1  C   UNL     1       3.290   7.091  17.743  0.00  0.00    +0.000 C 
ENDROOT
BRANCH   1   2
ATOM      2  C   UNL     1       2.570   6.363  18.899  0.00  0.00    +0.000 C 
BRANCH   2   3
ATOM      3  N   UNL     1       3.487   5.752  19.872  0.00  0.00    +0.000 NA
ATOM      4  H   UNL     1       3.924   6.481  20.463  0.00  0.00    +0.000 HD
BRANCH   3   5
ATOM      5  C   UNL     1       2.838   4.834  20.787  0.00  0.00    +0.000 C 
BRANCH   5   6
ATOM      6  C   UNL     1       1.379   4.704  20.376  0.00  0.00    +0.000 C 
BRANCH   6   7
ATOM      7  C   UNL     1       0.952   3.269  20.578  0.00  0.00    +0.000 C 
BRANCH   7   8
ATOM      8  C   UNL     1       0.817   2.548  19.254  0.00  0.00    +0.000 C 
BRANCH   8   9
ATOM      9  N   UNL     1       2.056   1.816  19.021  0.00  0.00    +0.000 NA
ATOM     10  H   UNL     1       1.911   0.819  19.310  0.00  0.00    +0.000 HD
BRANCH   9  11
ATOM     11  C   UNL     1       2.405   1.833  17.604  0.00  0.00    +0.000 C 
BRANCH  11  12
ATOM     12  C   UNL     1       2.813   3.250  17.221  0.00  0.00    +0.000 C 
BRANCH  12  13
ATOM     13  C   UNL     1       4.330   3.372  17.186  0.00  0.00    +0.000 C 
BRANCH  13  14
ATOM     14  N   UNL     1       4.881   3.122  18.509  0.00  0.00    +0.000 NA
ATOM     15  H   UNL     1       5.333   2.178  18.516  0.00  0.00    +0.000 HD
ATOM     16  H   UNL     1       4.093   3.109  19.194  0.00  0.00    +0.000 HD
ENDBRANCH  13  14
ENDBRANCH  12  13
ENDBRANCH  11  12
ENDBRANCH   9  11
ENDBRANCH   8   9
ENDBRANCH   7   8
ENDBRANCH   6   7
ENDBRANCH   5   6
ENDBRANCH   3   5
ENDBRANCH   2   3
ENDBRANCH   1   2
BRANCH   1  17
ATOM     17  C   UNL     1       4.824   7.264  17.889  0.00  0.00    +0.000 C 
BRANCH  17  18
ATOM     18  N   UNL     1       5.634   6.081  17.577  0.00  0.00    +0.000 NA
ATOM     19  H   UNL     1       5.040   5.225  17.667  0.00  0.00    +0.000 HD
BRANCH  18  20
ATOM     20  S   UNL     1       7.147   5.796  18.471  0.00  0.00    +0.000 S 
ATOM     21  O   UNL     1       7.831   4.504  18.030  0.00  0.00    +0.000 OA
ATOM     22  O   UNL     1       6.643   5.367  19.856  0.00  0.00    +0.000 OA
BRANCH  20  23
ATOM     23  C   UNL     1       8.227   7.240  18.649  0.00  0.00    +0.000 C 
BRANCH  23  24
ATOM     24  C   UNL     1       7.868   8.189  17.525  0.00  0.00    +0.000 C 
BRANCH  24  25
ATOM     25  C   UNL     1       8.366   9.590  17.787  0.00  0.00    +0.000 C 
BRANCH  25  26
ATOM     26  C   UNL     1       8.996   9.608  19.172  0.00  0.00    +0.000 C 
BRANCH  26  27
ATOM     27  C   UNL     1       9.993  10.747  19.291  0.00  0.00    +0.000 C 
BRANCH  27  28
ATOM     28  C   UNL     1       9.280  12.071  19.040  0.00  0.00    +0.000 C 
BRANCH  28  30
ATOM     29  C   UNL     1      10.886  13.885  19.667  0.00  0.00    +0.000 C 
ATOM     30  C   UNL     1      10.263  13.111  18.513  0.00  0.00    +0.000 C 
ENDBRANCH  28  30
ENDBRANCH  27  28
ENDBRANCH  26  27
ENDBRANCH  25  26
ENDBRANCH  24  25
ENDBRANCH  23  24
ENDBRANCH  20  23
ENDBRANCH  18  20
ENDBRANCH  17  18
ENDBRANCH   1  17
TORSDOF 21
ENDMDL
MODEL 2
REMARK VINA RESULT:      -5.2      3.848      6.575
REMARK  Name = 
REMARK  22 active torsions:
REMARK  status: ('A' for Active; 'I' for Inactive)
REMARK    1  A    between atoms: C_1  and  C_2
REMARK    2  A    between atoms: C_2  and  C_3
REMARK    3  A    between atoms: C_3  and  C_4
REMARK    4  A    between atoms: C_4  and  C_5
REMARK    5  A    between atoms: C_5  and  C_6
REMARK    6  A    between atoms: C_6  and  C_7
REMARK    7  A    between atoms: C_7  and  C_8
REMARK    8  A    between atoms: C_8  and  S_9
REMARK    9  A    between atoms: S_9  and  N_12
REMARK   10  A    between atoms: N_12  and  C_13
REMARK   11  A    between atoms: C_13  and  C_14
REMARK   12  A    between atoms: C_14  and  C_15
REMARK   13  A    between atoms: C_15  and  N_16
REMARK   14  A    between atoms: N_16  and  C_17
REMARK   15  A    between atoms: C_17  and  C_18
REMARK   16  A    between atoms: C_18  and  C_19
REMARK   17  A    between atoms: C_19  and  C_20
REMARK   18  A    between atoms: C_20  and  N_21
REMARK   19  A    between atoms: N_21  and  C_22
REMARK   20  A    between atoms: C_22  and  C_23
REMARK   21  A    between atoms: C_23  and  C_24
REMARK   22  A    between atoms: C_24  and  N_25
REMARK                            x       y       z     vdW  Elec       q    Type
REMARK                         _______ _______ _______ _____ _____    ______ ____
ROOT
ATOM      1  C   UNL     1       3.823   6.330  18.355  0.00  0.00    +0.000 C 
ENDROOT
BRANCH   1   2
ATOM      2  C   UNL     1       2.541   7.043  18.834  0.00  0.00    +0.000 C 
BRANCH   2   3
ATOM      3  N   UNL     1       2.401   7.085  20.296  0.00  0.00    +0.000 NA
ATOM      4  H   UNL     1       2.090   8.023  20.603  0.00  0.00    +0.000 HD
BRANCH   3   5
ATOM      5  C   UNL     1       1.419   6.152  20.813  0.00  0.00    +0.000 C 
BRANCH   5   6
ATOM      6  C   UNL     1       1.952   4.741  20.617  0.00  0.00    +0.000 C 
BRANCH   6   7
ATOM      7  C   UNL     1       0.779   3.793  20.546  0.00  0.00    +0.000 C 
BRANCH   7   8
ATOM      8  C   UNL     1       0.855   2.921  19.311  0.00  0.00    +0.000 C 
BRANCH   8   9
ATOM      9  N   UNL     1       2.136   3.179  18.665  0.00  0.00    +0.000 NA
ATOM     10  H   UNL     1       2.873   3.246  19.408  0.00  0.00    +0.000 HD
BRANCH   9  11
ATOM     11  C   UNL     1       2.492   2.085  17.769  0.00  0.00    +0.000 C 
BRANCH  11  12
ATOM     12  C   UNL     1       3.817   1.490  18.229  0.00  0.00    +0.000 C 
BRANCH  12  13
ATOM     13  C   UNL     1       4.186   2.025  19.606  0.00  0.00    +0.000 C 
BRANCH  13  14
ATOM     14  N   UNL     1       5.275   2.984  19.493  0.00  0.00    +0.000 NA
ATOM     15  H   UNL     1       5.914   2.682  18.722  0.00  0.00    +0.000 HD
ATOM     16  H   UNL     1       5.816   2.971  20.386  0.00  0.00    +0.000 HD
ENDBRANCH  13  14
ENDBRANCH  12  13
ENDBRANCH  11  12
ENDBRANCH   9  11
ENDBRANCH   8   9
ENDBRANCH   7   8
ENDBRANCH   6   7
ENDBRANCH   5   6
ENDBRANCH   3   5
ENDBRANCH   2   3
ENDBRANCH   1   2
BRANCH   1  17
ATOM     17  C   UNL     1       4.620   7.034  17.225  0.00  0.00    +0.000 C 
BRANCH  17  18
ATOM     18  N   UNL     1       4.985   6.192  16.080  0.00  0.00    +0.000 NA
ATOM     19  H   UNL     1       4.184   5.562  15.848  0.00  0.00    +0.000 HD
BRANCH  18  20
ATOM     20  S   UNL     1       6.460   5.199  16.159  0.00  0.00    +0.000 S 
ATOM     21  O   UNL     1       6.747   4.723  17.581  0.00  0.00    +0.000 OA
ATOM     22  O   UNL     1       7.575   6.242  16.002  0.00  0.00    +0.000 OA
BRANCH  20  23
ATOM     23  C   UNL     1       6.625   3.947  14.858  0.00  0.00    +0.000 C 
BRANCH  23  24
ATOM     24  C   UNL     1       7.195   4.655  13.648  0.00  0.00    +0.000 C 
BRANCH  24  25
ATOM     25  C   UNL     1       6.777   3.992  12.357  0.00  0.00    +0.000 C 
BRANCH  25  26
ATOM     26  C   UNL     1       5.390   3.403  12.565  0.00  0.00    +0.000 C 
BRANCH  26  27
ATOM     27  C   UNL     1       4.441   3.876  11.478  0.00  0.00    +0.000 C 
BRANCH  27  28
ATOM     28  C   UNL     1       3.821   2.667  10.786  0.00  0.00    +0.000 C 
BRANCH  28  30
ATOM     29  C   UNL     1       2.811   4.548   9.481  0.00  0.00    +0.000 C 
ATOM     30  C   UNL     1       2.645   3.099   9.917  0.00  0.00    +0.000 C 
ENDBRANCH  28  30
ENDBRANCH  27  28
ENDBRANCH  26  27
ENDBRANCH  25  26
ENDBRANCH  24  25
ENDBRANCH  23  24
ENDBRANCH  20  23
ENDBRANCH  18  20
ENDBRANCH  17  18
ENDBRANCH   1  17
TORSDOF 21
ENDMDL
MODEL 3
REMARK VINA RESULT:      -5.1      3.072      8.397
REMARK  Name = 
REMARK  22 active torsions:
REMARK  status: ('A' for Active; 'I' for Inactive)
REMARK    1  A    between atoms: C_1  and  C_2
REMARK    2  A    between atoms: C_2  and  C_3
REMARK    3  A    between atoms: C_3  and  C_4
REMARK    4  A    between atoms: C_4  and  C_5
REMARK    5  A    between atoms: C_5  and  C_6
REMARK    6  A    between atoms: C_6  and  C_7
REMARK    7  A    between atoms: C_7  and  C_8
REMARK    8  A    between atoms: C_8  and  S_9
REMARK    9  A    between atoms: S_9  and  N_12
REMARK   10  A    between atoms: N_12  and  C_13
REMARK   11  A    between atoms: C_13  and  C_14
REMARK   12  A    between atoms: C_14  and  C_15
REMARK   13  A    between atoms: C_15  and  N_16
REMARK   14  A    between atoms: N_16  and  C_17
REMARK   15  A    between atoms: C_17  and  C_18
REMARK   16  A    between atoms: C_18  and  C_19
REMARK   17  A    between atoms: C_19  and  C_20
REMARK   18  A    between atoms: C_20  and  N_21
REMARK   19  A    between atoms: N_21  and  C_22
REMARK   20  A    between atoms: C_22  and  C_23
REMARK   21  A    between atoms: C_23  and  C_24
REMARK   22  A    between atoms: C_24  and  N_25
REMARK                            x       y       z     vdW  Elec       q    Type
REMARK                         _______ _______ _______ _____ _____    ______ ____
ROOT
ATOM      1  C   UNL     1       5.613   4.803  15.878  0.00  0.00    +0.000 C 
ENDROOT
BRANCH   1   2
ATOM      2  C   UNL     1       7.012   5.262  16.345  0.00  0.00    +0.000 C 
BRANCH   2   3
ATOM      3  N   UNL     1       6.996   5.997  17.617  0.00  0.00    +0.000 NA
ATOM      4  H   UNL     1       7.797   5.715  18.208  0.00  0.00    +0.000 HD
BRANCH   3   5
ATOM      5  C   UNL     1       7.105   7.434  17.461  0.00  0.00    +0.000 C 
BRANCH   5   6
ATOM      6  C   UNL     1       8.276   7.918  18.302  0.00  0.00    +0.000 C 
BRANCH   6   7
ATOM      7  C   UNL     1       8.404   9.413  18.128  0.00  0.00    +0.000 C 
BRANCH   7   8
ATOM      8  C   UNL     1       9.189  10.031  19.265  0.00  0.00    +0.000 C 
BRANCH   8   9
ATOM      9  N   UNL     1       9.193  11.475  19.067  0.00  0.00    +0.000 NA
ATOM     10  H   UNL     1       8.593  11.912  19.807  0.00  0.00    +0.000 HD
BRANCH   9  11
ATOM     11  C   UNL     1      10.544  12.010  19.202  0.00  0.00    +0.000 C 
BRANCH  11  12
ATOM     12  C   UNL     1      11.297  11.760  17.900  0.00  0.00    +0.000 C 
BRANCH  12  13
ATOM     13  C   UNL     1      11.204  12.980  16.994  0.00  0.00    +0.000 C 
BRANCH  13  14
ATOM     14  N   UNL     1       9.928  13.652  17.191  0.00  0.00    +0.000 NA
ATOM     15  H   UNL     1       9.621  13.513  18.182  0.00  0.00    +0.000 HD
ATOM     16  H   UNL     1       9.222  13.203  16.567  0.00  0.00    +0.000 HD
ENDBRANCH  13  14
ENDBRANCH  12  13
ENDBRANCH  11  12
ENDBRANCH   9  11
ENDBRANCH   8   9
ENDBRANCH   7   8
ENDBRANCH   6   7
ENDBRANCH   5   6
ENDBRANCH   3   5
ENDBRANCH   2   3
ENDBRANCH   1   2
BRANCH   1  17
ATOM     17  C   UNL     1       5.000   3.594  16.631  0.00  0.00    +0.000 C 
BRANCH  17  18
ATOM     18  N   UNL     1       5.267   3.537  18.074  0.00  0.00    +0.000 NA
ATOM     19  H   UNL     1       6.216   3.129  18.231  0.00  0.00    +0.000 HD
BRANCH  18  20
ATOM     20  S   UNL     1       4.122   2.692  19.142  0.00  0.00    +0.000 S 
ATOM     21  O   UNL     1       4.830   2.034  20.324  0.00  0.00    +0.000 OA
ATOM     22  O   UNL     1       3.759   1.444  18.326  0.00  0.00    +0.000 OA
BRANCH  20  23
ATOM     23  C   UNL     1       2.609   3.608  19.539  0.00  0.00    +0.000 C 
BRANCH  23  24
ATOM     24  C   UNL     1       1.758   3.598  18.287  0.00  0.00    +0.000 C 
BRANCH  24  25
ATOM     25  C   UNL     1       1.539   4.989  17.740  0.00  0.00    +0.000 C 
BRANCH  25  26
ATOM     26  C   UNL     1       2.314   5.960  18.619  0.00  0.00    +0.000 C 
BRANCH  26  27
ATOM     27  C   UNL     1       3.414   6.639  17.823  0.00  0.00    +0.000 C 
BRANCH  27  28
ATOM     28  C   UNL     1       3.167   8.143  17.799  0.00  0.00    +0.000 C 
BRANCH  28  30
ATOM     29  C   UNL     1       1.372   9.521  18.869  0.00  0.00    +0.000 C 
ATOM     30  C   UNL     1       1.671   8.436  17.843  0.00  0.00    +0.000 C 
ENDBRANCH  28  30
ENDBRANCH  27  28
ENDBRANCH  26  27
ENDBRANCH  25  26
ENDBRANCH  24  25
ENDBRANCH  23  24
ENDBRANCH  20  23
ENDBRANCH  18  20
ENDBRANCH  17  18
ENDBRANCH   1  17
TORSDOF 21
ENDMDL
MODEL 4
REMARK VINA RESULT:      -5.0      3.820      6.635
REMARK  Name = 
REMARK  22 active torsions:
REMARK  status: ('A' for Active; 'I' for Inactive)
REMARK    1  A    between atoms: C_1  and  C_2
REMARK    2  A    between atoms: C_2  and  C_3
REMARK    3  A    between atoms: C_3  and  C_4
REMARK    4  A    between atoms: C_4  and  C_5
REMARK    5  A    between atoms: C_5  and  C_6
REMARK    6  A    between atoms: C_6  and  C_7
REMARK    7  A    between atoms: C_7  and  C_8
REMARK    8  A    between atoms: C_8  and  S_9
REMARK    9  A    between atoms: S_9  and  N_12
REMARK   10  A    between atoms: N_12  and  C_13
REMARK   11  A    between atoms: C_13  and  C_14
REMARK   12  A    between atoms: C_14  and  C_15
REMARK   13  A    between atoms: C_15  and  N_16
REMARK   14  A    between atoms: N_16  and  C_17
REMARK   15  A    between atoms: C_17  and  C_18
REMARK   16  A    between atoms: C_18  and  C_19
REMARK   17  A    between atoms: C_19  and  C_20
REMARK   18  A    between atoms: C_20  and  N_21
REMARK   19  A    between atoms: N_21  and  C_22
REMARK   20  A    between atoms: C_22  and  C_23
REMARK   21  A    between atoms: C_23  and  C_24
REMARK   22  A    between atoms: C_24  and  N_25
REMARK                            x       y       z     vdW  Elec       q    Type
REMARK                         _______ _______ _______ _____ _____    ______ ____
ROOT
ATOM      1  C   UNL     1       1.027   3.588  20.232  0.00  0.00    +0.000 C 
ENDROOT
BRANCH   1   2
ATOM      2  C   UNL     1       0.890   5.119  20.375  0.00  0.00    +0.000 C 
BRANCH   2   3
ATOM      3  N   UNL     1       2.145   5.792  20.735  0.00  0.00    +0.000 NA
ATOM      4  H   UNL     1       2.924   5.444  20.150  0.00  0.00    +0.000 HD
BRANCH   3   5
ATOM      5  C   UNL     1       2.113   7.228  20.539  0.00  0.00    +0.000 C 
BRANCH   5   6
ATOM      6  C   UNL     1       0.786   7.752  21.069  0.00  0.00    +0.000 C 
BRANCH   6   7
ATOM      7  C   UNL     1       0.807   9.261  21.002  0.00  0.00    +0.000 C 
BRANCH   7   8
ATOM      8  C   UNL     1       1.261   9.741  19.640  0.00  0.00    +0.000 C 
BRANCH   8   9
ATOM      9  N   UNL     1       0.162  10.494  19.048  0.00  0.00    +0.000 NA
ATOM     10  H   UNL     1       0.556  11.353  18.594  0.00  0.00    +0.000 HD
BRANCH   9  11
ATOM     11  C   UNL     1      -0.509   9.705  18.021  0.00  0.00    +0.000 C 
BRANCH  11  12
ATOM     12  C   UNL     1      -1.815  10.398  17.651  0.00  0.00    +0.000 C 
BRANCH  12  13
ATOM     13  C   UNL     1      -1.850  11.804  18.234  0.00  0.00    +0.000 C 
BRANCH  13  14
ATOM     14  N   UNL     1      -1.209  12.738  17.320  0.00  0.00    +0.000 NA
ATOM     15  H   UNL     1      -0.173  12.699  17.466  0.00  0.00    +0.000 HD
ATOM     16  H   UNL     1      -1.533  13.702  17.557  0.00  0.00    +0.000 HD
ENDBRANCH  13  14
ENDBRANCH  12  13
ENDBRANCH  11  12
ENDBRANCH   9  11
ENDBRANCH   8   9
ENDBRANCH   7   8
ENDBRANCH   6   7
ENDBRANCH   5   6
ENDBRANCH   3   5
ENDBRANCH   2   3
ENDBRANCH   1   2
BRANCH   1  17
ATOM     17  C   UNL     1       1.630   2.836  21.448  0.00  0.00    +0.000 C 
BRANCH  17  18
ATOM     18  N   UNL     1       3.094   2.729  21.471  0.00  0.00    +0.000 NA
ATOM     19  H   UNL     1       3.489   3.544  21.993  0.00  0.00    +0.000 HD
BRANCH  18  20
ATOM     20  S   UNL     1       3.985   2.575  19.938  0.00  0.00    +0.000 S 
ATOM     21  O   UNL     1       3.231   1.709  18.930  0.00  0.00    +0.000 OA
ATOM     22  O   UNL     1       5.125   1.616  20.308  0.00  0.00    +0.000 OA
BRANCH  20  23
ATOM     23  C   UNL     1       4.685   4.115  19.288  0.00  0.00    +0.000 C 
BRANCH  23  24
ATOM     24  C   UNL     1       4.078   4.320  17.917  0.00  0.00    +0.000 C 
BRANCH  24  25
ATOM     25  C   UNL     1       5.036   3.941  16.812  0.00  0.00    +0.000 C 
BRANCH  25  26
ATOM     26  C   UNL     1       5.086   5.098  15.824  0.00  0.00    +0.000 C 
BRANCH  26  27
ATOM     27  C   UNL     1       5.688   6.330  16.475  0.00  0.00    +0.000 C 
BRANCH  27  28
ATOM     28  C   UNL     1       7.143   6.052  16.836  0.00  0.00    +0.000 C 
BRANCH  28  30
ATOM     29  C   UNL     1       7.950   5.838  19.194  0.00  0.00    +0.000 C 
ATOM     30  C   UNL     1       7.531   6.810  18.100  0.00  0.00    +0.000 C 
ENDBRANCH  28  30
ENDBRANCH  27  28
ENDBRANCH  26  27
ENDBRANCH  25  26
ENDBRANCH  24  25
ENDBRANCH  23  24
ENDBRANCH  20  23
ENDBRANCH  18  20
ENDBRANCH  17  18
ENDBRANCH   1  17
TORSDOF 21
ENDMDL
MODEL 5
REMARK VINA RESULT:      -5.0      1.431      2.994
REMARK  Name = 
REMARK  22 active torsions:
REMARK  status: ('A' for Active; 'I' for Inactive)
REMARK    1  A    between atoms: C_1  and  C_2
REMARK    2  A    between atoms: C_2  and  C_3
REMARK    3  A    between atoms: C_3  and  C_4
REMARK    4  A    between atoms: C_4  and  C_5
REMARK    5  A    between atoms: C_5  and  C_6
REMARK    6  A    between atoms: C_6  and  C_7
REMARK    7  A    between atoms: C_7  and  C_8
REMARK    8  A    between atoms: C_8  and  S_9
REMARK    9  A    between atoms: S_9  and  N_12
REMARK   10  A    between atoms: N_12  and  C_13
REMARK   11  A    between atoms: C_13  and  C_14
REMARK   12  A    between atoms: C_14  and  C_15
REMARK   13  A    between atoms: C_15  and  N_16
REMARK   14  A    between atoms: N_16  and  C_17
REMARK   15  A    between atoms: C_17  and  C_18
REMARK   16  A    between atoms: C_18  and  C_19
REMARK   17  A    between atoms: C_19  and  C_20
REMARK   18  A    between atoms: C_20  and  N_21
REMARK   19  A    between atoms: N_21  and  C_22
REMARK   20  A    between atoms: C_22  and  C_23
REMARK   21  A    between atoms: C_23  and  C_24
REMARK   22  A    between atoms: C_24  and  N_25
REMARK                            x       y       z     vdW  Elec       q    Type
REMARK                         _______ _______ _______ _____ _____    ______ ____
ROOT
ATOM      1  C   UNL     1       3.794   3.445  17.054  0.00  0.00    +0.000 C 
ENDROOT
BRANCH   1   2
ATOM      2  C   UNL     1       2.287   3.696  17.272  0.00  0.00    +0.000 C 
BRANCH   2   3
ATOM      3  N   UNL     1       1.568   2.534  17.813  0.00  0.00    +0.000 NA
ATOM      4  H   UNL     1       2.114   1.668  17.659  0.00  0.00    +0.000 HD
BRANCH   3   5
ATOM      5  C   UNL     1       1.334   2.607  19.241  0.00  0.00    +0.000 C 
BRANCH   5   6
ATOM      6  C   UNL     1       2.656   2.365  19.955  0.00  0.00    +0.000 C 
BRANCH   6   7
ATOM      7  C   UNL     1       2.506   2.790  21.396  0.00  0.00    +0.000 C 
BRANCH   7   8
ATOM      8  C   UNL     1       1.988   4.210  21.496  0.00  0.00    +0.000 C 
BRANCH   8   9
ATOM      9  N   UNL     1       2.762   5.029  20.571  0.00  0.00    +0.000 NA
ATOM     10  H   UNL     1       2.912   4.480  19.690  0.00  0.00    +0.000 HD
BRANCH   9  11
ATOM     11  C   UNL     1       2.037   6.248  20.231  0.00  0.00    +0.000 C 
BRANCH  11  12
ATOM     12  C   UNL     1       2.773   6.950  19.096  0.00  0.00    +0.000 C 
BRANCH  12  13
ATOM     13  C   UNL     1       1.873   7.994  18.449  0.00  0.00    +0.000 C 
BRANCH  13  14
ATOM     14  N   UNL     1       2.604   8.710  17.415  0.00  0.00    +0.000 NA
ATOM     15  H   UNL     1       1.972   9.425  16.985  0.00  0.00    +0.000 HD
ATOM     16  H   UNL     1       2.873   8.028  16.671  0.00  0.00    +0.000 HD
ENDBRANCH  13  14
ENDBRANCH  12  13
ENDBRANCH  11  12
ENDBRANCH   9  11
ENDBRANCH   8   9
ENDBRANCH   7   8
ENDBRANCH   6   7
ENDBRANCH   5   6
ENDBRANCH   3   5
ENDBRANCH   2   3
ENDBRANCH   1   2
BRANCH   1  17
ATOM     17  C   UNL     1       4.753   4.567  17.530  0.00  0.00    +0.000 C 
BRANCH  17  18
ATOM     18  N   UNL     1       5.890   4.132  18.351  0.00  0.00    +0.000 NA
ATOM     19  H   UNL     1       5.606   4.131  19.357  0.00  0.00    +0.000 HD
BRANCH  18  20
ATOM     20  S   UNL     1       7.444   4.989  18.219  0.00  0.00    +0.000 S 
ATOM     21  O   UNL     1       8.554   4.074  17.706  0.00  0.00    +0.000 OA
ATOM     22  O   UNL     1       7.875   5.130  19.685  0.00  0.00    +0.000 OA
BRANCH  20  23
ATOM     23  C   UNL     1       7.362   6.633  17.459  0.00  0.00    +0.000 C 
BRANCH  23  24
ATOM     24  C   UNL     1       8.124   7.569  18.373  0.00  0.00    +0.000 C 
BRANCH  24  25
ATOM     25  C   UNL     1       8.139   8.985  17.847  0.00  0.00    +0.000 C 
BRANCH  25  26
ATOM     26  C   UNL     1       8.985   9.823  18.795  0.00  0.00    +0.000 C 
BRANCH  26  27
ATOM     27  C   UNL     1       9.745  10.890  18.029  0.00  0.00    +0.000 C 
BRANCH  27  28
ATOM     28  C   UNL     1       9.355  12.266  18.556  0.00  0.00    +0.000 C 
BRANCH  28  30
ATOM     29  C   UNL     1      11.190  13.322  17.222  0.00  0.00    +0.000 C 
ATOM     30  C   UNL     1       9.700  13.344  17.534  0.00  0.00    +0.000 C 
ENDBRANCH  28  30
ENDBRANCH  27  28
ENDBRANCH  26  27
ENDBRANCH  25  26
ENDBRANCH  24  25
ENDBRANCH  23  24
ENDBRANCH  20  23
ENDBRANCH  18  20
ENDBRANCH  17  18
ENDBRANCH   1  17
TORSDOF 21
ENDMDL
MODEL 6
REMARK VINA RESULT:      -4.9      1.631      2.999
REMARK  Name = 
REMARK  22 active torsions:
REMARK  status: ('A' for Active; 'I' for Inactive)
REMARK    1  A    between atoms: C_1  and  C_2
REMARK    2  A    between atoms: C_2  and  C_3
REMARK    3  A    between atoms: C_3  and  C_4
REMARK    4  A    between atoms: C_4  and  C_5
REMARK    5  A    between atoms: C_5  and  C_6
REMARK    6  A    between atoms: C_6  and  C_7
REMARK    7  A    between atoms: C_7  and  C_8
REMARK    8  A    between atoms: C_8  and  S_9
REMARK    9  A    between atoms: S_9  and  N_12
REMARK   10  A    between atoms: N_12  and  C_13
REMARK   11  A    between atoms: C_13  and  C_14
REMARK   12  A    between atoms: C_14  and  C_15
REMARK   13  A    between atoms: C_15  and  N_16
REMARK   14  A    between atoms: N_16  and  C_17
REMARK   15  A    between atoms: C_17  and  C_18
REMARK   16  A    between atoms: C_18  and  C_19
REMARK   17  A    between atoms: C_19  and  C_20
REMARK   18  A    between atoms: C_20  and  N_21
REMARK   19  A    between atoms: N_21  and  C_22
REMARK   20  A    between atoms: C_22  and  C_23
REMARK   21  A    between atoms: C_23  and  C_24
REMARK   22  A    between atoms: C_24  and  N_25
REMARK                            x       y       z     vdW  Elec       q    Type
REMARK                         _______ _______ _______ _____ _____    ______ ____
ROOT
ATOM      1  C   UNL     1       6.133   4.042  15.698  0.00  0.00    +0.000 C 
ENDROOT
BRANCH   1   2
ATOM      2  C   UNL     1       4.807   4.060  16.490  0.00  0.00    +0.000 C 
BRANCH   2   3
ATOM      3  N   UNL     1       4.315   2.722  16.846  0.00  0.00    +0.000 NA
ATOM      4  H   UNL     1       4.967   2.260  17.502  0.00  0.00    +0.000 HD
BRANCH   3   5
ATOM      5  C   UNL     1       3.026   2.734  17.508  0.00  0.00    +0.000 C 
BRANCH   5   6
ATOM      6  C   UNL     1       3.063   1.720  18.641  0.00  0.00    +0.000 C 
BRANCH   6   7
ATOM      7  C   UNL     1       4.296   1.979  19.474  0.00  0.00    +0.000 C 
BRANCH   7   8
ATOM      8  C   UNL     1       3.928   2.508  20.844  0.00  0.00    +0.000 C 
BRANCH   8   9
ATOM      9  N   UNL     1       2.474   2.590  20.911  0.00  0.00    +0.000 NA
ATOM     10  H   UNL     1       2.125   1.801  21.506  0.00  0.00    +0.000 HD
BRANCH   9  11
ATOM     11  C   UNL     1       2.057   3.844  21.529  0.00  0.00    +0.000 C 
BRANCH  11  12
ATOM     12  C   UNL     1       1.205   4.618  20.530  0.00  0.00    +0.000 C 
BRANCH  12  13
ATOM     13  C   UNL     1       2.094   5.348  19.532  0.00  0.00    +0.000 C 
BRANCH  13  14
ATOM     14  N   UNL     1       2.998   6.247  20.233  0.00  0.00    +0.000 NA
ATOM     15  H   UNL     1       3.552   6.788  19.530  0.00  0.00    +0.000 HD
ATOM     16  H   UNL     1       3.663   5.671  20.795  0.00  0.00    +0.000 HD
ENDBRANCH  13  14
ENDBRANCH  12  13
ENDBRANCH  11  12
ENDBRANCH   9  11
ENDBRANCH   8   9
ENDBRANCH   7   8
ENDBRANCH   6   7
ENDBRANCH   5   6
ENDBRANCH   3   5
ENDBRANCH   2   3
ENDBRANCH   1   2
BRANCH   1  17
ATOM     17  C   UNL     1       7.366   4.658  16.408  0.00  0.00    +0.000 C 
BRANCH  17  18
ATOM     18  N   UNL     1       7.497   4.357  17.839  0.00  0.00    +0.000 NA
ATOM     19  H   UNL     1       6.791   3.632  18.103  0.00  0.00    +0.000 HD
BRANCH  18  20
ATOM     20  S   UNL     1       7.394   5.681  19.023  0.00  0.00    +0.000 S 
ATOM     21  O   UNL     1       7.547   5.173  20.456  0.00  0.00    +0.000 OA
ATOM     22  O   UNL     1       5.896   6.017  19.022  0.00  0.00    +0.000 OA
BRANCH  20  23
ATOM     23  C   UNL     1       8.341   7.170  18.608  0.00  0.00    +0.000 C 
BRANCH  23  24
ATOM     24  C   UNL     1       7.435   8.035  17.759  0.00  0.00    +0.000 C 
BRANCH  24  25
ATOM     25  C   UNL     1       7.914   9.466  17.696  0.00  0.00    +0.000 C 
BRANCH  25  26
ATOM     26  C   UNL     1       9.056   9.617  18.691  0.00  0.00    +0.000 C 
BRANCH  26  27
ATOM     27  C   UNL     1       9.105  11.033  19.236  0.00  0.00    +0.000 C 
BRANCH  27  28
ATOM     28  C   UNL     1      10.057  11.869  18.388  0.00  0.00    +0.000 C 
BRANCH  28  30
ATOM     29  C   UNL     1      11.983  12.072  19.972  0.00  0.00    +0.000 C 
ATOM     30  C   UNL     1      11.502  11.467  18.660  0.00  0.00    +0.000 C 
ENDBRANCH  28  30
ENDBRANCH  27  28
ENDBRANCH  26  27
ENDBRANCH  25  26
ENDBRANCH  24  25
ENDBRANCH  23  24
ENDBRANCH  20  23
ENDBRANCH  18  20
ENDBRANCH  17  18
ENDBRANCH   1  17
TORSDOF 21
ENDMDL
MODEL 7
REMARK VINA RESULT:      -4.9      4.158      7.526
REMARK  Name = 
REMARK  22 active torsions:
REMARK  status: ('A' for Active; 'I' for Inactive)
REMARK    1  A    between atoms: C_1  and  C_2
REMARK    2  A    between atoms: C_2  and  C_3
REMARK    3  A    between atoms: C_3  and  C_4
REMARK    4  A    between atoms: C_4  and  C_5
REMARK    5  A    between atoms: C_5  and  C_6
REMARK    6  A    between atoms: C_6  and  C_7
REMARK    7  A    between atoms: C_7  and  C_8
REMARK    8  A    between atoms: C_8  and  S_9
REMARK    9  A    between atoms: S_9  and  N_12
REMARK   10  A    between atoms: N_12  and  C_13
REMARK   11  A    between atoms: C_13  and  C_14
REMARK   12  A    between atoms: C_14  and  C_15
REMARK   13  A    between atoms: C_15  and  N_16
REMARK   14  A    between atoms: N_16  and  C_17
REMARK   15  A    between atoms: C_17  and  C_18
REMARK   16  A    between atoms: C_18  and  C_19
REMARK   17  A    between atoms: C_19  and  C_20
REMARK   18  A    between atoms: C_20  and  N_21
REMARK   19  A    between atoms: N_21  and  C_22
REMARK   20  A    between atoms: C_22  and  C_23
REMARK   21  A    between atoms: C_23  and  C_24
REMARK   22  A    between atoms: C_24  and  N_25
REMARK                            x       y       z     vdW  Elec       q    Type
REMARK                         _______ _______ _______ _____ _____    ______ ____
ROOT
ATOM      1  C   UNL     1       2.944   3.582  19.362  0.00  0.00    +0.000 C 
ENDROOT
BRANCH   1   2
ATOM      2  C   UNL     1       2.493   4.812  18.546  0.00  0.00    +0.000 C 
BRANCH   2   3
ATOM      3  N   UNL     1       2.923   6.093  19.123  0.00  0.00    +0.000 NA
ATOM      4  H   UNL     1       2.832   6.852  18.426  0.00  0.00    +0.000 HD
BRANCH   3   5
ATOM      5  C   UNL     1       2.138   6.508  20.268  0.00  0.00    +0.000 C 
BRANCH   5   6
ATOM      6  C   UNL     1       1.809   7.985  20.111  0.00  0.00    +0.000 C 
BRANCH   6   7
ATOM      7  C   UNL     1       0.646   8.314  21.017  0.00  0.00    +0.000 C 
BRANCH   7   8
ATOM      8  C   UNL     1       0.260   9.773  20.902  0.00  0.00    +0.000 C 
BRANCH   8   9
ATOM      9  N   UNL     1       1.059  10.360  19.833  0.00  0.00    +0.000 NA
ATOM     10  H   UNL     1       1.638   9.601  19.399  0.00  0.00    +0.000 HD
BRANCH   9  11
ATOM     11  C   UNL     1       0.201  10.926  18.798  0.00  0.00    +0.000 C 
BRANCH  11  12
ATOM     12  C   UNL     1      -1.244  10.863  19.278  0.00  0.00    +0.000 C 
BRANCH  12  13
ATOM     13  C   UNL     1      -2.049  12.010  18.682  0.00  0.00    +0.000 C 
BRANCH  13  14
ATOM     14  N   UNL     1      -1.656  12.229  17.298  0.00  0.00    +0.000 NA
ATOM     15  H   UNL     1      -0.665  12.566  17.276  0.00  0.00    +0.000 HD
ATOM     16  H   UNL     1      -2.262  12.981  16.901  0.00  0.00    +0.000 HD
ENDBRANCH  13  14
ENDBRANCH  12  13
ENDBRANCH  11  12
ENDBRANCH   9  11
ENDBRANCH   8   9
ENDBRANCH   7   8
ENDBRANCH   6   7
ENDBRANCH   5   6
ENDBRANCH   3   5
ENDBRANCH   2   3
ENDBRANCH   1   2
BRANCH   1  17
ATOM     17  C   UNL     1       4.458   3.246  19.319  0.00  0.00    +0.000 C 
BRANCH  17  18
ATOM     18  N   UNL     1       5.178   3.695  18.121  0.00  0.00    +0.000 NA
ATOM     19  H   UNL     1       5.621   2.870  17.657  0.00  0.00    +0.000 HD
BRANCH  18  20
ATOM     20  S   UNL     1       6.412   4.970  18.269  0.00  0.00    +0.000 S 
ATOM     21  O   UNL     1       7.823   4.418  18.075  0.00  0.00    +0.000 OA
ATOM     22  O   UNL     1       6.439   5.236  19.780  0.00  0.00    +0.000 OA
BRANCH  20  23
ATOM     23  C   UNL     1       6.041   6.515  17.396  0.00  0.00    +0.000 C 
BRANCH  23  24
ATOM     24  C   UNL     1       5.349   6.126  16.108  0.00  0.00    +0.000 C 
BRANCH  24  25
ATOM     25  C   UNL     1       6.307   5.519  15.111  0.00  0.00    +0.000 C 
BRANCH  25  26
ATOM     26  C   UNL     1       5.529   4.517  14.270  0.00  0.00    +0.000 C 
BRANCH  26  27
ATOM     27  C   UNL     1       6.476   3.670  13.439  0.00  0.00    +0.000 C 
BRANCH  27  28
ATOM     28  C   UNL     1       5.762   3.205  12.175  0.00  0.00    +0.000 C 
BRANCH  28  30
ATOM     29  C   UNL     1       6.032   0.941  11.144  0.00  0.00    +0.000 C 
ATOM     30  C   UNL     1       6.675   2.306  11.349  0.00  0.00    +0.000 C 
ENDBRANCH  28  30
ENDBRANCH  27  28
ENDBRANCH  26  27
ENDBRANCH  25  26
ENDBRANCH  24  25
ENDBRANCH  23  24
ENDBRANCH  20  23
ENDBRANCH  18  20
ENDBRANCH  17  18
ENDBRANCH   1  17
TORSDOF 21
ENDMDL
MODEL 8
REMARK VINA RESULT:      -4.9      3.383     10.165
REMARK  Name = 
REMARK  22 active torsions:
REMARK  status: ('A' for Active; 'I' for Inactive)
REMARK    1  A    between atoms: C_1  and  C_2
REMARK    2  A    between atoms: C_2  and  C_3
REMARK    3  A    between atoms: C_3  and  C_4
REMARK    4  A    between atoms: C_4  and  C_5
REMARK    5  A    between atoms: C_5  and  C_6
REMARK    6  A    between atoms: C_6  and  C_7
REMARK    7  A    between atoms: C_7  and  C_8
REMARK    8  A    between atoms: C_8  and  S_9
REMARK    9  A    between atoms: S_9  and  N_12
REMARK   10  A    between atoms: N_12  and  C_13
REMARK   11  A    between atoms: C_13  and  C_14
REMARK   12  A    between atoms: C_14  and  C_15
REMARK   13  A    between atoms: C_15  and  N_16
REMARK   14  A    between atoms: N_16  and  C_17
REMARK   15  A    between atoms: C_17  and  C_18
REMARK   16  A    between atoms: C_18  and  C_19
REMARK   17  A    between atoms: C_19  and  C_20
REMARK   18  A    between atoms: C_20  and  N_21
REMARK   19  A    between atoms: N_21  and  C_22
REMARK   20  A    between atoms: C_22  and  C_23
REMARK   21  A    between atoms: C_23  and  C_24
REMARK   22  A    between atoms: C_24  and  N_25
REMARK                            x       y       z     vdW  Elec       q    Type
REMARK                         _______ _______ _______ _____ _____    ______ ____
ROOT
ATOM      1  C   UNL     1       8.076   6.844  18.715  0.00  0.00    +0.000 C 
ENDROOT
BRANCH   1   2
ATOM      2  C   UNL     1       7.756   7.802  17.547  0.00  0.00    +0.000 C 
BRANCH   2   3
ATOM      3  N   UNL     1       7.934   9.222  17.884  0.00  0.00    +0.000 NA
ATOM      4  H   UNL     1       7.068   9.605  18.301  0.00  0.00    +0.000 HD
BRANCH   3   5
ATOM      5  C   UNL     1       8.983   9.462  18.855  0.00  0.00    +0.000 C 
BRANCH   5   6
ATOM      6  C   UNL     1       9.283  10.953  18.873  0.00  0.00    +0.000 C 
BRANCH   6   7
ATOM      7  C   UNL     1      10.353  11.238  17.846  0.00  0.00    +0.000 C 
BRANCH   7   8
ATOM      8  C   UNL     1      11.389  12.200  18.387  0.00  0.00    +0.000 C 
BRANCH   8   9
ATOM      9  N   UNL     1      10.695  13.420  18.781  0.00  0.00    +0.000 NA
ATOM     10  H   UNL     1      11.272  13.908  19.508  0.00  0.00    +0.000 HD
BRANCH   9  11
ATOM     11  C   UNL     1      10.546  14.319  17.642  0.00  0.00    +0.000 C 
BRANCH  11  12
ATOM     12  C   UNL     1       9.681  15.500  18.065  0.00  0.00    +0.000 C 
BRANCH  12  13
ATOM     13  C   UNL     1      10.292  16.197  19.273  0.00  0.00    +0.000 C 
BRANCH  13  14
ATOM     14  N   UNL     1       9.598  15.793  20.486  0.00  0.00    +0.000 NA
ATOM     15  H   UNL     1      10.285  15.351  21.140  0.00  0.00    +0.000 HD
ATOM     16  H   UNL     1       8.885  15.074  20.231  0.00  0.00    +0.000 HD
ENDBRANCH  13  14
ENDBRANCH  12  13
ENDBRANCH  11  12
ENDBRANCH   9  11
ENDBRANCH   8   9
ENDBRANCH   7   8
ENDBRANCH   6   7
ENDBRANCH   5   6
ENDBRANCH   3   5
ENDBRANCH   2   3
ENDBRANCH   1   2
BRANCH   1  17
ATOM     17  C   UNL     1       7.548   5.392  18.576  0.00  0.00    +0.000 C 
BRANCH  17  18
ATOM     18  N   UNL     1       7.823   4.732  17.294  0.00  0.00    +0.000 NA
ATOM     19  H   UNL     1       8.699   5.128  16.885  0.00  0.00    +0.000 HD
BRANCH  18  20
ATOM     20  S   UNL     1       6.575   4.732  16.025  0.00  0.00    +0.000 S 
ATOM     21  O   UNL     1       6.535   3.405  15.270  0.00  0.00    +0.000 OA
ATOM     22  O   UNL     1       7.194   5.630  14.946  0.00  0.00    +0.000 OA
BRANCH  20  23
ATOM     23  C   UNL     1       4.967   5.409  16.517  0.00  0.00    +0.000 C 
BRANCH  23  24
ATOM     24  C   UNL     1       3.994   4.250  16.522  0.00  0.00    +0.000 C 
BRANCH  24  25
ATOM     25  C   UNL     1       3.979   3.529  17.849  0.00  0.00    +0.000 C 
BRANCH  25  26
ATOM     26  C   UNL     1       3.000   2.369  17.738  0.00  0.00    +0.000 C 
BRANCH  26  27
ATOM     27  C   UNL     1       2.385   2.058  19.090  0.00  0.00    +0.000 C 
BRANCH  27  28
ATOM     28  C   UNL     1       1.003   2.696  19.176  0.00  0.00    +0.000 C 
BRANCH  28  30
ATOM     29  C   UNL     1       1.627   2.888  21.592  0.00  0.00    +0.000 C 
ATOM     30  C   UNL     1       0.889   3.547  20.435  0.00  0.00    +0.000 C 
ENDBRANCH  28  30
ENDBRANCH  27  28
ENDBRANCH  26  27
ENDBRANCH  25  26
ENDBRANCH  24  25
ENDBRANCH  23  24
ENDBRANCH  20  23
ENDBRANCH  18  20
ENDBRANCH  17  18
ENDBRANCH   1  17
TORSDOF 21
ENDMDL
MODEL 9
REMARK VINA RESULT:      -4.9      3.968      6.169
REMARK  Name = 
REMARK  22 active torsions:
REMARK  status: ('A' for Active; 'I' for Inactive)
REMARK    1  A    between atoms: C_1  and  C_2
REMARK    2  A    between atoms: C_2  and  C_3
REMARK    3  A    between atoms: C_3  and  C_4
REMARK    4  A    between atoms: C_4  and  C_5
REMARK    5  A    between atoms: C_5  and  C_6
REMARK    6  A    between atoms: C_6  and  C_7
REMARK    7  A    between atoms: C_7  and  C_8
REMARK    8  A    between atoms: C_8  and  S_9
REMARK    9  A    between atoms: S_9  and  N_12
REMARK   10  A    between atoms: N_12  and  C_13
REMARK   11  A    between atoms: C_13  and  C_14
REMARK   12  A    between atoms: C_14  and  C_15
REMARK   13  A    between atoms: C_15  and  N_16
REMARK   14  A    between atoms: N_16  and  C_17
REMARK   15  A    between atoms: C_17  and  C_18
REMARK   16  A    between atoms: C_18  and  C_19
REMARK   17  A    between atoms: C_19  and  C_20
REMARK   18  A    between atoms: C_20  and  N_21
REMARK   19  A    between atoms: N_21  and  C_22
REMARK   20  A    between atoms: C_22  and  C_23
REMARK   21  A    between atoms: C_23  and  C_24
REMARK   22  A    between atoms: C_24  and  N_25
REMARK                            x       y       z     vdW  Elec       q    Type
REMARK                         _______ _______ _______ _____ _____    ______ ____
ROOT
ATOM      1  C   UNL     1       3.209   6.269  18.461  0.00  0.00    +0.000 C 
ENDROOT
BRANCH   1   2
ATOM      2  C   UNL     1       3.884   5.848  19.784  0.00  0.00    +0.000 C 
BRANCH   2   3
ATOM      3  N   UNL     1       3.215   4.725  20.455  0.00  0.00    +0.000 NA
ATOM      4  H   UNL     1       3.746   4.439  21.296  0.00  0.00    +0.000 HD
BRANCH   3   5
ATOM      5  C   UNL     1       1.877   5.037  20.917  0.00  0.00    +0.000 C 
BRANCH   5   6
ATOM      6  C   UNL     1       1.001   3.811  20.702  0.00  0.00    +0.000 C 
BRANCH   6   7
ATOM      7  C   UNL     1       0.868   3.574  19.216  0.00  0.00    +0.000 C 
BRANCH   7   8
ATOM      8  C   UNL     1       0.657   2.105  18.914  0.00  0.00    +0.000 C 
BRANCH   8   9
ATOM      9  N   UNL     1       1.875   1.601  18.294  0.00  0.00    +0.000 NA
ATOM     10  H   UNL     1       1.613   0.845  17.617  0.00  0.00    +0.000 HD
BRANCH   9  11
ATOM     11  C   UNL     1       2.553   2.660  17.554  0.00  0.00    +0.000 C 
BRANCH  11  12
ATOM     12  C   UNL     1       4.057   2.440  17.660  0.00  0.00    +0.000 C 
BRANCH  12  13
ATOM     13  C   UNL     1       4.373   1.489  18.806  0.00  0.00    +0.000 C 
BRANCH  13  14
ATOM     14  N   UNL     1       4.762   2.244  19.988  0.00  0.00    +0.000 NA
ATOM     15  H   UNL     1       3.935   2.784  20.333  0.00  0.00    +0.000 HD
ATOM     16  H   UNL     1       5.501   2.927  19.711  0.00  0.00    +0.000 HD
ENDBRANCH  13  14
ENDBRANCH  12  13
ENDBRANCH  11  12
ENDBRANCH   9  11
ENDBRANCH   8   9
ENDBRANCH   7   8
ENDBRANCH   6   7
ENDBRANCH   5   6
ENDBRANCH   3   5
ENDBRANCH   2   3
ENDBRANCH   1   2
BRANCH   1  17
ATOM     17  C   UNL     1       4.067   6.131  17.176  0.00  0.00    +0.000 C 
BRANCH  17  18
ATOM     18  N   UNL     1       5.243   7.005  17.096  0.00  0.00    +0.000 NA
ATOM     19  H   UNL     1       5.225   7.522  16.188  0.00  0.00    +0.000 HD
BRANCH  18  20
ATOM     20  S   UNL     1       6.867   6.305  17.298  0.00  0.00    +0.000 S 
ATOM     21  O   UNL     1       7.125   5.877  18.741  0.00  0.00    +0.000 OA
ATOM     22  O   UNL     1       7.776   7.540  17.225  0.00  0.00    +0.000 OA
BRANCH  20  23
ATOM     23  C   UNL     1       7.367   5.120  16.021  0.00  0.00    +0.000 C 
BRANCH  23  24
ATOM     24  C   UNL     1       6.215   5.028  15.043  0.00  0.00    +0.000 C 
BRANCH  24  25
ATOM     25  C   UNL     1       6.351   3.842  14.118  0.00  0.00    +0.000 C 
BRANCH  25  26
ATOM     26  C   UNL     1       5.067   3.735  13.308  0.00  0.00    +0.000 C 
BRANCH  26  27
ATOM     27  C   UNL     1       5.379   3.645  11.824  0.00  0.00    +0.000 C 
BRANCH  27  28
ATOM     28  C   UNL     1       4.918   2.294  11.291  0.00  0.00    +0.000 C 
BRANCH  28  30
ATOM     29  C   UNL     1       7.372   1.915  10.985  0.00  0.00    +0.000 C 
ATOM     30  C   UNL     1       6.048   1.275  11.379  0.00  0.00    +0.000 C 
ENDBRANCH  28  30
ENDBRANCH  27  28
ENDBRANCH  26  27
ENDBRANCH  25  26
ENDBRANCH  24  25
ENDBRANCH  23  24
ENDBRANCH  20  23
ENDBRANCH  18  20
ENDBRANCH  17  18
ENDBRANCH   1  17
TORSDOF 21
ENDMDL
