MODEL 1
REMARK VINA RESULT:      -6.8      0.000      0.000
REMARK  Name = 
REMARK  6 active torsions:
REMARK  status: ('A' for Active; 'I' for Inactive)
REMARK    1  A    between atoms: C_1  and  O_2
REMARK    2  A    between atoms: O_2  and  C_3
REMARK    3  A    between atoms: C_3  and  C_5
REMARK    4  A    between atoms: C_7  and  C_8
REMARK    5  A    between atoms: C_8  and  N_9
REMARK    6  A    between atoms: C_8  and  C_10
REMARK                            x       y       z     vdW  Elec       q    Type
REMARK                         _______ _______ _______ _____ _____    ______ ____
ROOT
ATOM      1  C   UNL     1       4.600   4.670  18.344  0.00  0.00    +0.000 C 
ENDROOT
BRANCH   1   2
ATOM      2  C   UNL     1       3.243   4.330  18.940  0.00  0.00    +0.000 A 
ATOM      3  C   UNL     1       2.919   4.736  20.250  0.00  0.00    +0.000 A 
ATOM      4  C   UNL     1       1.685   4.400  20.812  0.00  0.00    +0.000 A 
ATOM      5  C   UNL     1       0.762   3.647  20.082  0.00  0.00    +0.000 A 
ATOM      6  C   UNL     1       1.067   3.239  18.782  0.00  0.00    +0.000 A 
ATOM      7  C   UNL     1       2.297   3.580  18.210  0.00  0.00    +0.000 A 
ENDBRANCH   1   2
BRANCH   1  10
ATOM      8  C   UNL     1       5.712   5.285  15.957  0.00  0.00    +0.000 C 
ATOM      9  C   UNL     1       5.439   3.780  16.051  0.00  0.00    +0.000 C 
ATOM     10  C   UNL     1       4.526   4.744  16.795  0.00  0.00    +0.000 C 
BRANCH   8  11
ATOM     11  C   UNL     1       7.148   5.501  16.404  0.00  0.00    +0.000 C 
ATOM     12  O   UNL     1       7.880   4.563  16.670  0.00  0.00    +0.000 OA
BRANCH  11  14
ATOM     13  C   UNL     1       7.624   7.560  17.613  0.00  0.00    +0.000 C 
ATOM     14  O   UNL     1       7.627   6.772  16.473  0.00  0.00    +0.000 OA
ENDBRANCH  11  14
ENDBRANCH   8  11
ENDBRANCH   1  10
BRANCH   1  15
ATOM     15  N   UNL     1       5.602   3.683  18.756  0.00  0.00    +0.000 NA
ATOM     16  H   UNL     1       5.868   3.810  19.758  0.00  0.00    +0.000 HD
ATOM     17  H   UNL     1       6.454   3.776  18.156  0.00  0.00    +0.000 HD
ENDBRANCH   1  15
TORSDOF 5
ENDMDL
MODEL 2
REMARK VINA RESULT:      -6.8      0.497      1.213
REMARK  Name = 
REMARK  6 active torsions:
REMARK  status: ('A' for Active; 'I' for Inactive)
REMARK    1  A    between atoms: C_1  and  O_2
REMARK    2  A    between atoms: O_2  and  C_3
REMARK    3  A    between atoms: C_3  and  C_5
REMARK    4  A    between atoms: C_7  and  C_8
REMARK    5  A    between atoms: C_8  and  N_9
REMARK    6  A    between atoms: C_8  and  C_10
REMARK                            x       y       z     vdW  Elec       q    Type
REMARK                         _______ _______ _______ _____ _____    ______ ____
ROOT
ATOM      1  C   UNL     1       4.714   4.614  18.476  0.00  0.00    +0.000 C 
ENDROOT
BRANCH   1   2
ATOM      2  C   UNL     1       3.388   4.385  19.183  0.00  0.00    +0.000 A 
ATOM      3  C   UNL     1       2.696   3.168  19.022  0.00  0.00    +0.000 A 
ATOM      4  C   UNL     1       1.463   2.964  19.645  0.00  0.00    +0.000 A 
ATOM      5  C   UNL     1       0.897   3.972  20.429  0.00  0.00    +0.000 A 
ATOM      6  C   UNL     1       1.570   5.184  20.600  0.00  0.00    +0.000 A 
ATOM      7  C   UNL     1       2.809   5.391  19.986  0.00  0.00    +0.000 A 
ENDBRANCH   1   2
BRANCH   1  10
ATOM      8  C   UNL     1       5.631   5.420  16.063  0.00  0.00    +0.000 C 
ATOM      9  C   UNL     1       5.300   3.924  16.040  0.00  0.00    +0.000 C 
ATOM     10  C   UNL     1       4.503   4.843  16.954  0.00  0.00    +0.000 C 
BRANCH   8  11
ATOM     11  C   UNL     1       7.110   5.539  16.390  0.00  0.00    +0.000 C 
ATOM     12  O   UNL     1       7.810   4.552  16.537  0.00  0.00    +0.000 OA
BRANCH  11  14
ATOM     13  C   UNL     1       7.562   7.608  17.591  0.00  0.00    +0.000 C 
ATOM     14  O   UNL     1       7.661   6.779  16.485  0.00  0.00    +0.000 OA
ENDBRANCH  11  14
ENDBRANCH   8  11
ENDBRANCH   1  10
BRANCH   1  15
ATOM     15  N   UNL     1       5.614   3.479  18.696  0.00  0.00    +0.000 NA
ATOM     16  H   UNL     1       6.217   3.633  19.536  0.00  0.00    +0.000 HD
ATOM     17  H   UNL     1       6.221   3.344  17.855  0.00  0.00    +0.000 HD
ENDBRANCH   1  15
TORSDOF 5
ENDMDL
MODEL 3
REMARK VINA RESULT:      -6.6      0.885      1.106
REMARK  Name = 
REMARK  6 active torsions:
REMARK  status: ('A' for Active; 'I' for Inactive)
REMARK    1  A    between atoms: C_1  and  O_2
REMARK    2  A    between atoms: O_2  and  C_3
REMARK    3  A    between atoms: C_3  and  C_5
REMARK    4  A    between atoms: C_7  and  C_8
REMARK    5  A    between atoms: C_8  and  N_9
REMARK    6  A    between atoms: C_8  and  C_10
REMARK                            x       y       z     vdW  Elec       q    Type
REMARK                         _______ _______ _______ _____ _____    ______ ____
ROOT
ATOM      1  C   UNL     1       4.727   4.551  18.744  0.00  0.00    +0.000 C 
ENDROOT
BRANCH   1   2
ATOM      2  C   UNL     1       3.489   4.097  19.501  0.00  0.00    +0.000 A 
ATOM      3  C   UNL     1       2.282   4.815  19.387  0.00  0.00    +0.000 A 
ATOM      4  C   UNL     1       1.150   4.420  20.103  0.00  0.00    +0.000 A 
ATOM      5  C   UNL     1       1.208   3.310  20.950  0.00  0.00    +0.000 A 
ATOM      6  C   UNL     1       2.396   2.587  21.074  0.00  0.00    +0.000 A 
ATOM      7  C   UNL     1       3.530   2.972  20.352  0.00  0.00    +0.000 A 
ENDBRANCH   1   2
BRANCH   1  10
ATOM      8  C   UNL     1       5.457   5.435  16.295  0.00  0.00    +0.000 C 
ATOM      9  C   UNL     1       5.098   3.946  16.243  0.00  0.00    +0.000 C 
ATOM     10  C   UNL     1       4.396   4.842  17.255  0.00  0.00    +0.000 C 
BRANCH   8  11
ATOM     11  C   UNL     1       6.960   5.518  16.502  0.00  0.00    +0.000 C 
ATOM     12  O   UNL     1       7.640   4.516  16.642  0.00  0.00    +0.000 OA
BRANCH  11  14
ATOM     13  C   UNL     1       7.549   7.631  17.558  0.00  0.00    +0.000 C 
ATOM     14  O   UNL     1       7.554   6.742  16.496  0.00  0.00    +0.000 OA
ENDBRANCH  11  14
ENDBRANCH   8  11
ENDBRANCH   1  10
BRANCH   1  15
ATOM     15  N   UNL     1       5.784   3.540  18.839  0.00  0.00    +0.000 NA
ATOM     16  H   UNL     1       6.575   3.759  18.192  0.00  0.00    +0.000 HD
ATOM     17  H   UNL     1       5.393   2.599  18.601  0.00  0.00    +0.000 HD
ENDBRANCH   1  15
TORSDOF 5
ENDMDL
MODEL 4
REMARK VINA RESULT:      -6.5      0.907      1.200
REMARK  Name = 
REMARK  6 active torsions:
REMARK  status: ('A' for Active; 'I' for Inactive)
REMARK    1  A    between atoms: C_1  and  O_2
REMARK    2  A    between atoms: O_2  and  C_3
REMARK    3  A    between atoms: C_3  and  C_5
REMARK    4  A    between atoms: C_7  and  C_8
REMARK    5  A    between atoms: C_8  and  N_9
REMARK    6  A    between atoms: C_8  and  C_10
REMARK                            x       y       z     vdW  Elec       q    Type
REMARK                         _______ _______ _______ _____ _____    ______ ____
ROOT
ATOM      1  C   UNL     1       4.505   4.437  18.564  0.00  0.00    +0.000 C 
ENDROOT
BRANCH   1   2
ATOM      2  C   UNL     1       3.123   3.996  19.016  0.00  0.00    +0.000 A 
ATOM      3  C   UNL     1       2.624   4.392  20.273  0.00  0.00    +0.000 A 
ATOM      4  C   UNL     1       1.367   3.964  20.706  0.00  0.00    +0.000 A 
ATOM      5  C   UNL     1       0.593   3.128  19.897  0.00  0.00    +0.000 A 
ATOM      6  C   UNL     1       1.071   2.727  18.649  0.00  0.00    +0.000 A 
ATOM      7  C   UNL     1       2.325   3.160  18.205  0.00  0.00    +0.000 A 
ENDBRANCH   1   2
BRANCH   1  10
ATOM      8  C   UNL     1       5.510   5.677  16.381  0.00  0.00    +0.000 C 
ATOM      9  C   UNL     1       5.821   4.177  16.337  0.00  0.00    +0.000 C 
ATOM     10  C   UNL     1       4.548   4.649  17.026  0.00  0.00    +0.000 C 
BRANCH   8  11
ATOM     11  C   UNL     1       6.711   6.357  17.016  0.00  0.00    +0.000 C 
ATOM     12  O   UNL     1       6.914   7.551  16.876  0.00  0.00    +0.000 OA
BRANCH  11  14
ATOM     13  C   UNL     1       7.947   5.937  19.071  0.00  0.00    +0.000 C 
ATOM     14  O   UNL     1       7.553   5.614  17.782  0.00  0.00    +0.000 OA
ENDBRANCH  11  14
ENDBRANCH   8  11
ENDBRANCH   1  10
BRANCH   1  15
ATOM     15  N   UNL     1       5.514   3.453  18.966  0.00  0.00    +0.000 NA
ATOM     16  H   UNL     1       5.339   2.527  18.515  0.00  0.00    +0.000 HD
ATOM     17  H   UNL     1       5.500   3.341  20.006  0.00  0.00    +0.000 HD
ENDBRANCH   1  15
TORSDOF 5
ENDMDL
MODEL 5
REMARK VINA RESULT:      -6.5      1.951      2.854
REMARK  Name = 
REMARK  6 active torsions:
REMARK  status: ('A' for Active; 'I' for Inactive)
REMARK    1  A    between atoms: C_1  and  O_2
REMARK    2  A    between atoms: O_2  and  C_3
REMARK    3  A    between atoms: C_3  and  C_5
REMARK    4  A    between atoms: C_7  and  C_8
REMARK    5  A    between atoms: C_8  and  N_9
REMARK    6  A    between atoms: C_8  and  C_10
REMARK                            x       y       z     vdW  Elec       q    Type
REMARK                         _______ _______ _______ _____ _____    ______ ____
ROOT
ATOM      1  C   UNL     1       4.497   5.308  17.095  0.00  0.00    +0.000 C 
ENDROOT
BRANCH   1   2
ATOM      2  C   UNL     1       3.519   4.241  17.560  0.00  0.00    +0.000 A 
ATOM      3  C   UNL     1       2.176   4.574  17.830  0.00  0.00    +0.000 A 
ATOM      4  C   UNL     1       1.281   3.604  18.286  0.00  0.00    +0.000 A 
ATOM      5  C   UNL     1       1.713   2.290  18.488  0.00  0.00    +0.000 A 
ATOM      6  C   UNL     1       3.039   1.943  18.223  0.00  0.00    +0.000 A 
ATOM      7  C   UNL     1       3.937   2.908  17.758  0.00  0.00    +0.000 A 
ENDBRANCH   1   2
BRANCH   1  10
ATOM      8  C   UNL     1       7.005   4.527  16.454  0.00  0.00    +0.000 C 
ATOM      9  C   UNL     1       7.019   5.936  17.057  0.00  0.00    +0.000 C 
ATOM     10  C   UNL     1       5.951   4.949  17.507  0.00  0.00    +0.000 C 
BRANCH   8  11
ATOM     11  C   UNL     1       6.936   4.694  14.945  0.00  0.00    +0.000 C 
ATOM     12  O   UNL     1       7.606   5.532  14.367  0.00  0.00    +0.000 OA
BRANCH  11  14
ATOM     13  C   UNL     1       6.275   3.583  12.883  0.00  0.00    +0.000 C 
ATOM     14  O   UNL     1       6.131   3.862  14.232  0.00  0.00    +0.000 OA
ENDBRANCH  11  14
ENDBRANCH   8  11
ENDBRANCH   1  10
BRANCH   1  15
ATOM     15  N   UNL     1       4.125   6.616  17.642  0.00  0.00    +0.000 NA
ATOM     16  H   UNL     1       3.321   6.534  18.304  0.00  0.00    +0.000 HD
ATOM     17  H   UNL     1       3.866   7.262  16.861  0.00  0.00    +0.000 HD
ENDBRANCH   1  15
TORSDOF 5
ENDMDL
MODEL 6
REMARK VINA RESULT:      -6.4      1.492      2.116
REMARK  Name = 
REMARK  6 active torsions:
REMARK  status: ('A' for Active; 'I' for Inactive)
REMARK    1  A    between atoms: C_1  and  O_2
REMARK    2  A    between atoms: O_2  and  C_3
REMARK    3  A    between atoms: C_3  and  C_5
REMARK    4  A    between atoms: C_7  and  C_8
REMARK    5  A    between atoms: C_8  and  N_9
REMARK    6  A    between atoms: C_8  and  C_10
REMARK                            x       y       z     vdW  Elec       q    Type
REMARK                         _______ _______ _______ _____ _____    ______ ____
ROOT
ATOM      1  C   UNL     1       4.436   4.103  18.262  0.00  0.00    +0.000 C 
ENDROOT
BRANCH   1   2
ATOM      2  C   UNL     1       3.339   3.737  19.248  0.00  0.00    +0.000 A 
ATOM      3  C   UNL     1       2.034   4.243  19.083  0.00  0.00    +0.000 A 
ATOM      4  C   UNL     1       1.030   3.934  20.003  0.00  0.00    +0.000 A 
ATOM      5  C   UNL     1       1.314   3.123  21.105  0.00  0.00    +0.000 A 
ATOM      6  C   UNL     1       2.601   2.612  21.283  0.00  0.00    +0.000 A 
ATOM      7  C   UNL     1       3.608   2.911  20.361  0.00  0.00    +0.000 A 
ENDBRANCH   1   2
BRANCH   1  10
ATOM      8  C   UNL     1       6.507   5.839  18.151  0.00  0.00    +0.000 C 
ATOM      9  C   UNL     1       5.273   6.429  17.458  0.00  0.00    +0.000 C 
ATOM     10  C   UNL     1       5.079   5.470  18.624  0.00  0.00    +0.000 C 
BRANCH   8  11
ATOM     11  C   UNL     1       7.336   5.163  17.072  0.00  0.00    +0.000 C 
ATOM     12  O   UNL     1       8.070   4.224  17.329  0.00  0.00    +0.000 OA
BRANCH  11  14
ATOM     13  C   UNL     1       6.985   4.793  14.692  0.00  0.00    +0.000 C 
ATOM     14  O   UNL     1       7.224   5.602  15.790  0.00  0.00    +0.000 OA
ENDBRANCH  11  14
ENDBRANCH   8  11
ENDBRANCH   1  10
BRANCH   1  15
ATOM     15  N   UNL     1       3.906   4.140  16.896  0.00  0.00    +0.000 NA
ATOM     16  H   UNL     1       4.280   3.350  16.324  0.00  0.00    +0.000 HD
ATOM     17  H   UNL     1       4.163   5.048  16.444  0.00  0.00    +0.000 HD
ENDBRANCH   1  15
TORSDOF 5
ENDMDL
MODEL 7
REMARK VINA RESULT:      -6.4      1.319      1.390
REMARK  Name = 
REMARK  6 active torsions:
REMARK  status: ('A' for Active; 'I' for Inactive)
REMARK    1  A    between atoms: C_1  and  O_2
REMARK    2  A    between atoms: O_2  and  C_3
REMARK    3  A    between atoms: C_3  and  C_5
REMARK    4  A    between atoms: C_7  and  C_8
REMARK    5  A    between atoms: C_8  and  N_9
REMARK    6  A    between atoms: C_8  and  C_10
REMARK                            x       y       z     vdW  Elec       q    Type
REMARK                         _______ _______ _______ _____ _____    ______ ____
ROOT
ATOM      1  C   UNL     1       4.432   3.688  18.278  0.00  0.00    +0.000 C 
ENDROOT
BRANCH   1   2
ATOM      2  C   UNL     1       3.167   3.766  19.117  0.00  0.00    +0.000 A 
ATOM      3  C   UNL     1       2.812   4.968  19.761  0.00  0.00    +0.000 A 
ATOM      4  C   UNL     1       1.667   5.036  20.557  0.00  0.00    +0.000 A 
ATOM      5  C   UNL     1       0.865   3.906  20.732  0.00  0.00    +0.000 A 
ATOM      6  C   UNL     1       1.202   2.707  20.101  0.00  0.00    +0.000 A 
ATOM      7  C   UNL     1       2.342   2.635  19.294  0.00  0.00    +0.000 A 
ENDBRANCH   1   2
BRANCH   1  10
ATOM      8  C   UNL     1       5.949   5.508  16.976  0.00  0.00    +0.000 C 
ATOM      9  C   UNL     1       5.161   4.652  15.977  0.00  0.00    +0.000 C 
ATOM     10  C   UNL     1       4.563   4.926  17.350  0.00  0.00    +0.000 C 
BRANCH   8  11
ATOM     11  C   UNL     1       7.311   4.854  17.138  0.00  0.00    +0.000 C 
ATOM     12  O   UNL     1       7.930   4.428  16.178  0.00  0.00    +0.000 OA
BRANCH  11  14
ATOM     13  C   UNL     1       7.674   5.717  19.385  0.00  0.00    +0.000 C 
ATOM     14  O   UNL     1       7.855   4.779  18.381  0.00  0.00    +0.000 OA
ENDBRANCH  11  14
ENDBRANCH   8  11
ENDBRANCH   1  10
BRANCH   1  15
ATOM     15  N   UNL     1       4.443   2.457  17.482  0.00  0.00    +0.000 NA
ATOM     16  H   UNL     1       3.571   2.366  16.915  0.00  0.00    +0.000 HD
ATOM     17  H   UNL     1       4.532   1.630  18.116  0.00  0.00    +0.000 HD
ENDBRANCH   1  15
TORSDOF 5
ENDMDL
MODEL 8
REMARK VINA RESULT:      -6.3      1.131      1.610
REMARK  Name = 
REMARK  6 active torsions:
REMARK  status: ('A' for Active; 'I' for Inactive)
REMARK    1  A    between atoms: C_1  and  O_2
REMARK    2  A    between atoms: O_2  and  C_3
REMARK    3  A    between atoms: C_3  and  C_5
REMARK    4  A    between atoms: C_7  and  C_8
REMARK    5  A    between atoms: C_8  and  N_9
REMARK    6  A    between atoms: C_8  and  C_10
REMARK                            x       y       z     vdW  Elec       q    Type
REMARK                         _______ _______ _______ _____ _____    ______ ____
ROOT
ATOM      1  C   UNL     1       4.433   3.785  18.014  0.00  0.00    +0.000 C 
ENDROOT
BRANCH   1   2
ATOM      2  C   UNL     1       3.219   3.959  18.913  0.00  0.00    +0.000 A 
ATOM      3  C   UNL     1       2.152   3.041  18.854  0.00  0.00    +0.000 A 
ATOM      4  C   UNL     1       1.022   3.213  19.656  0.00  0.00    +0.000 A 
ATOM      5  C   UNL     1       0.935   4.306  20.522  0.00  0.00    +0.000 A 
ATOM      6  C   UNL     1       1.984   5.224  20.594  0.00  0.00    +0.000 A 
ATOM      7  C   UNL     1       3.122   5.052  19.800  0.00  0.00    +0.000 A 
ENDBRANCH   1   2
BRANCH   1  10
ATOM      8  C   UNL     1       5.711   5.660  16.543  0.00  0.00    +0.000 C 
ATOM      9  C   UNL     1       5.282   4.484  15.659  0.00  0.00    +0.000 C 
ATOM     10  C   UNL     1       4.439   4.841  16.875  0.00  0.00    +0.000 C 
BRANCH   8  11
ATOM     11  C   UNL     1       7.139   5.384  16.981  0.00  0.00    +0.000 C 
ATOM     12  O   UNL     1       7.823   4.540  16.426  0.00  0.00    +0.000 OA
BRANCH  11  14
ATOM     13  C   UNL     1       7.699   5.739  19.323  0.00  0.00    +0.000 C 
ATOM     14  O   UNL     1       7.667   6.123  17.992  0.00  0.00    +0.000 OA
ENDBRANCH  11  14
ENDBRANCH   8  11
ENDBRANCH   1  10
BRANCH   1  15
ATOM     15  N   UNL     1       4.463   2.433  17.450  0.00  0.00    +0.000 NA
ATOM     16  H   UNL     1       3.653   2.273  16.810  0.00  0.00    +0.000 HD
ATOM     17  H   UNL     1       4.438   1.729  18.224  0.00  0.00    +0.000 HD
ENDBRANCH   1  15
TORSDOF 5
ENDMDL
MODEL 9
REMARK VINA RESULT:      -6.3      1.067      1.726
REMARK  Name = 
REMARK  6 active torsions:
REMARK  status: ('A' for Active; 'I' for Inactive)
REMARK    1  A    between atoms: C_1  and  O_2
REMARK    2  A    between atoms: O_2  and  C_3
REMARK    3  A    between atoms: C_3  and  C_5
REMARK    4  A    between atoms: C_7  and  C_8
REMARK    5  A    between atoms: C_8  and  N_9
REMARK    6  A    between atoms: C_8  and  C_10
REMARK                            x       y       z     vdW  Elec       q    Type
REMARK                         _______ _______ _______ _____ _____    ______ ____
ROOT
ATOM      1  C   UNL     1       4.630   4.310  18.342  0.00  0.00    +0.000 C 
ENDROOT
BRANCH   1   2
ATOM      2  C   UNL     1       3.353   4.008  19.108  0.00  0.00    +0.000 A 
ATOM      3  C   UNL     1       2.764   2.729  19.037  0.00  0.00    +0.000 A 
ATOM      4  C   UNL     1       1.575   2.456  19.714  0.00  0.00    +0.000 A 
ATOM      5  C   UNL     1       0.948   3.454  20.465  0.00  0.00    +0.000 A 
ATOM      6  C   UNL     1       1.519   4.726  20.547  0.00  0.00    +0.000 A 
ATOM      7  C   UNL     1       2.715   5.003  19.879  0.00  0.00    +0.000 A 
ENDBRANCH   1   2
BRANCH   1  10
ATOM      8  C   UNL     1       4.886   4.696  15.678  0.00  0.00    +0.000 C 
ATOM      9  C   UNL     1       5.877   3.632  16.164  0.00  0.00    +0.000 C 
ATOM     10  C   UNL     1       4.544   3.785  16.883  0.00  0.00    +0.000 C 
BRANCH   8  11
ATOM     11  C   UNL     1       5.624   6.024  15.692  0.00  0.00    +0.000 C 
ATOM     12  O   UNL     1       5.104   7.046  15.279  0.00  0.00    +0.000 OA
BRANCH  11  14
ATOM     13  C   UNL     1       7.258   6.814  17.315  0.00  0.00    +0.000 C 
ATOM     14  O   UNL     1       6.881   6.068  16.210  0.00  0.00    +0.000 OA
ENDBRANCH  11  14
ENDBRANCH   8  11
ENDBRANCH   1  10
BRANCH   1  15
ATOM     15  N   UNL     1       5.787   3.721  19.023  0.00  0.00    +0.000 NA
ATOM     16  H   UNL     1       5.538   3.411  19.989  0.00  0.00    +0.000 HD
ATOM     17  H   UNL     1       6.560   4.424  19.072  0.00  0.00    +0.000 HD
ENDBRANCH   1  15
TORSDOF 5
ENDMDL
