MODEL 1
REMARK VINA RESULT:      -8.7      0.000      0.000
REMARK  Name = 
REMARK  4 active torsions:
REMARK  status: ('A' for Active; 'I' for Inactive)
REMARK    1  A    between atoms: C_1  and  C_2
REMARK    2  A    between atoms: C_3  and  N_4
REMARK    3  A    between atoms: N_18  and  C_19
REMARK    4  A    between atoms: N_25  and  C_26
REMARK                            x       y       z     vdW  Elec       q    Type
REMARK                         _______ _______ _______ _____ _____    ______ ____
ROOT
ATOM      1  C   UNL     1       1.209   4.009  19.676  0.00  0.00    +0.000 C 
ATOM      2  C   UNL     1       2.360   4.701  19.019  0.00  0.00    +0.000 A 
ATOM      3  C   UNL     1       2.796   5.952  19.286  0.00  0.00    +0.000 A 
ATOM      4  C   UNL     1       3.987   6.121  18.370  0.00  0.00    +0.000 A 
ATOM      5  O   UNL     1       4.578   7.171  18.166  0.00  0.00    +0.000 OA
ATOM      6  N   UNL     1       4.248   4.856  17.822  0.00  0.00    +0.000 N 
ATOM      7  N   UNL     1       3.119   4.048  18.038  0.00  0.00    +0.000 N 
ATOM      8  C   UNL     1       3.254   2.596  17.967  0.00  0.00    +0.000 C 
ENDROOT
BRANCH   3   9
ATOM      9  N   UNL     1       2.220   6.896  20.099  0.00  0.00    +0.000 NA
ATOM     10  C   UNL     1       1.666   7.980  19.640  0.00  0.00    +0.000 C 
ATOM     11  C   UNL     1       1.646   8.458  18.224  0.00  0.00    +0.000 C 
ATOM     12  C   UNL     1       1.018   9.565  17.829  0.00  0.00    +0.000 C 
ATOM     13  C   UNL     1       0.353  10.462  18.777  0.00  0.00    +0.000 C 
ATOM     14  O   UNL     1      -0.165  11.500  18.382  0.00  0.00    +0.000 OA
ATOM     15  C   UNL     1       0.357  10.077  20.196  0.00  0.00    +0.000 A 
ATOM     16  C   UNL     1      -0.281  10.927  21.118  0.00  0.00    +0.000 A 
ATOM     17  C   UNL     1      -0.324  10.585  22.465  0.00  0.00    +0.000 A 
ATOM     18  C   UNL     1       0.261   9.397  22.894  0.00  0.00    +0.000 A 
ATOM     19  C   UNL     1       0.903   8.553  21.979  0.00  0.00    +0.000 A 
ATOM     20  C   UNL     1       0.966   8.890  20.615  0.00  0.00    +0.000 A 
ENDBRANCH   3   9
BRANCH   6  21
ATOM     21  C   UNL     1       5.168   4.662  16.777  0.00  0.00    +0.000 A 
ATOM     22  C   UNL     1       4.677   4.535  15.470  0.00  0.00    +0.000 A 
ATOM     23  C   UNL     1       5.556   4.423  14.394  0.00  0.00    +0.000 A 
ATOM     24  C   UNL     1       6.931   4.397  14.623  0.00  0.00    +0.000 A 
ATOM     25  C   UNL     1       7.425   4.487  15.924  0.00  0.00    +0.000 A 
ATOM     26  C   UNL     1       6.546   4.632  16.999  0.00  0.00    +0.000 A 
ENDBRANCH   6  21
TORSDOF 2
ENDMDL
MODEL 2
REMARK VINA RESULT:      -7.7      2.744      8.707
REMARK  Name = 
REMARK  4 active torsions:
REMARK  status: ('A' for Active; 'I' for Inactive)
REMARK    1  A    between atoms: C_1  and  C_2
REMARK    2  A    between atoms: C_3  and  N_4
REMARK    3  A    between atoms: N_18  and  C_19
REMARK    4  A    between atoms: N_25  and  C_26
REMARK                            x       y       z     vdW  Elec       q    Type
REMARK                         _______ _______ _______ _____ _____    ______ ____
ROOT
ATOM      1  C   UNL     1      -1.116   9.819  17.534  0.00  0.00    +0.000 C 
ATOM      2  C   UNL     1      -0.584  10.352  18.826  0.00  0.00    +0.000 A 
ATOM      3  C   UNL     1       0.643  10.120  19.339  0.00  0.00    +0.000 A 
ATOM      4  C   UNL     1       0.654  10.918  20.623  0.00  0.00    +0.000 A 
ATOM      5  O   UNL     1       1.515  10.856  21.487  0.00  0.00    +0.000 OA
ATOM      6  N   UNL     1      -0.504  11.711  20.605  0.00  0.00    +0.000 N 
ATOM      7  N   UNL     1      -1.369  11.196  19.626  0.00  0.00    +0.000 N 
ATOM      8  C   UNL     1      -2.431  12.043  19.091  0.00  0.00    +0.000 C 
ENDROOT
BRANCH   3   9
ATOM      9  N   UNL     1       1.608   9.259  18.876  0.00  0.00    +0.000 NA
ATOM     10  C   UNL     1       1.801   8.076  19.383  0.00  0.00    +0.000 C 
ATOM     11  C   UNL     1       1.134   7.484  20.583  0.00  0.00    +0.000 C 
ATOM     12  C   UNL     1       1.360   6.243  21.014  0.00  0.00    +0.000 C 
ATOM     13  C   UNL     1       2.356   5.372  20.386  0.00  0.00    +0.000 C 
ATOM     14  O   UNL     1       2.575   4.257  20.847  0.00  0.00    +0.000 OA
ATOM     15  C   UNL     1       3.079   5.895  19.217  0.00  0.00    +0.000 A 
ATOM     16  C   UNL     1       4.036   5.067  18.602  0.00  0.00    +0.000 A 
ATOM     17  C   UNL     1       4.721   5.513  17.477  0.00  0.00    +0.000 A 
ATOM     18  C   UNL     1       4.451   6.779  16.962  0.00  0.00    +0.000 A 
ATOM     19  C   UNL     1       3.504   7.607  17.578  0.00  0.00    +0.000 A 
ATOM     20  C   UNL     1       2.811   7.176  18.723  0.00  0.00    +0.000 A 
ENDBRANCH   3   9
BRANCH   6  21
ATOM     21  C   UNL     1      -0.930  12.449  21.724  0.00  0.00    +0.000 A 
ATOM     22  C   UNL     1      -0.355  13.706  21.952  0.00  0.00    +0.000 A 
ATOM     23  C   UNL     1      -0.804  14.508  23.002  0.00  0.00    +0.000 A 
ATOM     24  C   UNL     1      -1.805  14.039  23.851  0.00  0.00    +0.000 A 
ATOM     25  C   UNL     1      -2.356  12.773  23.650  0.00  0.00    +0.000 A 
ATOM     26  C   UNL     1      -1.929  11.985  22.581  0.00  0.00    +0.000 A 
ENDBRANCH   6  21
TORSDOF 2
ENDMDL
MODEL 3
REMARK VINA RESULT:      -7.6      1.574      2.555
REMARK  Name = 
REMARK  4 active torsions:
REMARK  status: ('A' for Active; 'I' for Inactive)
REMARK    1  A    between atoms: C_1  and  C_2
REMARK    2  A    between atoms: C_3  and  N_4
REMARK    3  A    between atoms: N_18  and  C_19
REMARK    4  A    between atoms: N_25  and  C_26
REMARK                            x       y       z     vdW  Elec       q    Type
REMARK                         _______ _______ _______ _____ _____    ______ ____
ROOT
ATOM      1  C   UNL     1       0.951   5.306  20.322  0.00  0.00    +0.000 C 
ATOM      2  C   UNL     1       2.086   5.781  19.474  0.00  0.00    +0.000 A 
ATOM      3  C   UNL     1       2.216   7.011  18.931  0.00  0.00    +0.000 A 
ATOM      4  C   UNL     1       3.546   6.950  18.214  0.00  0.00    +0.000 A 
ATOM      5  O   UNL     1       3.974   7.798  17.445  0.00  0.00    +0.000 OA
ATOM      6  N   UNL     1       4.152   5.747  18.606  0.00  0.00    +0.000 N 
ATOM      7  N   UNL     1       3.166   4.932  19.187  0.00  0.00    +0.000 N 
ATOM      8  C   UNL     1       3.568   3.830  20.056  0.00  0.00    +0.000 C 
ENDROOT
BRANCH   3   9
ATOM      9  N   UNL     1       1.301   8.035  18.920  0.00  0.00    +0.000 NA
ATOM     10  C   UNL     1       0.963   8.692  19.991  0.00  0.00    +0.000 C 
ATOM     11  C   UNL     1       1.385   8.412  21.397  0.00  0.00    +0.000 C 
ATOM     12  C   UNL     1       1.025   9.162  22.438  0.00  0.00    +0.000 C 
ATOM     13  C   UNL     1       0.106  10.294  22.298  0.00  0.00    +0.000 C 
ATOM     14  O   UNL     1      -0.246  10.926  23.288  0.00  0.00    +0.000 OA
ATOM     15  C   UNL     1      -0.380  10.615  20.948  0.00  0.00    +0.000 A 
ATOM     16  C   UNL     1      -1.260  11.702  20.799  0.00  0.00    +0.000 A 
ATOM     17  C   UNL     1      -1.721  12.056  19.535  0.00  0.00    +0.000 A 
ATOM     18  C   UNL     1      -1.301  11.333  18.422  0.00  0.00    +0.000 A 
ATOM     19  C   UNL     1      -0.430  10.246  18.569  0.00  0.00    +0.000 A 
ATOM     20  C   UNL     1       0.034   9.868  19.841  0.00  0.00    +0.000 A 
ENDBRANCH   3   9
BRANCH   6  21
ATOM     21  C   UNL     1       5.319   5.256  17.995  0.00  0.00    +0.000 A 
ATOM     22  C   UNL     1       5.214   4.678  16.723  0.00  0.00    +0.000 A 
ATOM     23  C   UNL     1       6.356   4.252  16.044  0.00  0.00    +0.000 A 
ATOM     24  C   UNL     1       7.605   4.367  16.652  0.00  0.00    +0.000 A 
ATOM     25  C   UNL     1       7.712   4.908  17.933  0.00  0.00    +0.000 A 
ATOM     26  C   UNL     1       6.573   5.364  18.599  0.00  0.00    +0.000 A 
ENDBRANCH   6  21
TORSDOF 2
ENDMDL
MODEL 4
REMARK VINA RESULT:      -7.6      2.117      7.906
REMARK  Name = 
REMARK  4 active torsions:
REMARK  status: ('A' for Active; 'I' for Inactive)
REMARK    1  A    between atoms: C_1  and  C_2
REMARK    2  A    between atoms: C_3  and  N_4
REMARK    3  A    between atoms: N_18  and  C_19
REMARK    4  A    between atoms: N_25  and  C_26
REMARK                            x       y       z     vdW  Elec       q    Type
REMARK                         _______ _______ _______ _____ _____    ______ ____
ROOT
ATOM      1  C   UNL     1       2.029   6.797  21.186  0.00  0.00    +0.000 C 
ATOM      2  C   UNL     1       1.710   7.917  20.250  0.00  0.00    +0.000 A 
ATOM      3  C   UNL     1       2.182   8.066  18.993  0.00  0.00    +0.000 A 
ATOM      4  C   UNL     1       1.517   9.333  18.505  0.00  0.00    +0.000 A 
ATOM      5  O   UNL     1       1.796   9.926  17.474  0.00  0.00    +0.000 OA
ATOM      6  N   UNL     1       0.551   9.668  19.466  0.00  0.00    +0.000 N 
ATOM      7  N   UNL     1       0.829   8.939  20.634  0.00  0.00    +0.000 N 
ATOM      8  C   UNL     1      -0.223   8.754  21.630  0.00  0.00    +0.000 C 
ENDROOT
BRANCH   3   9
ATOM      9  N   UNL     1       3.139   7.318  18.353  0.00  0.00    +0.000 NA
ATOM     10  C   UNL     1       2.969   6.065  18.046  0.00  0.00    +0.000 C 
ATOM     11  C   UNL     1       1.812   5.192  18.411  0.00  0.00    +0.000 C 
ATOM     12  C   UNL     1       1.694   3.923  18.020  0.00  0.00    +0.000 C 
ATOM     13  C   UNL     1       2.745   3.245  17.258  0.00  0.00    +0.000 C 
ATOM     14  O   UNL     1       2.624   2.060  16.966  0.00  0.00    +0.000 OA
ATOM     15  C   UNL     1       3.932   4.028  16.888  0.00  0.00    +0.000 A 
ATOM     16  C   UNL     1       4.948   3.390  16.153  0.00  0.00    +0.000 A 
ATOM     17  C   UNL     1       6.075   4.103  15.759  0.00  0.00    +0.000 A 
ATOM     18  C   UNL     1       6.188   5.451  16.091  0.00  0.00    +0.000 A 
ATOM     19  C   UNL     1       5.182   6.086  16.829  0.00  0.00    +0.000 A 
ATOM     20  C   UNL     1       4.042   5.376  17.246  0.00  0.00    +0.000 A 
ENDBRANCH   3   9
BRANCH   6  21
ATOM     21  C   UNL     1      -0.139  10.893  19.447  0.00  0.00    +0.000 A 
ATOM     22  C   UNL     1      -1.423  10.927  18.888  0.00  0.00    +0.000 A 
ATOM     23  C   UNL     1      -2.177  12.100  18.920  0.00  0.00    +0.000 A 
ATOM     24  C   UNL     1      -1.634  13.256  19.478  0.00  0.00    +0.000 A 
ATOM     25  C   UNL     1      -0.342  13.238  20.004  0.00  0.00    +0.000 A 
ATOM     26  C   UNL     1       0.400  12.056  20.000  0.00  0.00    +0.000 A 
ENDBRANCH   6  21
TORSDOF 2
ENDMDL
MODEL 5
REMARK VINA RESULT:      -7.3      2.963      8.810
REMARK  Name = 
REMARK  4 active torsions:
REMARK  status: ('A' for Active; 'I' for Inactive)
REMARK    1  A    between atoms: C_1  and  C_2
REMARK    2  A    between atoms: C_3  and  N_4
REMARK    3  A    between atoms: N_18  and  C_19
REMARK    4  A    between atoms: N_25  and  C_26
REMARK                            x       y       z     vdW  Elec       q    Type
REMARK                         _______ _______ _______ _____ _____    ______ ____
ROOT
ATOM      1  C   UNL     1      -1.416   9.985  17.803  0.00  0.00    +0.000 C 
ATOM      2  C   UNL     1      -0.745  10.697  18.934  0.00  0.00    +0.000 A 
ATOM      3  C   UNL     1       0.538  10.539  19.326  0.00  0.00    +0.000 A 
ATOM      4  C   UNL     1       0.686  11.513  20.473  0.00  0.00    +0.000 A 
ATOM      5  O   UNL     1       1.643  11.574  21.230  0.00  0.00    +0.000 OA
ATOM      6  N   UNL     1      -0.478  12.296  20.480  0.00  0.00    +0.000 N 
ATOM      7  N   UNL     1      -1.444  11.647  19.693  0.00  0.00    +0.000 N 
ATOM      8  C   UNL     1      -2.575  12.410  19.173  0.00  0.00    +0.000 C 
ENDROOT
BRANCH   3   9
ATOM      9  N   UNL     1       1.455   9.621  18.880  0.00  0.00    +0.000 NA
ATOM     10  C   UNL     1       1.624   8.459  19.442  0.00  0.00    +0.000 C 
ATOM     11  C   UNL     1       0.978   7.956  20.693  0.00  0.00    +0.000 C 
ATOM     12  C   UNL     1       1.174   6.732  21.183  0.00  0.00    +0.000 C 
ATOM     13  C   UNL     1       2.117   5.793  20.571  0.00  0.00    +0.000 C 
ATOM     14  O   UNL     1       2.312   4.697  21.083  0.00  0.00    +0.000 OA
ATOM     15  C   UNL     1       2.818   6.226  19.353  0.00  0.00    +0.000 A 
ATOM     16  C   UNL     1       3.723   5.333  18.753  0.00  0.00    +0.000 A 
ATOM     17  C   UNL     1       4.385   5.694  17.584  0.00  0.00    +0.000 A 
ATOM     18  C   UNL     1       4.142   6.940  17.011  0.00  0.00    +0.000 A 
ATOM     19  C   UNL     1       3.246   7.833  17.611  0.00  0.00    +0.000 A 
ATOM     20  C   UNL     1       2.579   7.489  18.800  0.00  0.00    +0.000 A 
ENDBRANCH   3   9
BRANCH   6  21
ATOM     21  C   UNL     1      -0.782  13.187  21.525  0.00  0.00    +0.000 A 
ATOM     22  C   UNL     1      -1.442  12.687  22.656  0.00  0.00    +0.000 A 
ATOM     23  C   UNL     1      -1.692  13.514  23.751  0.00  0.00    +0.000 A 
ATOM     24  C   UNL     1      -1.316  14.856  23.704  0.00  0.00    +0.000 A 
ATOM     25  C   UNL     1      -0.691  15.368  22.567  0.00  0.00    +0.000 A 
ATOM     26  C   UNL     1      -0.413  14.532  21.484  0.00  0.00    +0.000 A 
ENDBRANCH   6  21
TORSDOF 2
ENDMDL
MODEL 6
REMARK VINA RESULT:      -7.2      2.697      8.323
REMARK  Name = 
REMARK  4 active torsions:
REMARK  status: ('A' for Active; 'I' for Inactive)
REMARK    1  A    between atoms: C_1  and  C_2
REMARK    2  A    between atoms: C_3  and  N_4
REMARK    3  A    between atoms: N_18  and  C_19
REMARK    4  A    between atoms: N_25  and  C_26
REMARK                            x       y       z     vdW  Elec       q    Type
REMARK                         _______ _______ _______ _____ _____    ______ ____
ROOT
ATOM      1  C   UNL     1      -0.528   9.633  17.859  0.00  0.00    +0.000 C 
ATOM      2  C   UNL     1      -0.080  10.196  19.170  0.00  0.00    +0.000 A 
ATOM      3  C   UNL     1       0.656   9.554  20.104  0.00  0.00    +0.000 A 
ATOM      4  C   UNL     1       0.841  10.589  21.190  0.00  0.00    +0.000 A 
ATOM      5  O   UNL     1       1.306  10.374  22.300  0.00  0.00    +0.000 OA
ATOM      6  N   UNL     1       0.373  11.803  20.665  0.00  0.00    +0.000 N 
ATOM      7  N   UNL     1      -0.397  11.515  19.525  0.00  0.00    +0.000 N 
ATOM      8  C   UNL     1      -0.648  12.569  18.546  0.00  0.00    +0.000 C 
ENDROOT
BRANCH   3   9
ATOM      9  N   UNL     1       1.034   8.235  20.126  0.00  0.00    +0.000 NA
ATOM     10  C   UNL     1       1.931   7.744  19.320  0.00  0.00    +0.000 C 
ATOM     11  C   UNL     1       2.611   8.442  18.187  0.00  0.00    +0.000 C 
ATOM     12  C   UNL     1       3.552   7.877  17.431  0.00  0.00    +0.000 C 
ATOM     13  C   UNL     1       3.946   6.476  17.600  0.00  0.00    +0.000 C 
ATOM     14  O   UNL     1       4.775   5.977  16.848  0.00  0.00    +0.000 OA
ATOM     15  C   UNL     1       3.298   5.711  18.674  0.00  0.00    +0.000 A 
ATOM     16  C   UNL     1       3.669   4.365  18.850  0.00  0.00    +0.000 A 
ATOM     17  C   UNL     1       3.101   3.614  19.873  0.00  0.00    +0.000 A 
ATOM     18  C   UNL     1       2.168   4.202  20.723  0.00  0.00    +0.000 A 
ATOM     19  C   UNL     1       1.791   5.540  20.545  0.00  0.00    +0.000 A 
ATOM     20  C   UNL     1       2.348   6.309  19.508  0.00  0.00    +0.000 A 
ENDBRANCH   3   9
BRANCH   6  21
ATOM     21  C   UNL     1       0.212  12.955  21.455  0.00  0.00    +0.000 A 
ATOM     22  C   UNL     1       1.120  14.010  21.289  0.00  0.00    +0.000 A 
ATOM     23  C   UNL     1       0.952  15.203  21.991  0.00  0.00    +0.000 A 
ATOM     24  C   UNL     1      -0.104  15.332  22.892  0.00  0.00    +0.000 A 
ATOM     25  C   UNL     1      -0.990  14.273  23.088  0.00  0.00    +0.000 A 
ATOM     26  C   UNL     1      -0.840  13.091  22.361  0.00  0.00    +0.000 A 
ENDBRANCH   6  21
TORSDOF 2
ENDMDL
MODEL 7
REMARK VINA RESULT:      -6.7      7.993      9.523
REMARK  Name = 
REMARK  4 active torsions:
REMARK  status: ('A' for Active; 'I' for Inactive)
REMARK    1  A    between atoms: C_1  and  C_2
REMARK    2  A    between atoms: C_3  and  N_4
REMARK    3  A    between atoms: N_18  and  C_19
REMARK    4  A    between atoms: N_25  and  C_26
REMARK                            x       y       z     vdW  Elec       q    Type
REMARK                         _______ _______ _______ _____ _____    ______ ____
ROOT
ATOM      1  C   UNL     1       6.805  17.717  20.191  0.00  0.00    +0.000 C 
ATOM      2  C   UNL     1       7.043  16.437  19.456  0.00  0.00    +0.000 A 
ATOM      3  C   UNL     1       6.201  15.855  18.574  0.00  0.00    +0.000 A 
ATOM      4  C   UNL     1       6.949  14.622  18.121  0.00  0.00    +0.000 A 
ATOM      5  O   UNL     1       6.479  13.717  17.448  0.00  0.00    +0.000 OA
ATOM      6  N   UNL     1       8.251  14.740  18.632  0.00  0.00    +0.000 N 
ATOM      7  N   UNL     1       8.239  15.725  19.633  0.00  0.00    +0.000 N 
ATOM      8  C   UNL     1       9.493  16.357  20.032  0.00  0.00    +0.000 C 
ENDROOT
BRANCH   3   9
ATOM      9  N   UNL     1       4.915  16.221  18.260  0.00  0.00    +0.000 NA
ATOM     10  C   UNL     1       3.872  15.718  18.853  0.00  0.00    +0.000 C 
ATOM     11  C   UNL     1       3.847  14.612  19.859  0.00  0.00    +0.000 C 
ATOM     12  C   UNL     1       2.734  14.180  20.452  0.00  0.00    +0.000 C 
ATOM     13  C   UNL     1       1.413  14.707  20.102  0.00  0.00    +0.000 C 
ATOM     14  O   UNL     1       0.408  14.245  20.630  0.00  0.00    +0.000 OA
ATOM     15  C   UNL     1       1.351  15.777  19.095  0.00  0.00    +0.000 A 
ATOM     16  C   UNL     1       0.089  16.295  18.752  0.00  0.00    +0.000 A 
ATOM     17  C   UNL     1      -0.011  17.327  17.825  0.00  0.00    +0.000 A 
ATOM     18  C   UNL     1       1.143  17.846  17.244  0.00  0.00    +0.000 A 
ATOM     19  C   UNL     1       2.400  17.326  17.579  0.00  0.00    +0.000 A 
ATOM     20  C   UNL     1       2.517  16.275  18.505  0.00  0.00    +0.000 A 
ENDBRANCH   3   9
BRANCH   6  21
ATOM     21  C   UNL     1       9.182  13.688  18.573  0.00  0.00    +0.000 A 
ATOM     22  C   UNL     1       9.137  12.700  19.567  0.00  0.00    +0.000 A 
ATOM     23  C   UNL     1       9.986  11.596  19.505  0.00  0.00    +0.000 A 
ATOM     24  C   UNL     1      10.913  11.494  18.468  0.00  0.00    +0.000 A 
ATOM     25  C   UNL     1      10.987  12.491  17.496  0.00  0.00    +0.000 A 
ATOM     26  C   UNL     1      10.115  13.580  17.541  0.00  0.00    +0.000 A 
ENDBRANCH   6  21
TORSDOF 2
ENDMDL
MODEL 8
REMARK VINA RESULT:      -6.7      4.795      7.927
REMARK  Name = 
REMARK  4 active torsions:
REMARK  status: ('A' for Active; 'I' for Inactive)
REMARK    1  A    between atoms: C_1  and  C_2
REMARK    2  A    between atoms: C_3  and  N_4
REMARK    3  A    between atoms: N_18  and  C_19
REMARK    4  A    between atoms: N_25  and  C_26
REMARK                            x       y       z     vdW  Elec       q    Type
REMARK                         _______ _______ _______ _____ _____    ______ ____
ROOT
ATOM      1  C   UNL     1      -0.714  14.238  20.205  0.00  0.00    +0.000 C 
ATOM      2  C   UNL     1      -0.736  12.802  19.790  0.00  0.00    +0.000 A 
ATOM      3  C   UNL     1      -1.826  12.094  19.423  0.00  0.00    +0.000 A 
ATOM      4  C   UNL     1      -1.272  10.731  19.080  0.00  0.00    +0.000 A 
ATOM      5  O   UNL     1      -1.940   9.731  18.861  0.00  0.00    +0.000 OA
ATOM      6  N   UNL     1       0.125  10.861  19.076  0.00  0.00    +0.000 N 
ATOM      7  N   UNL     1       0.452  12.058  19.732  0.00  0.00    +0.000 N 
ATOM      8  C   UNL     1       1.763  12.662  19.511  0.00  0.00    +0.000 C 
ENDROOT
BRANCH   3   9
ATOM      9  N   UNL     1      -3.143  12.479  19.475  0.00  0.00    +0.000 NA
ATOM     10  C   UNL     1      -3.779  12.674  20.593  0.00  0.00    +0.000 C 
ATOM     11  C   UNL     1      -3.276  12.421  21.978  0.00  0.00    +0.000 C 
ATOM     12  C   UNL     1      -3.980  12.688  23.078  0.00  0.00    +0.000 C 
ATOM     13  C   UNL     1      -5.357  13.182  23.018  0.00  0.00    +0.000 C 
ATOM     14  O   UNL     1      -5.991  13.362  24.051  0.00  0.00    +0.000 OA
ATOM     15  C   UNL     1      -5.936  13.426  21.689  0.00  0.00    +0.000 A 
ATOM     16  C   UNL     1      -7.257  13.905  21.616  0.00  0.00    +0.000 A 
ATOM     17  C   UNL     1      -7.832  14.176  20.379  0.00  0.00    +0.000 A 
ATOM     18  C   UNL     1      -7.092  13.975  19.216  0.00  0.00    +0.000 A 
ATOM     19  C   UNL     1      -5.780  13.491  19.286  0.00  0.00    +0.000 A 
ATOM     20  C   UNL     1      -5.188  13.201  20.528  0.00  0.00    +0.000 A 
ENDBRANCH   3   9
BRANCH   6  21
ATOM     21  C   UNL     1       0.986   9.753  18.982  0.00  0.00    +0.000 A 
ATOM     22  C   UNL     1       1.139   8.930  20.106  0.00  0.00    +0.000 A 
ATOM     23  C   UNL     1       1.918   7.775  20.036  0.00  0.00    +0.000 A 
ATOM     24  C   UNL     1       2.578   7.458  18.850  0.00  0.00    +0.000 A 
ATOM     25  C   UNL     1       2.458   8.292  17.738  0.00  0.00    +0.000 A 
ATOM     26  C   UNL     1       1.653   9.430  17.800  0.00  0.00    +0.000 A 
ENDBRANCH   6  21
TORSDOF 2
ENDMDL
MODEL 9
REMARK VINA RESULT:      -6.6      7.297     12.541
REMARK  Name = 
REMARK  4 active torsions:
REMARK  status: ('A' for Active; 'I' for Inactive)
REMARK    1  A    between atoms: C_1  and  C_2
REMARK    2  A    between atoms: C_3  and  N_4
REMARK    3  A    between atoms: N_18  and  C_19
REMARK    4  A    between atoms: N_25  and  C_26
REMARK                            x       y       z     vdW  Elec       q    Type
REMARK                         _______ _______ _______ _____ _____    ______ ____
ROOT
ATOM      1  C   UNL     1      -7.064  11.834  21.543  0.00  0.00    +0.000 C 
ATOM      2  C   UNL     1      -6.280  13.103  21.638  0.00  0.00    +0.000 A 
ATOM      3  C   UNL     1      -5.386  13.559  20.734  0.00  0.00    +0.000 A 
ATOM      4  C   UNL     1      -4.930  14.879  21.311  0.00  0.00    +0.000 A 
ATOM      5  O   UNL     1      -3.994  15.547  20.896  0.00  0.00    +0.000 OA
ATOM      6  N   UNL     1      -5.780  15.153  22.393  0.00  0.00    +0.000 N 
ATOM      7  N   UNL     1      -6.449  13.965  22.732  0.00  0.00    +0.000 N 
ATOM      8  C   UNL     1      -7.682  14.035  23.512  0.00  0.00    +0.000 C 
ENDROOT
BRANCH   3   9
ATOM      9  N   UNL     1      -4.905  12.917  19.619  0.00  0.00    +0.000 NA
ATOM     10  C   UNL     1      -3.742  12.334  19.587  0.00  0.00    +0.000 C 
ATOM     11  C   UNL     1      -2.694  12.341  20.653  0.00  0.00    +0.000 C 
ATOM     12  C   UNL     1      -1.540  11.681  20.557  0.00  0.00    +0.000 C 
ATOM     13  C   UNL     1      -1.164  10.949  19.345  0.00  0.00    +0.000 C 
ATOM     14  O   UNL     1      -0.069  10.401  19.275  0.00  0.00    +0.000 OA
ATOM     15  C   UNL     1      -2.129  10.921  18.237  0.00  0.00    +0.000 A 
ATOM     16  C   UNL     1      -1.781  10.219  17.069  0.00  0.00    +0.000 A 
ATOM     17  C   UNL     1      -2.678  10.145  16.008  0.00  0.00    +0.000 A 
ATOM     18  C   UNL     1      -3.921  10.765  16.112  0.00  0.00    +0.000 A 
ATOM     19  C   UNL     1      -4.266  11.471  17.272  0.00  0.00    +0.000 A 
ATOM     20  C   UNL     1      -3.366  11.565  18.348  0.00  0.00    +0.000 A 
ENDBRANCH   3   9
BRANCH   6  21
ATOM     21  C   UNL     1      -5.541  16.207  23.292  0.00  0.00    +0.000 A 
ATOM     22  C   UNL     1      -6.304  17.377  23.167  0.00  0.00    +0.000 A 
ATOM     23  C   UNL     1      -6.159  18.416  24.086  0.00  0.00    +0.000 A 
ATOM     24  C   UNL     1      -5.223  18.306  25.112  0.00  0.00    +0.000 A 
ATOM     25  C   UNL     1      -4.436  17.159  25.221  0.00  0.00    +0.000 A 
ATOM     26  C   UNL     1      -4.604  16.106  24.321  0.00  0.00    +0.000 A 
ENDBRANCH   6  21
TORSDOF 2
ENDMDL
