MODEL 1
REMARK VINA RESULT:      -7.4      0.000      0.000
REMARK  Name = 
REMARK  3 active torsions:
REMARK  status: ('A' for Active; 'I' for Inactive)
REMARK    1  A    between atoms: C_1  and  N_2
REMARK    2  A    between atoms: C_4  and  C_5
REMARK    3  A    between atoms: C_11  and  N_12
REMARK                            x       y       z     vdW  Elec       q    Type
REMARK                         _______ _______ _______ _____ _____    ______ ____
ROOT
ATOM      1  C   UNL     1       3.486   3.412  17.341  0.00  0.00    +0.000 C 
ATOM      2  O   UNL     1       2.809   2.868  16.466  0.00  0.00    +0.000 OA
ATOM      3  N   UNL     1       4.852   3.655  17.136  0.00  0.00    +0.000 N 
ATOM      4  C   UNL     1       5.830   4.073  18.135  0.00  0.00    +0.000 C 
ATOM      5  C   UNL     1       6.295   5.490  17.806  0.00  0.00    +0.000 C 
ATOM      6  C   UNL     1       6.928   5.526  16.416  0.00  0.00    +0.000 C 
ATOM      7  C   UNL     1       6.003   4.909  15.342  0.00  0.00    +0.000 C 
ATOM      8  C   UNL     1       5.418   3.552  15.784  0.00  0.00    +0.000 C 
ENDROOT
BRANCH   1  12
ATOM      9  C   UNL     1       1.387   3.284  21.871  0.00  0.00    +0.000 C 
ATOM     10  N   UNL     1       1.937   3.820  20.647  0.00  0.00    +0.000 N 
ATOM     11  C   UNL     1       2.564   3.063  19.699  0.00  0.00    +0.000 A 
ATOM     12  C   UNL     1       2.851   3.850  18.597  0.00  0.00    +0.000 A 
ATOM     13  C   UNL     1       2.526   5.200  19.003  0.00  0.00    +0.000 A 
ATOM     14  C   UNL     1       2.674   6.472  18.406  0.00  0.00    +0.000 A 
ATOM     15  C   UNL     1       2.268   7.621  19.102  0.00  0.00    +0.000 A 
ATOM     16  C   UNL     1       1.695   7.524  20.363  0.00  0.00    +0.000 A 
ATOM     17  C   UNL     1       1.520   6.281  20.972  0.00  0.00    +0.000 A 
ATOM     18  C   UNL     1       1.951   5.141  20.281  0.00  0.00    +0.000 A 
ENDBRANCH   1  12
BRANCH   7  19
ATOM     19  N   UNL     1       6.697   4.800  14.066  0.00  0.00    +0.000 N 
ATOM     20  C   UNL     1       6.353   4.006  13.009  0.00  0.00    +0.000 A 
ATOM     21  C   UNL     1       7.252   4.293  12.009  0.00  0.00    +0.000 A 
ATOM     22  C   UNL     1       8.097   5.273  12.557  0.00  0.00    +0.000 A 
ATOM     23  N   UNL     1       7.767   5.582  13.813  0.00  0.00    +0.000 NA
ENDBRANCH   7  19
TORSDOF 2
ENDMDL
MODEL 2
REMARK VINA RESULT:      -6.6      3.940      8.162
REMARK  Name = 
REMARK  3 active torsions:
REMARK  status: ('A' for Active; 'I' for Inactive)
REMARK    1  A    between atoms: C_1  and  N_2
REMARK    2  A    between atoms: C_4  and  C_5
REMARK    3  A    between atoms: C_11  and  N_12
REMARK                            x       y       z     vdW  Elec       q    Type
REMARK                         _______ _______ _______ _____ _____    ______ ____
ROOT
ATOM      1  C   UNL     1       2.184   8.184  18.210  0.00  0.00    +0.000 C 
ATOM      2  O   UNL     1       2.188   8.935  17.232  0.00  0.00    +0.000 OA
ATOM      3  N   UNL     1       1.779   8.656  19.467  0.00  0.00    +0.000 N 
ATOM      4  C   UNL     1       1.929   7.978  20.751  0.00  0.00    +0.000 C 
ATOM      5  C   UNL     1       0.544   7.604  21.276  0.00  0.00    +0.000 C 
ATOM      6  C   UNL     1      -0.307   8.861  21.451  0.00  0.00    +0.000 C 
ATOM      7  C   UNL     1      -0.339   9.723  20.169  0.00  0.00    +0.000 C 
ATOM      8  C   UNL     1       1.067   9.937  19.573  0.00  0.00    +0.000 C 
ENDROOT
BRANCH   1  12
ATOM      9  C   UNL     1       1.968   3.195  18.248  0.00  0.00    +0.000 C 
ATOM     10  N   UNL     1       2.483   4.528  18.030  0.00  0.00    +0.000 N 
ATOM     11  C   UNL     1       1.751   5.666  18.216  0.00  0.00    +0.000 A 
ATOM     12  C   UNL     1       2.569   6.771  18.054  0.00  0.00    +0.000 A 
ATOM     13  C   UNL     1       3.825   6.242  17.568  0.00  0.00    +0.000 A 
ATOM     14  C   UNL     1       5.030   6.823  17.113  0.00  0.00    +0.000 A 
ATOM     15  C   UNL     1       6.078   6.001  16.672  0.00  0.00    +0.000 A 
ATOM     16  C   UNL     1       5.959   4.619  16.699  0.00  0.00    +0.000 A 
ATOM     17  C   UNL     1       4.788   4.014  17.158  0.00  0.00    +0.000 A 
ATOM     18  C   UNL     1       3.737   4.843  17.575  0.00  0.00    +0.000 A 
ENDBRANCH   1  12
BRANCH   7  19
ATOM     19  N   UNL     1      -1.011  10.992  20.418  0.00  0.00    +0.000 N 
ATOM     20  C   UNL     1      -1.046  11.687  21.593  0.00  0.00    +0.000 A 
ATOM     21  C   UNL     1      -1.731  12.849  21.328  0.00  0.00    +0.000 A 
ATOM     22  C   UNL     1      -2.067  12.765  19.966  0.00  0.00    +0.000 A 
ATOM     23  N   UNL     1      -1.636  11.631  19.408  0.00  0.00    +0.000 NA
ENDBRANCH   7  19
TORSDOF 2
ENDMDL
MODEL 3
REMARK VINA RESULT:      -6.4      4.183      8.420
REMARK  Name = 
REMARK  3 active torsions:
REMARK  status: ('A' for Active; 'I' for Inactive)
REMARK    1  A    between atoms: C_1  and  N_2
REMARK    2  A    between atoms: C_4  and  C_5
REMARK    3  A    between atoms: C_11  and  N_12
REMARK                            x       y       z     vdW  Elec       q    Type
REMARK                         _______ _______ _______ _____ _____    ______ ____
ROOT
ATOM      1  C   UNL     1       1.688   7.626  19.735  0.00  0.00    +0.000 C 
ATOM      2  O   UNL     1       1.460   7.197  20.868  0.00  0.00    +0.000 OA
ATOM      3  N   UNL     1       1.127   8.838  19.307  0.00  0.00    +0.000 N 
ATOM      4  C   UNL     1       1.107   9.366  17.947  0.00  0.00    +0.000 C 
ATOM      5  C   UNL     1       1.985  10.615  17.890  0.00  0.00    +0.000 C 
ATOM      6  C   UNL     1       1.459  11.670  18.862  0.00  0.00    +0.000 C 
ATOM      7  C   UNL     1       1.273  11.104  20.288  0.00  0.00    +0.000 C 
ATOM      8  C   UNL     1       0.528   9.753  20.288  0.00  0.00    +0.000 C 
ENDROOT
BRANCH   1  12
ATOM      9  C   UNL     1       5.465   6.573  16.642  0.00  0.00    +0.000 C 
ATOM     10  N   UNL     1       4.296   6.378  17.469  0.00  0.00    +0.000 N 
ATOM     11  C   UNL     1       3.774   7.339  18.286  0.00  0.00    +0.000 A 
ATOM     12  C   UNL     1       2.587   6.884  18.834  0.00  0.00    +0.000 A 
ATOM     13  C   UNL     1       2.502   5.493  18.445  0.00  0.00    +0.000 A 
ATOM     14  C   UNL     1       1.614   4.436  18.747  0.00  0.00    +0.000 A 
ATOM     15  C   UNL     1       1.839   3.160  18.208  0.00  0.00    +0.000 A 
ATOM     16  C   UNL     1       2.910   2.925  17.358  0.00  0.00    +0.000 A 
ATOM     17  C   UNL     1       3.796   3.951  17.027  0.00  0.00    +0.000 A 
ATOM     18  C   UNL     1       3.578   5.217  17.589  0.00  0.00    +0.000 A 
ENDBRANCH   1  12
BRANCH   7  19
ATOM     19  N   UNL     1       0.612  12.077  21.148  0.00  0.00    +0.000 N 
ATOM     20  C   UNL     1       0.675  13.438  21.047  0.00  0.00    +0.000 A 
ATOM     21  C   UNL     1      -0.161  13.930  22.022  0.00  0.00    +0.000 A 
ATOM     22  C   UNL     1      -0.683  12.789  22.656  0.00  0.00    +0.000 A 
ATOM     23  N   UNL     1      -0.210  11.657  22.130  0.00  0.00    +0.000 NA
ENDBRANCH   7  19
TORSDOF 2
ENDMDL
MODEL 4
REMARK VINA RESULT:      -6.3      4.786      7.396
REMARK  Name = 
REMARK  3 active torsions:
REMARK  status: ('A' for Active; 'I' for Inactive)
REMARK    1  A    between atoms: C_1  and  N_2
REMARK    2  A    between atoms: C_4  and  C_5
REMARK    3  A    between atoms: C_11  and  N_12
REMARK                            x       y       z     vdW  Elec       q    Type
REMARK                         _______ _______ _______ _____ _____    ______ ____
ROOT
ATOM      1  C   UNL     1      -0.014   9.274  20.631  0.00  0.00    +0.000 C 
ATOM      2  O   UNL     1      -0.349   8.544  21.566  0.00  0.00    +0.000 OA
ATOM      3  N   UNL     1       1.224   9.096  19.997  0.00  0.00    +0.000 N 
ATOM      4  C   UNL     1       1.862  10.000  19.045  0.00  0.00    +0.000 C 
ATOM      5  C   UNL     1       1.909   9.320  17.678  0.00  0.00    +0.000 C 
ATOM      6  C   UNL     1       2.703   8.017  17.766  0.00  0.00    +0.000 C 
ATOM      7  C   UNL     1       2.188   7.101  18.899  0.00  0.00    +0.000 C 
ATOM      8  C   UNL     1       1.992   7.864  20.225  0.00  0.00    +0.000 C 
ENDROOT
BRANCH   1  12
ATOM      9  C   UNL     1      -2.781  13.428  20.455  0.00  0.00    +0.000 C 
ATOM     10  N   UNL     1      -2.160  12.194  20.030  0.00  0.00    +0.000 N 
ATOM     11  C   UNL     1      -1.229  11.518  20.765  0.00  0.00    +0.000 A 
ATOM     12  C   UNL     1      -0.935  10.316  20.145  0.00  0.00    +0.000 A 
ATOM     13  C   UNL     1      -1.613  10.376  18.868  0.00  0.00    +0.000 A 
ATOM     14  C   UNL     1      -1.646   9.541  17.729  0.00  0.00    +0.000 A 
ATOM     15  C   UNL     1      -2.407   9.915  16.611  0.00  0.00    +0.000 A 
ATOM     16  C   UNL     1      -3.153  11.086  16.617  0.00  0.00    +0.000 A 
ATOM     17  C   UNL     1      -3.154  11.924  17.733  0.00  0.00    +0.000 A 
ATOM     18  C   UNL     1      -2.372  11.555  18.836  0.00  0.00    +0.000 A 
ENDBRANCH   1  12
BRANCH   7  19
ATOM     19  N   UNL     1       3.066   5.951  19.071  0.00  0.00    +0.000 N 
ATOM     20  C   UNL     1       2.762   4.769  19.684  0.00  0.00    +0.000 A 
ATOM     21  C   UNL     1       3.871   3.969  19.540  0.00  0.00    +0.000 A 
ATOM     22  C   UNL     1       4.790   4.755  18.825  0.00  0.00    +0.000 A 
ATOM     23  N   UNL     1       4.307   5.967  18.542  0.00  0.00    +0.000 NA
ENDBRANCH   7  19
TORSDOF 2
ENDMDL
MODEL 5
REMARK VINA RESULT:      -6.3      3.337      5.034
REMARK  Name = 
REMARK  3 active torsions:
REMARK  status: ('A' for Active; 'I' for Inactive)
REMARK    1  A    between atoms: C_1  and  N_2
REMARK    2  A    between atoms: C_4  and  C_5
REMARK    3  A    between atoms: C_11  and  N_12
REMARK                            x       y       z     vdW  Elec       q    Type
REMARK                         _______ _______ _______ _____ _____    ______ ____
ROOT
ATOM      1  C   UNL     1       2.120   8.427  18.400  0.00  0.00    +0.000 C 
ATOM      2  O   UNL     1       2.555   9.151  17.502  0.00  0.00    +0.000 OA
ATOM      3  N   UNL     1       2.456   7.066  18.443  0.00  0.00    +0.000 N 
ATOM      4  C   UNL     1       1.856   6.039  19.288  0.00  0.00    +0.000 C 
ATOM      5  C   UNL     1       2.898   5.561  20.298  0.00  0.00    +0.000 C 
ATOM      6  C   UNL     1       4.111   4.987  19.567  0.00  0.00    +0.000 C 
ATOM      7  C   UNL     1       4.671   5.967  18.513  0.00  0.00    +0.000 C 
ATOM      8  C   UNL     1       3.562   6.560  17.619  0.00  0.00    +0.000 C 
ENDROOT
BRANCH   1  12
ATOM      9  C   UNL     1       0.181   9.381  22.903  0.00  0.00    +0.000 C 
ATOM     10  N   UNL     1       0.407   9.470  21.478  0.00  0.00    +0.000 N 
ATOM     11  C   UNL     1       1.410   8.813  20.825  0.00  0.00    +0.000 A 
ATOM     12  C   UNL     1       1.271   8.999  19.460  0.00  0.00    +0.000 A 
ATOM     13  C   UNL     1       0.215   9.978  19.319  0.00  0.00    +0.000 A 
ATOM     14  C   UNL     1      -0.345  10.675  18.225  0.00  0.00    +0.000 A 
ATOM     15  C   UNL     1      -1.372  11.605  18.443  0.00  0.00    +0.000 A 
ATOM     16  C   UNL     1      -1.868  11.834  19.719  0.00  0.00    +0.000 A 
ATOM     17  C   UNL     1      -1.348  11.150  20.818  0.00  0.00    +0.000 A 
ATOM     18  C   UNL     1      -0.304  10.240  20.595  0.00  0.00    +0.000 A 
ENDBRANCH   1  12
BRANCH   7  19
ATOM     19  N   UNL     1       5.713   5.330  17.717  0.00  0.00    +0.000 N 
ATOM     20  C   UNL     1       5.767   5.239  16.355  0.00  0.00    +0.000 A 
ATOM     21  C   UNL     1       6.960   4.621  16.063  0.00  0.00    +0.000 A 
ATOM     22  C   UNL     1       7.556   4.381  17.313  0.00  0.00    +0.000 A 
ATOM     23  N   UNL     1       6.797   4.806  18.325  0.00  0.00    +0.000 NA
ENDBRANCH   7  19
TORSDOF 2
ENDMDL
MODEL 6
REMARK VINA RESULT:      -6.2      4.475      7.482
REMARK  Name = 
REMARK  3 active torsions:
REMARK  status: ('A' for Active; 'I' for Inactive)
REMARK    1  A    between atoms: C_1  and  N_2
REMARK    2  A    between atoms: C_4  and  C_5
REMARK    3  A    between atoms: C_11  and  N_12
REMARK                            x       y       z     vdW  Elec       q    Type
REMARK                         _______ _______ _______ _____ _____    ______ ____
ROOT
ATOM      1  C   UNL     1       0.577   9.041  20.456  0.00  0.00    +0.000 C 
ATOM      2  O   UNL     1       0.114   8.789  21.570  0.00  0.00    +0.000 OA
ATOM      3  N   UNL     1       1.643   8.287  19.942  0.00  0.00    +0.000 N 
ATOM      4  C   UNL     1       2.446   8.592  18.762  0.00  0.00    +0.000 C 
ATOM      5  C   UNL     1       2.166   7.540  17.691  0.00  0.00    +0.000 C 
ATOM      6  C   UNL     1       2.523   6.150  18.215  0.00  0.00    +0.000 C 
ATOM      7  C   UNL     1       1.848   5.850  19.572  0.00  0.00    +0.000 C 
ATOM      8  C   UNL     1       2.009   7.013  20.574  0.00  0.00    +0.000 C 
ENDROOT
BRANCH   1  12
ATOM      9  C   UNL     1      -2.397  11.438  17.239  0.00  0.00    +0.000 C 
ATOM     10  N   UNL     1      -1.361  11.220  18.222  0.00  0.00    +0.000 N 
ATOM     11  C   UNL     1      -1.161  10.033  18.867  0.00  0.00    +0.000 A 
ATOM     12  C   UNL     1      -0.014  10.114  19.638  0.00  0.00    +0.000 A 
ATOM     13  C   UNL     1       0.384  11.503  19.575  0.00  0.00    +0.000 A 
ATOM     14  C   UNL     1       1.390  12.271  20.205  0.00  0.00    +0.000 A 
ATOM     15  C   UNL     1       1.491  13.644  19.934  0.00  0.00    +0.000 A 
ATOM     16  C   UNL     1       0.632  14.258  19.035  0.00  0.00    +0.000 A 
ATOM     17  C   UNL     1      -0.361  13.525  18.384  0.00  0.00    +0.000 A 
ATOM     18  C   UNL     1      -0.472  12.159  18.678  0.00  0.00    +0.000 A 
ENDBRANCH   1  12
BRANCH   7  19
ATOM     19  N   UNL     1       2.339   4.596  20.128  0.00  0.00    +0.000 N 
ATOM     20  C   UNL     1       1.889   3.963  21.251  0.00  0.00    +0.000 A 
ATOM     21  C   UNL     1       2.600   2.788  21.336  0.00  0.00    +0.000 A 
ATOM     22  C   UNL     1       3.451   2.802  20.218  0.00  0.00    +0.000 A 
ATOM     23  N   UNL     1       3.301   3.905  19.481  0.00  0.00    +0.000 NA
ENDBRANCH   7  19
TORSDOF 2
ENDMDL
MODEL 7
REMARK VINA RESULT:      -6.2      4.512      8.334
REMARK  Name = 
REMARK  3 active torsions:
REMARK  status: ('A' for Active; 'I' for Inactive)
REMARK    1  A    between atoms: C_1  and  N_2
REMARK    2  A    between atoms: C_4  and  C_5
REMARK    3  A    between atoms: C_11  and  N_12
REMARK                            x       y       z     vdW  Elec       q    Type
REMARK                         _______ _______ _______ _____ _____    ______ ____
ROOT
ATOM      1  C   UNL     1       1.497   8.003  20.423  0.00  0.00    +0.000 C 
ATOM      2  O   UNL     1       1.333   7.892  21.639  0.00  0.00    +0.000 OA
ATOM      3  N   UNL     1       1.047   9.145  19.745  0.00  0.00    +0.000 N 
ATOM      4  C   UNL     1       0.956   9.332  18.300  0.00  0.00    +0.000 C 
ATOM      5  C   UNL     1       1.969  10.395  17.877  0.00  0.00    +0.000 C 
ATOM      6  C   UNL     1       1.673  11.714  18.589  0.00  0.00    +0.000 C 
ATOM      7  C   UNL     1       1.563  11.535  20.120  0.00  0.00    +0.000 C 
ATOM      8  C   UNL     1       0.663  10.343  20.505  0.00  0.00    +0.000 C 
ENDROOT
BRANCH   1  12
ATOM      9  C   UNL     1       4.628   5.745  17.254  0.00  0.00    +0.000 C 
ATOM     10  N   UNL     1       3.628   5.911  18.284  0.00  0.00    +0.000 N 
ATOM     11  C   UNL     1       3.278   7.118  18.817  0.00  0.00    +0.000 A 
ATOM     12  C   UNL     1       2.205   6.948  19.677  0.00  0.00    +0.000 A 
ATOM     13  C   UNL     1       2.033   5.516  19.786  0.00  0.00    +0.000 A 
ATOM     14  C   UNL     1       1.203   4.678  20.564  0.00  0.00    +0.000 A 
ATOM     15  C   UNL     1       1.308   3.285  20.443  0.00  0.00    +0.000 A 
ATOM     16  C   UNL     1       2.202   2.713  19.549  0.00  0.00    +0.000 A 
ATOM     17  C   UNL     1       3.025   3.512  18.755  0.00  0.00    +0.000 A 
ATOM     18  C   UNL     1       2.930   4.903  18.898  0.00  0.00    +0.000 A 
ENDBRANCH   1  12
BRANCH   7  19
ATOM     19  N   UNL     1       1.113  12.768  20.752  0.00  0.00    +0.000 N 
ATOM     20  C   UNL     1       1.360  14.045  20.333  0.00  0.00    +0.000 A 
ATOM     21  C   UNL     1       0.678  14.868  21.198  0.00  0.00    +0.000 A 
ATOM     22  C   UNL     1       0.048  13.996  22.102  0.00  0.00    +0.000 A 
ATOM     23  N   UNL     1       0.315  12.714  21.838  0.00  0.00    +0.000 NA
ENDBRANCH   7  19
TORSDOF 2
ENDMDL
MODEL 8
REMARK VINA RESULT:      -6.1      3.875      7.730
REMARK  Name = 
REMARK  3 active torsions:
REMARK  status: ('A' for Active; 'I' for Inactive)
REMARK    1  A    between atoms: C_1  and  N_2
REMARK    2  A    between atoms: C_4  and  C_5
REMARK    3  A    between atoms: C_11  and  N_12
REMARK                            x       y       z     vdW  Elec       q    Type
REMARK                         _______ _______ _______ _____ _____    ______ ____
ROOT
ATOM      1  C   UNL     1       2.186   7.501  19.023  0.00  0.00    +0.000 C 
ATOM      2  O   UNL     1       2.471   7.855  17.878  0.00  0.00    +0.000 OA
ATOM      3  N   UNL     1       1.722   8.435  19.961  0.00  0.00    +0.000 N 
ATOM      4  C   UNL     1       1.560   8.233  21.398  0.00  0.00    +0.000 C 
ATOM      5  C   UNL     1       0.071   8.272  21.736  0.00  0.00    +0.000 C 
ATOM      6  C   UNL     1      -0.523   9.620  21.333  0.00  0.00    +0.000 C 
ATOM      7  C   UNL     1      -0.210   9.977  19.863  0.00  0.00    +0.000 C 
ATOM      8  C   UNL     1       1.277   9.762  19.514  0.00  0.00    +0.000 C 
ENDROOT
BRANCH   1  12
ATOM      9  C   UNL     1       1.739   3.256  21.616  0.00  0.00    +0.000 C 
ATOM     10  N   UNL     1       2.075   4.156  20.536  0.00  0.00    +0.000 N 
ATOM     11  C   UNL     1       1.705   5.469  20.496  0.00  0.00    +0.000 A 
ATOM     12  C   UNL     1       2.294   6.082  19.404  0.00  0.00    +0.000 A 
ATOM     13  C   UNL     1       2.909   5.008  18.656  0.00  0.00    +0.000 A 
ATOM     14  C   UNL     1       3.574   4.926  17.412  0.00  0.00    +0.000 A 
ATOM     15  C   UNL     1       4.041   3.686  16.951  0.00  0.00    +0.000 A 
ATOM     16  C   UNL     1       3.883   2.537  17.713  0.00  0.00    +0.000 A 
ATOM     17  C   UNL     1       3.246   2.587  18.953  0.00  0.00    +0.000 A 
ATOM     18  C   UNL     1       2.760   3.825  19.395  0.00  0.00    +0.000 A 
ENDBRANCH   1  12
BRANCH   7  19
ATOM     19  N   UNL     1      -0.638  11.336  19.559  0.00  0.00    +0.000 N 
ATOM     20  C   UNL     1      -1.657  12.028  20.149  0.00  0.00    +0.000 A 
ATOM     21  C   UNL     1      -1.638  13.284  19.590  0.00  0.00    +0.000 A 
ATOM     22  C   UNL     1      -0.570  13.254  18.676  0.00  0.00    +0.000 A 
ATOM     23  N   UNL     1       0.039  12.066  18.649  0.00  0.00    +0.000 NA
ENDBRANCH   7  19
TORSDOF 2
ENDMDL
MODEL 9
REMARK VINA RESULT:      -6.1      3.276      5.350
REMARK  Name = 
REMARK  3 active torsions:
REMARK  status: ('A' for Active; 'I' for Inactive)
REMARK    1  A    between atoms: C_1  and  N_2
REMARK    2  A    between atoms: C_4  and  C_5
REMARK    3  A    between atoms: C_11  and  N_12
REMARK                            x       y       z     vdW  Elec       q    Type
REMARK                         _______ _______ _______ _____ _____    ______ ____
ROOT
ATOM      1  C   UNL     1       2.245   8.751  17.964  0.00  0.00    +0.000 C 
ATOM      2  O   UNL     1       2.975   9.474  17.283  0.00  0.00    +0.000 OA
ATOM      3  N   UNL     1       2.497   7.375  18.060  0.00  0.00    +0.000 N 
ATOM      4  C   UNL     1       1.618   6.357  18.626  0.00  0.00    +0.000 C 
ATOM      5  C   UNL     1       2.259   5.803  19.897  0.00  0.00    +0.000 C 
ATOM      6  C   UNL     1       3.620   5.189  19.572  0.00  0.00    +0.000 C 
ATOM      7  C   UNL     1       4.527   6.167  18.793  0.00  0.00    +0.000 C 
ATOM      8  C   UNL     1       3.789   6.835  17.615  0.00  0.00    +0.000 C 
ENDROOT
BRANCH   1  12
ATOM      9  C   UNL     1      -2.055  11.073  18.997  0.00  0.00    +0.000 C 
ATOM     10  N   UNL     1      -0.822  10.348  19.205  0.00  0.00    +0.000 N 
ATOM     11  C   UNL     1      -0.047   9.858  18.193  0.00  0.00    +0.000 A 
ATOM     12  C   UNL     1       1.124   9.338  18.718  0.00  0.00    +0.000 A 
ATOM     13  C   UNL     1       0.939   9.369  20.153  0.00  0.00    +0.000 A 
ATOM     14  C   UNL     1       1.689   8.901  21.255  0.00  0.00    +0.000 A 
ATOM     15  C   UNL     1       1.198   9.074  22.557  0.00  0.00    +0.000 A 
ATOM     16  C   UNL     1      -0.008   9.722  22.783  0.00  0.00    +0.000 A 
ATOM     17  C   UNL     1      -0.766  10.209  21.718  0.00  0.00    +0.000 A 
ATOM     18  C   UNL     1      -0.279  10.012  20.418  0.00  0.00    +0.000 A 
ENDBRANCH   1  12
BRANCH   7  19
ATOM     19  N   UNL     1       5.744   5.499  18.349  0.00  0.00    +0.000 N 
ATOM     20  C   UNL     1       6.021   5.047  17.090  0.00  0.00    +0.000 A 
ATOM     21  C   UNL     1       7.306   4.558  17.136  0.00  0.00    +0.000 A 
ATOM     22  C   UNL     1       7.721   4.762  18.464  0.00  0.00    +0.000 A 
ATOM     23  N   UNL     1       6.770   5.330  19.209  0.00  0.00    +0.000 NA
ENDBRANCH   7  19
TORSDOF 2
ENDMDL
