MODEL 1
REMARK VINA RESULT:      -7.9      0.000      0.000
REMARK  Name = 
REMARK  11 active torsions:
REMARK  status: ('A' for Active; 'I' for Inactive)
REMARK    1  A    between atoms: C_1  and  C_2
REMARK    2  A    between atoms: C_2  and  C_3
REMARK    3  A    between atoms: C_3  and  C_4
REMARK    4  A    between atoms: C_6  and  C_7
REMARK    5  A    between atoms: C_7  and  N_8
REMARK    6  A    between atoms: N_8  and  C_9
REMARK    7  A    between atoms: N_8  and  C_10
REMARK    8  A    between atoms: C_12  and  C_13
REMARK    9  A    between atoms: C_12  and  C_14
REMARK   10  A    between atoms: C_16  and  C_17
REMARK   11  A    between atoms: C_16  and  C_18
REMARK                            x       y       z     vdW  Elec       q    Type
REMARK                         _______ _______ _______ _____ _____    ______ ____
ROOT
ATOM      1  N   UNL     1       5.667   5.831  17.917  0.00  0.00    +0.000 NA
ATOM      2  C   UNL     1       5.222   6.919  17.034  0.00  0.00    +0.000 C 
ENDROOT
BRANCH   1   3
ATOM      3  C   UNL     1       4.577   4.871  18.273  0.00  0.00    +0.000 C 
ATOM      4  C   UNL     1       3.419   5.494  19.073  0.00  0.00    +0.000 C 
ATOM      5  C   UNL     1       2.328   4.489  19.487  0.00  0.00    +0.000 C 
ATOM      6  C   UNL     1       1.475   5.169  20.582  0.00  0.00    +0.000 C 
ATOM      7  C   UNL     1       1.382   4.167  18.318  0.00  0.00    +0.000 C 
ATOM      8  N   UNL     1       2.887   3.281  20.097  0.00  0.00    +0.000 NA
ATOM      9  C   UNL     1       4.038   2.632  19.458  0.00  0.00    +0.000 C 
ATOM     10  C   UNL     1       4.651   1.712  20.541  0.00  0.00    +0.000 C 
ATOM     11  C   UNL     1       3.625   1.726  18.286  0.00  0.00    +0.000 C 
ATOM     12  C   UNL     1       5.120   3.650  19.041  0.00  0.00    +0.000 C 
ATOM     13  H   UNL     1       2.153   2.602  20.296  0.00  0.00    +0.000 HD
ENDBRANCH   1   3
BRANCH   1  14
ATOM     14  C   UNL     1       6.845   5.127  17.347  0.00  0.00    +0.000 C 
BRANCH  14  17
ATOM     15  C   UNL     1       6.263   4.147  13.843  0.00  0.00    +0.000 A 
ATOM     16  C   UNL     1       5.839   4.098  15.152  0.00  0.00    +0.000 A 
ATOM     17  C   UNL     1       6.726   4.946  15.858  0.00  0.00    +0.000 A 
ATOM     18  N   UNL     1       7.579   5.565  15.026  0.00  0.00    +0.000 NA
ATOM     19  N   UNL     1       7.274   5.066  13.820  0.00  0.00    +0.000 N 
ATOM     20  H   UNL     1       7.831   5.363  13.027  0.00  0.00    +0.000 HD
BRANCH  15  21
ATOM     21  C   UNL     1       5.839   3.384  12.638  0.00  0.00    +0.000 C 
BRANCH  21  23
ATOM     22  C   UNL     1       6.869   1.678  11.094  0.00  0.00    +0.000 C 
ATOM     23  C   UNL     1       7.030   3.045  11.739  0.00  0.00    +0.000 C 
ENDBRANCH  21  23
ENDBRANCH  15  21
ENDBRANCH  14  17
ENDBRANCH   1  14
TORSDOF 5
ENDMDL
MODEL 2
REMARK VINA RESULT:      -7.4      0.719      2.386
REMARK  Name = 
REMARK  11 active torsions:
REMARK  status: ('A' for Active; 'I' for Inactive)
REMARK    1  A    between atoms: C_1  and  C_2
REMARK    2  A    between atoms: C_2  and  C_3
REMARK    3  A    between atoms: C_3  and  C_4
REMARK    4  A    between atoms: C_6  and  C_7
REMARK    5  A    between atoms: C_7  and  N_8
REMARK    6  A    between atoms: N_8  and  C_9
REMARK    7  A    between atoms: N_8  and  C_10
REMARK    8  A    between atoms: C_12  and  C_13
REMARK    9  A    between atoms: C_12  and  C_14
REMARK   10  A    between atoms: C_16  and  C_17
REMARK   11  A    between atoms: C_16  and  C_18
REMARK                            x       y       z     vdW  Elec       q    Type
REMARK                         _______ _______ _______ _____ _____    ______ ____
ROOT
ATOM      1  N   UNL     1       6.249   5.631  18.270  0.00  0.00    +0.000 NA
ATOM      2  C   UNL     1       5.937   6.798  17.432  0.00  0.00    +0.000 C 
ENDROOT
BRANCH   1   3
ATOM      3  C   UNL     1       5.034   4.945  18.809  0.00  0.00    +0.000 C 
ATOM      4  C   UNL     1       5.049   3.413  18.656  0.00  0.00    +0.000 C 
ATOM      5  C   UNL     1       3.771   2.719  19.158  0.00  0.00    +0.000 C 
ATOM      6  C   UNL     1       3.779   1.282  18.588  0.00  0.00    +0.000 C 
ATOM      7  C   UNL     1       3.762   2.591  20.691  0.00  0.00    +0.000 C 
ATOM      8  N   UNL     1       2.555   3.354  18.647  0.00  0.00    +0.000 NA
ATOM      9  C   UNL     1       2.451   4.817  18.682  0.00  0.00    +0.000 C 
ATOM     10  C   UNL     1       1.315   5.177  17.694  0.00  0.00    +0.000 C 
ATOM     11  C   UNL     1       2.023   5.343  20.062  0.00  0.00    +0.000 C 
ATOM     12  C   UNL     1       3.741   5.502  18.183  0.00  0.00    +0.000 C 
ATOM     13  H   UNL     1       1.723   2.923  19.051  0.00  0.00    +0.000 HD
ENDBRANCH   1   3
BRANCH   1  14
ATOM     14  C   UNL     1       7.137   4.679  17.553  0.00  0.00    +0.000 C 
BRANCH  14  17
ATOM     15  C   UNL     1       6.286   4.120  14.012  0.00  0.00    +0.000 A 
ATOM     16  C   UNL     1       5.996   3.866  15.334  0.00  0.00    +0.000 A 
ATOM     17  C   UNL     1       6.886   4.685  16.070  0.00  0.00    +0.000 A 
ATOM     18  N   UNL     1       7.608   5.475  15.260  0.00  0.00    +0.000 NA
ATOM     19  N   UNL     1       7.224   5.115  14.028  0.00  0.00    +0.000 N 
ATOM     20  H   UNL     1       7.679   5.558  13.238  0.00  0.00    +0.000 HD
BRANCH  15  21
ATOM     21  C   UNL     1       5.802   3.489  12.755  0.00  0.00    +0.000 C 
BRANCH  21  23
ATOM     22  C   UNL     1       7.067   1.958  11.202  0.00  0.00    +0.000 C 
ATOM     23  C   UNL     1       6.918   3.381  11.713  0.00  0.00    +0.000 C 
ENDBRANCH  21  23
ENDBRANCH  15  21
ENDBRANCH  14  17
ENDBRANCH   1  14
TORSDOF 5
ENDMDL
MODEL 3
REMARK VINA RESULT:      -7.3      2.560      4.808
REMARK  Name = 
REMARK  11 active torsions:
REMARK  status: ('A' for Active; 'I' for Inactive)
REMARK    1  A    between atoms: C_1  and  C_2
REMARK    2  A    between atoms: C_2  and  C_3
REMARK    3  A    between atoms: C_3  and  C_4
REMARK    4  A    between atoms: C_6  and  C_7
REMARK    5  A    between atoms: C_7  and  N_8
REMARK    6  A    between atoms: N_8  and  C_9
REMARK    7  A    between atoms: N_8  and  C_10
REMARK    8  A    between atoms: C_12  and  C_13
REMARK    9  A    between atoms: C_12  and  C_14
REMARK   10  A    between atoms: C_16  and  C_17
REMARK   11  A    between atoms: C_16  and  C_18
REMARK                            x       y       z     vdW  Elec       q    Type
REMARK                         _______ _______ _______ _____ _____    ______ ____
ROOT
ATOM      1  N   UNL     1       5.900   4.816  16.318  0.00  0.00    +0.000 NA
ATOM      2  C   UNL     1       6.045   4.088  15.049  0.00  0.00    +0.000 C 
ENDROOT
BRANCH   1   3
ATOM      3  C   UNL     1       4.694   4.407  17.103  0.00  0.00    +0.000 C 
ATOM      4  C   UNL     1       3.915   5.579  17.728  0.00  0.00    +0.000 C 
ATOM      5  C   UNL     1       2.709   5.148  18.582  0.00  0.00    +0.000 C 
ATOM      6  C   UNL     1       2.291   6.371  19.430  0.00  0.00    +0.000 C 
ATOM      7  C   UNL     1       1.500   4.776  17.708  0.00  0.00    +0.000 C 
ATOM      8  N   UNL     1       3.052   4.090  19.535  0.00  0.00    +0.000 NA
ATOM      9  C   UNL     1       3.849   2.949  19.070  0.00  0.00    +0.000 C 
ATOM     10  C   UNL     1       4.410   2.284  20.350  0.00  0.00    +0.000 C 
ATOM     11  C   UNL     1       2.995   1.888  18.356  0.00  0.00    +0.000 C 
ATOM     12  C   UNL     1       5.050   3.393  18.208  0.00  0.00    +0.000 C 
ATOM     13  H   UNL     1       2.224   3.771  20.037  0.00  0.00    +0.000 HD
ENDBRANCH   1   3
BRANCH   1  14
ATOM     14  C   UNL     1       7.137   4.720  17.135  0.00  0.00    +0.000 C 
BRANCH  14  17
ATOM     15  C   UNL     1       8.008   8.177  18.067  0.00  0.00    +0.000 A 
ATOM     16  C   UNL     1       7.332   7.336  17.211  0.00  0.00    +0.000 A 
ATOM     17  C   UNL     1       7.506   6.040  17.754  0.00  0.00    +0.000 A 
ATOM     18  N   UNL     1       8.158   6.084  18.927  0.00  0.00    +0.000 NA
ATOM     19  N   UNL     1       8.445   7.383  19.090  0.00  0.00    +0.000 N 
ATOM     20  H   UNL     1       8.985   7.653  19.905  0.00  0.00    +0.000 HD
BRANCH  15  21
ATOM     21  C   UNL     1       8.316   9.630  17.986  0.00  0.00    +0.000 C 
BRANCH  21  23
ATOM     22  C   UNL     1       9.175  10.783  20.057  0.00  0.00    +0.000 C 
ATOM     23  C   UNL     1       9.550   9.991  18.816  0.00  0.00    +0.000 C 
ENDBRANCH  21  23
ENDBRANCH  15  21
ENDBRANCH  14  17
ENDBRANCH   1  14
TORSDOF 5
ENDMDL
MODEL 4
REMARK VINA RESULT:      -7.2      0.971      1.161
REMARK  Name = 
REMARK  11 active torsions:
REMARK  status: ('A' for Active; 'I' for Inactive)
REMARK    1  A    between atoms: C_1  and  C_2
REMARK    2  A    between atoms: C_2  and  C_3
REMARK    3  A    between atoms: C_3  and  C_4
REMARK    4  A    between atoms: C_6  and  C_7
REMARK    5  A    between atoms: C_7  and  N_8
REMARK    6  A    between atoms: N_8  and  C_9
REMARK    7  A    between atoms: N_8  and  C_10
REMARK    8  A    between atoms: C_12  and  C_13
REMARK    9  A    between atoms: C_12  and  C_14
REMARK   10  A    between atoms: C_16  and  C_17
REMARK   11  A    between atoms: C_16  and  C_18
REMARK                            x       y       z     vdW  Elec       q    Type
REMARK                         _______ _______ _______ _____ _____    ______ ____
ROOT
ATOM      1  N   UNL     1       6.342   4.793  17.792  0.00  0.00    +0.000 NA
ATOM      2  C   UNL     1       7.203   5.086  18.947  0.00  0.00    +0.000 C 
ENDROOT
BRANCH   1   3
ATOM      3  C   UNL     1       4.920   4.516  18.166  0.00  0.00    +0.000 C 
ATOM      4  C   UNL     1       4.132   5.756  18.627  0.00  0.00    +0.000 C 
ATOM      5  C   UNL     1       2.688   5.455  19.066  0.00  0.00    +0.000 C 
ATOM      6  C   UNL     1       2.183   6.690  19.848  0.00  0.00    +0.000 C 
ATOM      7  C   UNL     1       1.753   5.278  17.857  0.00  0.00    +0.000 C 
ATOM      8  N   UNL     1       2.613   4.326  19.996  0.00  0.00    +0.000 NA
ATOM      9  C   UNL     1       3.375   3.109  19.695  0.00  0.00    +0.000 C 
ATOM     10  C   UNL     1       3.456   2.329  21.029  0.00  0.00    +0.000 C 
ATOM     11  C   UNL     1       2.652   2.197  18.690  0.00  0.00    +0.000 C 
ATOM     12  C   UNL     1       4.818   3.424  19.248  0.00  0.00    +0.000 C 
ATOM     13  H   UNL     1       1.643   4.100  20.215  0.00  0.00    +0.000 HD
ENDBRANCH   1   3
BRANCH   1  14
ATOM     14  C   UNL     1       6.435   5.868  16.770  0.00  0.00    +0.000 C 
BRANCH  14  17
ATOM     15  C   UNL     1       6.063   4.126  13.544  0.00  0.00    +0.000 A 
ATOM     16  C   UNL     1       5.471   4.556  14.710  0.00  0.00    +0.000 A 
ATOM     17  C   UNL     1       6.469   5.312  15.372  0.00  0.00    +0.000 A 
ATOM     18  N   UNL     1       7.573   5.433  14.618  0.00  0.00    +0.000 NA
ATOM     19  N   UNL     1       7.298   4.711  13.523  0.00  0.00    +0.000 N 
ATOM     20  H   UNL     1       8.022   4.621  12.818  0.00  0.00    +0.000 HD
BRANCH  15  21
ATOM     21  C   UNL     1       5.596   3.190  12.486  0.00  0.00    +0.000 C 
BRANCH  21  23
ATOM     22  C   UNL     1       6.501   1.302  11.081  0.00  0.00    +0.000 C 
ATOM     23  C   UNL     1       6.756   2.701  11.615  0.00  0.00    +0.000 C 
ENDBRANCH  21  23
ENDBRANCH  15  21
ENDBRANCH  14  17
ENDBRANCH   1  14
TORSDOF 5
ENDMDL
MODEL 5
REMARK VINA RESULT:      -7.2      1.175      2.664
REMARK  Name = 
REMARK  11 active torsions:
REMARK  status: ('A' for Active; 'I' for Inactive)
REMARK    1  A    between atoms: C_1  and  C_2
REMARK    2  A    between atoms: C_2  and  C_3
REMARK    3  A    between atoms: C_3  and  C_4
REMARK    4  A    between atoms: C_6  and  C_7
REMARK    5  A    between atoms: C_7  and  N_8
REMARK    6  A    between atoms: N_8  and  C_9
REMARK    7  A    between atoms: N_8  and  C_10
REMARK    8  A    between atoms: C_12  and  C_13
REMARK    9  A    between atoms: C_12  and  C_14
REMARK   10  A    between atoms: C_16  and  C_17
REMARK   11  A    between atoms: C_16  and  C_18
REMARK                            x       y       z     vdW  Elec       q    Type
REMARK                         _______ _______ _______ _____ _____    ______ ____
ROOT
ATOM      1  N   UNL     1       6.254   5.197  18.399  0.00  0.00    +0.000 NA
ATOM      2  C   UNL     1       7.185   5.650  19.444  0.00  0.00    +0.000 C 
ENDROOT
BRANCH   1   3
ATOM      3  C   UNL     1       4.937   4.734  18.937  0.00  0.00    +0.000 C 
ATOM      4  C   UNL     1       4.654   3.236  18.719  0.00  0.00    +0.000 C 
ATOM      5  C   UNL     1       3.273   2.778  19.221  0.00  0.00    +0.000 C 
ATOM      6  C   UNL     1       2.995   1.394  18.591  0.00  0.00    +0.000 C 
ATOM      7  C   UNL     1       3.262   2.585  20.747  0.00  0.00    +0.000 C 
ATOM      8  N   UNL     1       2.195   3.658  18.765  0.00  0.00    +0.000 NA
ATOM      9  C   UNL     1       2.376   5.111  18.864  0.00  0.00    +0.000 C 
ATOM     10  C   UNL     1       1.317   5.727  17.919  0.00  0.00    +0.000 C 
ATOM     11  C   UNL     1       2.078   5.645  20.275  0.00  0.00    +0.000 C 
ATOM     12  C   UNL     1       3.767   5.557  18.364  0.00  0.00    +0.000 C 
ATOM     13  H   UNL     1       1.302   3.377  19.170  0.00  0.00    +0.000 HD
ENDBRANCH   1   3
BRANCH   1  14
ATOM     14  C   UNL     1       6.078   6.237  17.353  0.00  0.00    +0.000 C 
BRANCH  14  17
ATOM     15  C   UNL     1       6.444   4.593  14.076  0.00  0.00    +0.000 A 
ATOM     16  C   UNL     1       5.603   4.998  15.088  0.00  0.00    +0.000 A 
ATOM     17  C   UNL     1       6.428   5.722  15.983  0.00  0.00    +0.000 A 
ATOM     18  N   UNL     1       7.676   5.850  15.506  0.00  0.00    +0.000 NA
ATOM     19  N   UNL     1       7.654   5.163  14.356  0.00  0.00    +0.000 N 
ATOM     20  H   UNL     1       8.519   5.084  13.832  0.00  0.00    +0.000 HD
BRANCH  15  21
ATOM     21  C   UNL     1       6.226   3.695  12.910  0.00  0.00    +0.000 C 
BRANCH  21  23
ATOM     22  C   UNL     1       4.391   3.243  11.242  0.00  0.00    +0.000 C 
ATOM     23  C   UNL     1       4.741   3.378  12.714  0.00  0.00    +0.000 C 
ENDBRANCH  21  23
ENDBRANCH  15  21
ENDBRANCH  14  17
ENDBRANCH   1  14
TORSDOF 5
ENDMDL
MODEL 6
REMARK VINA RESULT:      -7.2      2.914      4.934
REMARK  Name = 
REMARK  11 active torsions:
REMARK  status: ('A' for Active; 'I' for Inactive)
REMARK    1  A    between atoms: C_1  and  C_2
REMARK    2  A    between atoms: C_2  and  C_3
REMARK    3  A    between atoms: C_3  and  C_4
REMARK    4  A    between atoms: C_6  and  C_7
REMARK    5  A    between atoms: C_7  and  N_8
REMARK    6  A    between atoms: N_8  and  C_9
REMARK    7  A    between atoms: N_8  and  C_10
REMARK    8  A    between atoms: C_12  and  C_13
REMARK    9  A    between atoms: C_12  and  C_14
REMARK   10  A    between atoms: C_16  and  C_17
REMARK   11  A    between atoms: C_16  and  C_18
REMARK                            x       y       z     vdW  Elec       q    Type
REMARK                         _______ _______ _______ _____ _____    ______ ____
ROOT
ATOM      1  N   UNL     1       6.000   5.324  16.883  0.00  0.00    +0.000 NA
ATOM      2  C   UNL     1       6.520   4.601  15.713  0.00  0.00    +0.000 C 
ENDROOT
BRANCH   1   3
ATOM      3  C   UNL     1       4.790   4.684  17.487  0.00  0.00    +0.000 C 
ATOM      4  C   UNL     1       3.867   5.657  18.241  0.00  0.00    +0.000 C 
ATOM      5  C   UNL     1       2.656   4.983  18.911  0.00  0.00    +0.000 C 
ATOM      6  C   UNL     1       2.071   5.997  19.922  0.00  0.00    +0.000 C 
ATOM      7  C   UNL     1       1.544   4.676  17.893  0.00  0.00    +0.000 C 
ATOM      8  N   UNL     1       3.036   3.804  19.690  0.00  0.00    +0.000 NA
ATOM      9  C   UNL     1       3.964   2.833  19.100  0.00  0.00    +0.000 C 
ATOM     10  C   UNL     1       4.503   1.998  20.286  0.00  0.00    +0.000 C 
ATOM     11  C   UNL     1       3.261   1.851  18.148  0.00  0.00    +0.000 C 
ATOM     12  C   UNL     1       5.170   3.521  18.425  0.00  0.00    +0.000 C 
ATOM     13  H   UNL     1       2.211   3.334  20.063  0.00  0.00    +0.000 HD
ENDBRANCH   1   3
BRANCH   1  14
ATOM     14  C   UNL     1       7.064   5.538  17.896  0.00  0.00    +0.000 C 
BRANCH  14  17
ATOM     15  C   UNL     1       8.489   8.892  18.442  0.00  0.00    +0.000 A 
ATOM     16  C   UNL     1       8.495   7.556  18.774  0.00  0.00    +0.000 A 
ATOM     17  C   UNL     1       7.587   6.949  17.874  0.00  0.00    +0.000 A 
ATOM     18  N   UNL     1       7.126   7.831  16.973  0.00  0.00    +0.000 NA
ATOM     19  N   UNL     1       7.689   8.991  17.339  0.00  0.00    +0.000 N 
ATOM     20  H   UNL     1       7.445   9.825  16.816  0.00  0.00    +0.000 HD
BRANCH  15  21
ATOM     21  C   UNL     1       9.122  10.073  19.089  0.00  0.00    +0.000 C 
BRANCH  21  23
ATOM     22  C   UNL     1      10.686  11.593  17.823  0.00  0.00    +0.000 C 
ATOM     23  C   UNL     1       9.235  11.252  18.119  0.00  0.00    +0.000 C 
ENDBRANCH  21  23
ENDBRANCH  15  21
ENDBRANCH  14  17
ENDBRANCH   1  14
TORSDOF 5
ENDMDL
MODEL 7
REMARK VINA RESULT:      -7.2      1.511      2.803
REMARK  Name = 
REMARK  11 active torsions:
REMARK  status: ('A' for Active; 'I' for Inactive)
REMARK    1  A    between atoms: C_1  and  C_2
REMARK    2  A    between atoms: C_2  and  C_3
REMARK    3  A    between atoms: C_3  and  C_4
REMARK    4  A    between atoms: C_6  and  C_7
REMARK    5  A    between atoms: C_7  and  N_8
REMARK    6  A    between atoms: N_8  and  C_9
REMARK    7  A    between atoms: N_8  and  C_10
REMARK    8  A    between atoms: C_12  and  C_13
REMARK    9  A    between atoms: C_12  and  C_14
REMARK   10  A    between atoms: C_16  and  C_17
REMARK   11  A    between atoms: C_16  and  C_18
REMARK                            x       y       z     vdW  Elec       q    Type
REMARK                         _______ _______ _______ _____ _____    ______ ____
ROOT
ATOM      1  N   UNL     1       6.323   5.611  18.042  0.00  0.00    +0.000 NA
ATOM      2  C   UNL     1       6.601   6.825  17.259  0.00  0.00    +0.000 C 
ENDROOT
BRANCH   1   3
ATOM      3  C   UNL     1       4.902   5.511  18.498  0.00  0.00    +0.000 C 
ATOM      4  C   UNL     1       4.180   4.227  18.051  0.00  0.00    +0.000 C 
ATOM      5  C   UNL     1       2.702   4.158  18.473  0.00  0.00    +0.000 C 
ATOM      6  C   UNL     1       2.040   3.038  17.636  0.00  0.00    +0.000 C 
ATOM      7  C   UNL     1       2.553   3.758  19.951  0.00  0.00    +0.000 C 
ATOM      8  N   UNL     1       1.974   5.388  18.155  0.00  0.00    +0.000 NA
ATOM      9  C   UNL     1       2.591   6.680  18.477  0.00  0.00    +0.000 C 
ATOM     10  C   UNL     1       1.825   7.728  17.635  0.00  0.00    +0.000 C 
ATOM     11  C   UNL     1       2.402   7.070  19.952  0.00  0.00    +0.000 C 
ATOM     12  C   UNL     1       4.075   6.734  18.056  0.00  0.00    +0.000 C 
ATOM     13  H   UNL     1       1.018   5.346  18.509  0.00  0.00    +0.000 HD
ENDBRANCH   1   3
BRANCH   1  14
ATOM     14  C   UNL     1       6.743   4.391  17.305  0.00  0.00    +0.000 C 
BRANCH  14  17
ATOM     15  C   UNL     1       6.688   4.405  13.621  0.00  0.00    +0.000 A 
ATOM     16  C   UNL     1       6.115   3.965  14.792  0.00  0.00    +0.000 A 
ATOM     17  C   UNL     1       6.824   4.630  15.821  0.00  0.00    +0.000 A 
ATOM     18  N   UNL     1       7.709   5.506  15.320  0.00  0.00    +0.000 NA
ATOM     19  N   UNL     1       7.603   5.350  13.993  0.00  0.00    +0.000 N 
ATOM     20  H   UNL     1       8.222   5.890  13.399  0.00  0.00    +0.000 HD
BRANCH  15  21
ATOM     21  C   UNL     1       6.489   3.990  12.206  0.00  0.00    +0.000 C 
BRANCH  21  23
ATOM     22  C   UNL     1       4.254   3.213  11.337  0.00  0.00    +0.000 C 
ATOM     23  C   UNL     1       5.510   2.819  12.096  0.00  0.00    +0.000 C 
ENDBRANCH  21  23
ENDBRANCH  15  21
ENDBRANCH  14  17
ENDBRANCH   1  14
TORSDOF 5
ENDMDL
MODEL 8
REMARK VINA RESULT:      -7.1      1.250      1.510
REMARK  Name = 
REMARK  11 active torsions:
REMARK  status: ('A' for Active; 'I' for Inactive)
REMARK    1  A    between atoms: C_1  and  C_2
REMARK    2  A    between atoms: C_2  and  C_3
REMARK    3  A    between atoms: C_3  and  C_4
REMARK    4  A    between atoms: C_6  and  C_7
REMARK    5  A    between atoms: C_7  and  N_8
REMARK    6  A    between atoms: N_8  and  C_9
REMARK    7  A    between atoms: N_8  and  C_10
REMARK    8  A    between atoms: C_12  and  C_13
REMARK    9  A    between atoms: C_12  and  C_14
REMARK   10  A    between atoms: C_16  and  C_17
REMARK   11  A    between atoms: C_16  and  C_18
REMARK                            x       y       z     vdW  Elec       q    Type
REMARK                         _______ _______ _______ _____ _____    ______ ____
ROOT
ATOM      1  N   UNL     1       6.258   5.209  18.066  0.00  0.00    +0.000 NA
ATOM      2  C   UNL     1       5.932   6.570  17.614  0.00  0.00    +0.000 C 
ENDROOT
BRANCH   1   3
ATOM      3  C   UNL     1       5.072   4.297  18.106  0.00  0.00    +0.000 C 
ATOM      4  C   UNL     1       3.763   4.937  17.608  0.00  0.00    +0.000 C 
ATOM      5  C   UNL     1       2.536   4.014  17.707  0.00  0.00    +0.000 C 
ATOM      6  C   UNL     1       1.282   4.905  17.551  0.00  0.00    +0.000 C 
ATOM      7  C   UNL     1       2.503   2.991  16.559  0.00  0.00    +0.000 C 
ATOM      8  N   UNL     1       2.422   3.377  19.021  0.00  0.00    +0.000 NA
ATOM      9  C   UNL     1       3.620   2.787  19.628  0.00  0.00    +0.000 C 
ATOM     10  C   UNL     1       3.288   2.626  21.131  0.00  0.00    +0.000 C 
ATOM     11  C   UNL     1       3.921   1.380  19.086  0.00  0.00    +0.000 C 
ATOM     12  C   UNL     1       4.846   3.718  19.516  0.00  0.00    +0.000 C 
ATOM     13  H   UNL     1       1.645   2.716  19.038  0.00  0.00    +0.000 HD
ENDBRANCH   1   3
BRANCH   1  14
ATOM     14  C   UNL     1       7.363   4.627  17.261  0.00  0.00    +0.000 C 
BRANCH  14  17
ATOM     15  C   UNL     1       6.474   4.090  13.726  0.00  0.00    +0.000 A 
ATOM     16  C   UNL     1       6.272   3.743  15.043  0.00  0.00    +0.000 A 
ATOM     17  C   UNL     1       7.060   4.655  15.787  0.00  0.00    +0.000 A 
ATOM     18  N   UNL     1       7.629   5.574  14.992  0.00  0.00    +0.000 NA
ATOM     19  N   UNL     1       7.256   5.210  13.758  0.00  0.00    +0.000 N 
ATOM     20  H   UNL     1       7.613   5.746  12.974  0.00  0.00    +0.000 HD
BRANCH  15  21
ATOM     21  C   UNL     1       6.041   3.444  12.457  0.00  0.00    +0.000 C 
BRANCH  21  23
ATOM     22  C   UNL     1       4.037   3.311  10.933  0.00  0.00    +0.000 C 
ATOM     23  C   UNL     1       4.516   3.331  12.375  0.00  0.00    +0.000 C 
ENDBRANCH  21  23
ENDBRANCH  15  21
ENDBRANCH  14  17
ENDBRANCH   1  14
TORSDOF 5
ENDMDL
MODEL 9
REMARK VINA RESULT:      -7.1      1.194      1.933
REMARK  Name = 
REMARK  11 active torsions:
REMARK  status: ('A' for Active; 'I' for Inactive)
REMARK    1  A    between atoms: C_1  and  C_2
REMARK    2  A    between atoms: C_2  and  C_3
REMARK    3  A    between atoms: C_3  and  C_4
REMARK    4  A    between atoms: C_6  and  C_7
REMARK    5  A    between atoms: C_7  and  N_8
REMARK    6  A    between atoms: N_8  and  C_9
REMARK    7  A    between atoms: N_8  and  C_10
REMARK    8  A    between atoms: C_12  and  C_13
REMARK    9  A    between atoms: C_12  and  C_14
REMARK   10  A    between atoms: C_16  and  C_17
REMARK   11  A    between atoms: C_16  and  C_18
REMARK                            x       y       z     vdW  Elec       q    Type
REMARK                         _______ _______ _______ _____ _____    ______ ____
ROOT
ATOM      1  N   UNL     1       5.898   4.883  18.091  0.00  0.00    +0.000 NA
ATOM      2  C   UNL     1       6.633   5.472  19.220  0.00  0.00    +0.000 C 
ENDROOT
BRANCH   1   3
ATOM      3  C   UNL     1       4.658   4.155  18.505  0.00  0.00    +0.000 C 
ATOM      4  C   UNL     1       3.488   4.279  17.512  0.00  0.00    +0.000 C 
ATOM      5  C   UNL     1       2.197   3.578  17.971  0.00  0.00    +0.000 C 
ATOM      6  C   UNL     1       1.048   4.114  17.086  0.00  0.00    +0.000 C 
ATOM      7  C   UNL     1       2.266   2.058  17.742  0.00  0.00    +0.000 C 
ATOM      8  N   UNL     1       1.841   3.915  19.351  0.00  0.00    +0.000 NA
ATOM      9  C   UNL     1       2.889   3.895  20.378  0.00  0.00    +0.000 C 
ATOM     10  C   UNL     1       2.323   4.710  21.565  0.00  0.00    +0.000 C 
ATOM     11  C   UNL     1       3.167   2.477  20.905  0.00  0.00    +0.000 C 
ATOM     12  C   UNL     1       4.180   4.594  19.903  0.00  0.00    +0.000 C 
ATOM     13  H   UNL     1       1.026   3.384  19.656  0.00  0.00    +0.000 HD
ENDBRANCH   1   3
BRANCH   1  14
ATOM     14  C   UNL     1       5.607   5.903  17.051  0.00  0.00    +0.000 C 
BRANCH  14  17
ATOM     15  C   UNL     1       6.743   4.653  13.776  0.00  0.00    +0.000 A 
ATOM     16  C   UNL     1       5.691   4.878  14.636  0.00  0.00    +0.000 A 
ATOM     17  C   UNL     1       6.257   5.567  15.736  0.00  0.00    +0.000 A 
ATOM     18  N   UNL     1       7.553   5.846  15.526  0.00  0.00    +0.000 NA
ATOM     19  N   UNL     1       7.816   5.286  14.338  0.00  0.00    +0.000 N 
ATOM     20  H   UNL     1       8.768   5.334  13.989  0.00  0.00    +0.000 HD
BRANCH  15  21
ATOM     21  C   UNL     1       6.838   3.869  12.515  0.00  0.00    +0.000 C 
BRANCH  21  23
ATOM     22  C   UNL     1       5.713   1.897  11.420  0.00  0.00    +0.000 C 
ATOM     23  C   UNL     1       5.504   3.205  12.164  0.00  0.00    +0.000 C 
ENDBRANCH  21  23
ENDBRANCH  15  21
ENDBRANCH  14  17
ENDBRANCH   1  14
TORSDOF 5
ENDMDL
