MODEL 1
REMARK VINA RESULT:      -5.5      0.000      0.000
REMARK  Name = 
REMARK  1 active torsions:
REMARK  status: ('A' for Active; 'I' for Inactive)
REMARK    1  A    between atoms: C_1  and  N_2
REMARK                            x       y       z     vdW  Elec       q    Type
REMARK                         _______ _______ _______ _____ _____    ______ ____
ROOT
ATOM      1  C   UNL     1       3.967   5.859  17.458  0.00  0.00    +0.000 C 
ATOM      2  N   UNL     1       4.077   4.795  18.423  0.00  0.00    +0.000 N 
ATOM      3  C   UNL     1       5.183   4.025  18.639  0.00  0.00    +0.000 A 
ATOM      4  N   UNL     1       4.977   3.137  19.585  0.00  0.00    +0.000 NA
ATOM      5  C   UNL     1       3.682   3.342  19.998  0.00  0.00    +0.000 A 
ATOM      6  C   UNL     1       2.945   2.673  20.984  0.00  0.00    +0.000 A 
ATOM      7  C   UNL     1       1.633   3.084  21.208  0.00  0.00    +0.000 A 
ATOM      8  F   UNL     1       0.905   2.462  22.147  0.00  0.00    +0.000 F 
ATOM      9  C   UNL     1       1.051   4.126  20.487  0.00  0.00    +0.000 A 
ATOM     10  C   UNL     1       1.772   4.804  19.499  0.00  0.00    +0.000 A 
ATOM     11  C   UNL     1       3.090   4.382  19.283  0.00  0.00    +0.000 A 
ENDROOT
TORSDOF 0
ENDMDL
MODEL 2
REMARK VINA RESULT:      -5.3      1.756      1.795
REMARK  Name = 
REMARK  1 active torsions:
REMARK  status: ('A' for Active; 'I' for Inactive)
REMARK    1  A    between atoms: C_1  and  N_2
REMARK                            x       y       z     vdW  Elec       q    Type
REMARK                         _______ _______ _______ _____ _____    ______ ____
ROOT
ATOM      1  C   UNL     1       4.615   6.874  17.275  0.00  0.00    +0.000 C 
ATOM      2  N   UNL     1       4.724   5.638  18.007  0.00  0.00    +0.000 N 
ATOM      3  C   UNL     1       5.851   5.164  18.611  0.00  0.00    +0.000 A 
ATOM      4  N   UNL     1       5.637   4.010  19.200  0.00  0.00    +0.000 NA
ATOM      5  C   UNL     1       4.314   3.724  18.966  0.00  0.00    +0.000 A 
ATOM      6  C   UNL     1       3.557   2.615  19.366  0.00  0.00    +0.000 A 
ATOM      7  C   UNL     1       2.216   2.571  18.990  0.00  0.00    +0.000 A 
ATOM      8  F   UNL     1       1.469   1.521  19.361  0.00  0.00    +0.000 F 
ATOM      9  C   UNL     1       1.625   3.586  18.240  0.00  0.00    +0.000 A 
ATOM     10  C   UNL     1       2.365   4.700  17.832  0.00  0.00    +0.000 A 
ATOM     11  C   UNL     1       3.712   4.733  18.216  0.00  0.00    +0.000 A 
ENDROOT
TORSDOF 0
ENDMDL
MODEL 3
REMARK VINA RESULT:      -5.3      1.679      2.045
REMARK  Name = 
REMARK  1 active torsions:
REMARK  status: ('A' for Active; 'I' for Inactive)
REMARK    1  A    between atoms: C_1  and  N_2
REMARK                            x       y       z     vdW  Elec       q    Type
REMARK                         _______ _______ _______ _____ _____    ______ ____
ROOT
ATOM      1  C   UNL     1       5.510   4.018  16.219  0.00  0.00    +0.000 C 
ATOM      2  N   UNL     1       5.074   4.410  17.535  0.00  0.00    +0.000 N 
ATOM      3  C   UNL     1       5.851   4.995  18.493  0.00  0.00    +0.000 A 
ATOM      4  N   UNL     1       5.169   5.234  19.590  0.00  0.00    +0.000 NA
ATOM      5  C   UNL     1       3.897   4.784  19.331  0.00  0.00    +0.000 A 
ATOM      6  C   UNL     1       2.763   4.794  20.155  0.00  0.00    +0.000 A 
ATOM      7  C   UNL     1       1.579   4.269  19.640  0.00  0.00    +0.000 A 
ATOM      8  F   UNL     1       0.479   4.267  20.407  0.00  0.00    +0.000 F 
ATOM      9  C   UNL     1       1.501   3.747  18.350  0.00  0.00    +0.000 A 
ATOM     10  C   UNL     1       2.623   3.730  17.514  0.00  0.00    +0.000 A 
ATOM     11  C   UNL     1       3.807   4.260  18.042  0.00  0.00    +0.000 A 
ENDROOT
TORSDOF 0
ENDMDL
MODEL 4
REMARK VINA RESULT:      -5.3      1.693      1.909
REMARK  Name = 
REMARK  1 active torsions:
REMARK  status: ('A' for Active; 'I' for Inactive)
REMARK    1  A    between atoms: C_1  and  N_2
REMARK                            x       y       z     vdW  Elec       q    Type
REMARK                         _______ _______ _______ _____ _____    ______ ____
ROOT
ATOM      1  C   UNL     1       5.204   4.607  15.713  0.00  0.00    +0.000 C 
ATOM      2  N   UNL     1       5.085   4.287  17.113  0.00  0.00    +0.000 N 
ATOM      3  C   UNL     1       6.055   4.461  18.057  0.00  0.00    +0.000 A 
ATOM      4  N   UNL     1       5.649   4.077  19.245  0.00  0.00    +0.000 NA
ATOM      5  C   UNL     1       4.361   3.635  19.062  0.00  0.00    +0.000 A 
ATOM      6  C   UNL     1       3.456   3.115  19.997  0.00  0.00    +0.000 A 
ATOM      7  C   UNL     1       2.194   2.737  19.542  0.00  0.00    +0.000 A 
ATOM      8  F   UNL     1       1.308   2.237  20.416  0.00  0.00    +0.000 F 
ATOM      9  C   UNL     1       1.822   2.862  18.204  0.00  0.00    +0.000 A 
ATOM     10  C   UNL     1       2.713   3.379  17.258  0.00  0.00    +0.000 A 
ATOM     11  C   UNL     1       3.978   3.756  17.727  0.00  0.00    +0.000 A 
ENDROOT
TORSDOF 0
ENDMDL
MODEL 5
REMARK VINA RESULT:      -5.2      1.375      1.399
REMARK  Name = 
REMARK  1 active torsions:
REMARK  status: ('A' for Active; 'I' for Inactive)
REMARK    1  A    between atoms: C_1  and  N_2
REMARK                            x       y       z     vdW  Elec       q    Type
REMARK                         _______ _______ _______ _____ _____    ______ ____
ROOT
ATOM      1  C   UNL     1       4.171   6.048  17.504  0.00  0.00    +0.000 C 
ATOM      2  N   UNL     1       3.613   4.761  17.836  0.00  0.00    +0.000 N 
ATOM      3  C   UNL     1       3.626   3.655  17.038  0.00  0.00    +0.000 A 
ATOM      4  N   UNL     1       3.039   2.632  17.616  0.00  0.00    +0.000 NA
ATOM      5  C   UNL     1       2.627   3.098  18.842  0.00  0.00    +0.000 A 
ATOM      6  C   UNL     1       1.947   2.427  19.867  0.00  0.00    +0.000 A 
ATOM      7  C   UNL     1       1.644   3.142  21.024  0.00  0.00    +0.000 A 
ATOM      8  F   UNL     1       0.995   2.524  22.021  0.00  0.00    +0.000 F 
ATOM      9  C   UNL     1       1.998   4.482  21.180  0.00  0.00    +0.000 A 
ATOM     10  C   UNL     1       2.676   5.166  20.167  0.00  0.00    +0.000 A 
ATOM     11  C   UNL     1       2.975   4.438  19.008  0.00  0.00    +0.000 A 
ENDROOT
TORSDOF 0
ENDMDL
MODEL 6
REMARK VINA RESULT:      -5.2      1.503      2.390
REMARK  Name = 
REMARK  1 active torsions:
REMARK  status: ('A' for Active; 'I' for Inactive)
REMARK    1  A    between atoms: C_1  and  N_2
REMARK                            x       y       z     vdW  Elec       q    Type
REMARK                         _______ _______ _______ _____ _____    ______ ____
ROOT
ATOM      1  C   UNL     1       4.793   3.640  17.366  0.00  0.00    +0.000 C 
ATOM      2  N   UNL     1       3.425   3.609  17.817  0.00  0.00    +0.000 N 
ATOM      3  C   UNL     1       2.329   3.915  17.064  0.00  0.00    +0.000 A 
ATOM      4  N   UNL     1       1.218   3.794  17.754  0.00  0.00    +0.000 NA
ATOM      5  C   UNL     1       1.612   3.395  19.008  0.00  0.00    +0.000 A 
ATOM      6  C   UNL     1       0.836   3.118  20.142  0.00  0.00    +0.000 A 
ATOM      7  C   UNL     1       1.496   2.725  21.304  0.00  0.00    +0.000 A 
ATOM      8  F   UNL     1       0.776   2.454  22.402  0.00  0.00    +0.000 F 
ATOM      9  C   UNL     1       2.883   2.603  21.362  0.00  0.00    +0.000 A 
ATOM     10  C   UNL     1       3.673   2.875  20.240  0.00  0.00    +0.000 A 
ATOM     11  C   UNL     1       2.999   3.269  19.077  0.00  0.00    +0.000 A 
ENDROOT
TORSDOF 0
ENDMDL
MODEL 7
REMARK VINA RESULT:      -5.2      2.340      3.178
REMARK  Name = 
REMARK  1 active torsions:
REMARK  status: ('A' for Active; 'I' for Inactive)
REMARK    1  A    between atoms: C_1  and  N_2
REMARK                            x       y       z     vdW  Elec       q    Type
REMARK                         _______ _______ _______ _____ _____    ______ ____
ROOT
ATOM      1  C   UNL     1       7.091   4.665  15.317  0.00  0.00    +0.000 C 
ATOM      2  N   UNL     1       6.713   4.591  16.706  0.00  0.00    +0.000 N 
ATOM      3  C   UNL     1       7.548   4.757  17.771  0.00  0.00    +0.000 A 
ATOM      4  N   UNL     1       6.910   4.630  18.912  0.00  0.00    +0.000 NA
ATOM      5  C   UNL     1       5.605   4.370  18.569  0.00  0.00    +0.000 A 
ATOM      6  C   UNL     1       4.493   4.149  19.394  0.00  0.00    +0.000 A 
ATOM      7  C   UNL     1       3.266   3.904  18.782  0.00  0.00    +0.000 A 
ATOM      8  F   UNL     1       2.187   3.690  19.548  0.00  0.00    +0.000 F 
ATOM      9  C   UNL     1       3.124   3.876  17.396  0.00  0.00    +0.000 A 
ATOM     10  C   UNL     1       4.222   4.094  16.558  0.00  0.00    +0.000 A 
ATOM     11  C   UNL     1       5.451   4.339  17.184  0.00  0.00    +0.000 A 
ENDROOT
TORSDOF 0
ENDMDL
MODEL 8
REMARK VINA RESULT:      -5.1      3.413      4.823
REMARK  Name = 
REMARK  1 active torsions:
REMARK  status: ('A' for Active; 'I' for Inactive)
REMARK    1  A    between atoms: C_1  and  N_2
REMARK                            x       y       z     vdW  Elec       q    Type
REMARK                         _______ _______ _______ _____ _____    ______ ____
ROOT
ATOM      1  C   UNL     1       2.236   4.282  17.775  0.00  0.00    +0.000 C 
ATOM      2  N   UNL     1       3.588   4.283  18.274  0.00  0.00    +0.000 N 
ATOM      3  C   UNL     1       4.113   3.389  19.161  0.00  0.00    +0.000 A 
ATOM      4  N   UNL     1       5.372   3.651  19.425  0.00  0.00    +0.000 NA
ATOM      5  C   UNL     1       5.675   4.763  18.678  0.00  0.00    +0.000 A 
ATOM      6  C   UNL     1       6.881   5.470  18.579  0.00  0.00    +0.000 A 
ATOM      7  C   UNL     1       6.920   6.579  17.737  0.00  0.00    +0.000 A 
ATOM      8  F   UNL     1       8.062   7.272  17.623  0.00  0.00    +0.000 F 
ATOM      9  C   UNL     1       5.807   6.991  17.005  0.00  0.00    +0.000 A 
ATOM     10  C   UNL     1       4.596   6.298  17.092  0.00  0.00    +0.000 A 
ATOM     11  C   UNL     1       4.569   5.185  17.942  0.00  0.00    +0.000 A 
ENDROOT
TORSDOF 0
ENDMDL
MODEL 9
REMARK VINA RESULT:      -5.1      2.270      2.974
REMARK  Name = 
REMARK  1 active torsions:
REMARK  status: ('A' for Active; 'I' for Inactive)
REMARK    1  A    between atoms: C_1  and  N_2
REMARK                            x       y       z     vdW  Elec       q    Type
REMARK                         _______ _______ _______ _____ _____    ______ ____
ROOT
ATOM      1  C   UNL     1       6.136   4.380  16.464  0.00  0.00    +0.000 C 
ATOM      2  N   UNL     1       4.892   4.815  17.047  0.00  0.00    +0.000 N 
ATOM      3  C   UNL     1       4.529   6.109  17.281  0.00  0.00    +0.000 A 
ATOM      4  N   UNL     1       3.335   6.187  17.822  0.00  0.00    +0.000 NA
ATOM      5  C   UNL     1       2.907   4.887  17.944  0.00  0.00    +0.000 A 
ATOM      6  C   UNL     1       1.702   4.390  18.459  0.00  0.00    +0.000 A 
ATOM      7  C   UNL     1       1.518   3.009  18.467  0.00  0.00    +0.000 A 
ATOM      8  F   UNL     1       0.374   2.507  18.953  0.00  0.00    +0.000 F 
ATOM      9  C   UNL     1       2.487   2.131  17.983  0.00  0.00    +0.000 A 
ATOM     10  C   UNL     1       3.694   2.610  17.466  0.00  0.00    +0.000 A 
ATOM     11  C   UNL     1       3.868   4.000  17.463  0.00  0.00    +0.000 A 
ENDROOT
TORSDOF 0
ENDMDL
