MODEL 1
REMARK VINA RESULT:      -7.9      0.000      0.000
REMARK  Name = 
REMARK  5 active torsions:
REMARK  status: ('A' for Active; 'I' for Inactive)
REMARK    1  A    between atoms: N_9  and  C_10
REMARK    2  A    between atoms: C_10  and  C_11
REMARK    3  A    between atoms: C_11  and  N_12
REMARK    4  A    between atoms: N_12  and  C_13
REMARK    5  A    between atoms: C_13  and  C_14
REMARK                            x       y       z     vdW  Elec       q    Type
REMARK                         _______ _______ _______ _____ _____    ______ ____
ROOT
ATOM      1  N   UNL     1       7.394   5.399  14.253  0.00  0.00    +0.000 N 
ATOM      2  C   UNL     1       7.013   4.882  15.416  0.00  0.00    +0.000 A 
ATOM      3  N   UNL     1       7.843   4.479  16.372  0.00  0.00    +0.000 NA
ATOM      4  N   UNL     1       6.974   4.060  17.298  0.00  0.00    +0.000 N 
ATOM      5  C   UNL     1       5.676   4.266  16.912  0.00  0.00    +0.000 A 
ATOM      6  N   UNL     1       4.648   3.863  17.690  0.00  0.00    +0.000 N 
ATOM      7  C   UNL     1       3.345   3.562  17.095  0.00  0.00    +0.000 C 
ATOM      8  C   UNL     1       2.718   2.364  17.862  0.00  0.00    +0.000 C 
ATOM      9  N   UNL     1       2.636   2.513  19.343  0.00  0.00    +0.000 NA
ATOM     10  C   UNL     1       3.984   2.895  19.848  0.00  0.00    +0.000 C 
ATOM     11  C   UNL     1       4.631   4.108  19.133  0.00  0.00    +0.000 C 
ATOM     12  N   UNL     1       5.684   4.765  15.698  0.00  0.00    +0.000 NA
ATOM     13  H   UNL     1       8.351   5.716  14.196  0.00  0.00    +0.000 HD
ATOM     14  H   UNL     1       6.723   5.973  13.763  0.00  0.00    +0.000 HD
ATOM     15  H   UNL     1       7.307   3.597  18.131  0.00  0.00    +0.000 HD
ENDROOT
BRANCH   9  16
ATOM     16  C   UNL     1       1.656   3.529  19.758  0.00  0.00    +0.000 C 
BRANCH  16  17
ATOM     17  C   UNL     1       2.042   4.374  20.994  0.00  0.00    +0.000 C 
BRANCH  17  18
ATOM     18  N   UNL     1       1.703   5.798  20.857  0.00  0.00    +0.000 NA
ATOM     19  H   UNL     1       1.800   6.265  21.758  0.00  0.00    +0.000 HD
BRANCH  18  20
ATOM     20  C   UNL     1       2.543   6.473  19.867  0.00  0.00    +0.000 C 
BRANCH  20  21
ATOM     21  C   UNL     1       1.980   7.813  19.487  0.00  0.00    +0.000 A 
ATOM     22  C   UNL     1       1.314   8.602  20.432  0.00  0.00    +0.000 A 
ATOM     23  C   UNL     1       0.831   9.840  20.040  0.00  0.00    +0.000 A 
ATOM     24  N   UNL     1       0.957  10.334  18.794  0.00  0.00    +0.000 NA
ATOM     25  C   UNL     1       1.601   9.555  17.897  0.00  0.00    +0.000 A 
ATOM     26  C   UNL     1       2.124   8.306  18.189  0.00  0.00    +0.000 A 
ENDBRANCH  20  21
ENDBRANCH  18  20
ENDBRANCH  17  18
ENDBRANCH  16  17
ENDBRANCH   9  16
TORSDOF 5
ENDMDL
MODEL 2
REMARK VINA RESULT:      -7.8      0.610      1.137
REMARK  Name = 
REMARK  5 active torsions:
REMARK  status: ('A' for Active; 'I' for Inactive)
REMARK    1  A    between atoms: N_9  and  C_10
REMARK    2  A    between atoms: C_10  and  C_11
REMARK    3  A    between atoms: C_11  and  N_12
REMARK    4  A    between atoms: N_12  and  C_13
REMARK    5  A    between atoms: C_13  and  C_14
REMARK                            x       y       z     vdW  Elec       q    Type
REMARK                         _______ _______ _______ _____ _____    ______ ____
ROOT
ATOM      1  N   UNL     1       7.506   5.355  14.585  0.00  0.00    +0.000 N 
ATOM      2  C   UNL     1       7.060   4.858  15.734  0.00  0.00    +0.000 A 
ATOM      3  N   UNL     1       7.821   4.603  16.793  0.00  0.00    +0.000 NA
ATOM      4  N   UNL     1       6.908   4.134  17.649  0.00  0.00    +0.000 N 
ATOM      5  C   UNL     1       5.645   4.167  17.121  0.00  0.00    +0.000 A 
ATOM      6  N   UNL     1       4.589   3.687  17.814  0.00  0.00    +0.000 N 
ATOM      7  C   UNL     1       3.400   3.207  17.108  0.00  0.00    +0.000 C 
ATOM      8  C   UNL     1       2.830   1.985  17.881  0.00  0.00    +0.000 C 
ATOM      9  N   UNL     1       2.571   2.198  19.334  0.00  0.00    +0.000 NA
ATOM     10  C   UNL     1       3.806   2.759  19.948  0.00  0.00    +0.000 C 
ATOM     11  C   UNL     1       4.389   4.002  19.229  0.00  0.00    +0.000 C 
ATOM     12  N   UNL     1       5.730   4.601  15.885  0.00  0.00    +0.000 NA
ATOM     13  H   UNL     1       8.423   5.779  14.606  0.00  0.00    +0.000 HD
ATOM     14  H   UNL     1       6.833   5.823  13.994  0.00  0.00    +0.000 HD
ATOM     15  H   UNL     1       7.198   3.755  18.540  0.00  0.00    +0.000 HD
ENDROOT
BRANCH   9  16
ATOM     16  C   UNL     1       1.446   3.113  19.582  0.00  0.00    +0.000 C 
BRANCH  16  17
ATOM     17  C   UNL     1       1.551   3.983  20.856  0.00  0.00    +0.000 C 
BRANCH  17  18
ATOM     18  N   UNL     1       1.060   5.356  20.669  0.00  0.00    +0.000 NA
ATOM     19  H   UNL     1       0.308   5.548  21.329  0.00  0.00    +0.000 HD
BRANCH  18  20
ATOM     20  C   UNL     1       2.121   6.350  20.837  0.00  0.00    +0.000 C 
BRANCH  20  21
ATOM     21  C   UNL     1       1.966   7.491  19.871  0.00  0.00    +0.000 A 
ATOM     22  C   UNL     1       2.488   7.406  18.575  0.00  0.00    +0.000 A 
ATOM     23  C   UNL     1       2.301   8.474  17.714  0.00  0.00    +0.000 A 
ATOM     24  N   UNL     1       1.649   9.604  18.050  0.00  0.00    +0.000 NA
ATOM     25  C   UNL     1       1.156   9.665  19.307  0.00  0.00    +0.000 A 
ATOM     26  C   UNL     1       1.285   8.651  20.242  0.00  0.00    +0.000 A 
ENDBRANCH  20  21
ENDBRANCH  18  20
ENDBRANCH  17  18
ENDBRANCH  16  17
ENDBRANCH   9  16
TORSDOF 5
ENDMDL
MODEL 3
REMARK VINA RESULT:      -7.3      5.146      7.122
REMARK  Name = 
REMARK  5 active torsions:
REMARK  status: ('A' for Active; 'I' for Inactive)
REMARK    1  A    between atoms: N_9  and  C_10
REMARK    2  A    between atoms: C_10  and  C_11
REMARK    3  A    between atoms: C_11  and  N_12
REMARK    4  A    between atoms: N_12  and  C_13
REMARK    5  A    between atoms: C_13  and  C_14
REMARK                            x       y       z     vdW  Elec       q    Type
REMARK                         _______ _______ _______ _____ _____    ______ ____
ROOT
ATOM      1  N   UNL     1       1.936   2.213  20.417  0.00  0.00    +0.000 N 
ATOM      2  C   UNL     1       2.802   2.553  19.468  0.00  0.00    +0.000 A 
ATOM      3  N   UNL     1       2.927   1.930  18.301  0.00  0.00    +0.000 NA
ATOM      4  N   UNL     1       3.903   2.648  17.737  0.00  0.00    +0.000 N 
ATOM      5  C   UNL     1       4.296   3.692  18.532  0.00  0.00    +0.000 A 
ATOM      6  N   UNL     1       5.308   4.506  18.161  0.00  0.00    +0.000 N 
ATOM      7  C   UNL     1       6.086   5.225  19.171  0.00  0.00    +0.000 C 
ATOM      8  C   UNL     1       7.565   5.288  18.699  0.00  0.00    +0.000 C 
ATOM      9  N   UNL     1       7.788   5.832  17.329  0.00  0.00    +0.000 NA
ATOM     10  C   UNL     1       6.901   5.096  16.387  0.00  0.00    +0.000 C 
ATOM     11  C   UNL     1       5.408   5.040  16.802  0.00  0.00    +0.000 C 
ATOM     12  N   UNL     1       3.620   3.627  19.655  0.00  0.00    +0.000 NA
ATOM     13  H   UNL     1       1.180   1.603  20.137  0.00  0.00    +0.000 HD
ATOM     14  H   UNL     1       1.684   2.926  21.086  0.00  0.00    +0.000 HD
ATOM     15  H   UNL     1       4.301   2.357  16.856  0.00  0.00    +0.000 HD
ENDROOT
BRANCH   9  16
ATOM     16  C   UNL     1       7.505   7.273  17.238  0.00  0.00    +0.000 C 
BRANCH  16  17
ATOM     17  C   UNL     1       8.144   8.157  18.335  0.00  0.00    +0.000 C 
BRANCH  17  18
ATOM     18  N   UNL     1       8.544   9.487  17.854  0.00  0.00    +0.000 NA
ATOM     19  H   UNL     1       7.742   9.960  17.438  0.00  0.00    +0.000 HD
BRANCH  18  20
ATOM     20  C   UNL     1       9.098  10.318  18.923  0.00  0.00    +0.000 C 
BRANCH  20  21
ATOM     21  C   UNL     1       9.617  11.625  18.393  0.00  0.00    +0.000 A 
ATOM     22  C   UNL     1      10.825  11.682  17.689  0.00  0.00    +0.000 A 
ATOM     23  C   UNL     1      11.251  12.906  17.201  0.00  0.00    +0.000 A 
ATOM     24  N   UNL     1      10.574  14.058  17.369  0.00  0.00    +0.000 NA
ATOM     25  C   UNL     1       9.412  13.981  18.054  0.00  0.00    +0.000 A 
ATOM     26  C   UNL     1       8.897  12.806  18.578  0.00  0.00    +0.000 A 
ENDBRANCH  20  21
ENDBRANCH  18  20
ENDBRANCH  17  18
ENDBRANCH  16  17
ENDBRANCH   9  16
TORSDOF 5
ENDMDL
MODEL 4
REMARK VINA RESULT:      -7.1      1.319      1.759
REMARK  Name = 
REMARK  5 active torsions:
REMARK  status: ('A' for Active; 'I' for Inactive)
REMARK    1  A    between atoms: N_9  and  C_10
REMARK    2  A    between atoms: C_10  and  C_11
REMARK    3  A    between atoms: C_11  and  N_12
REMARK    4  A    between atoms: N_12  and  C_13
REMARK    5  A    between atoms: C_13  and  C_14
REMARK                            x       y       z     vdW  Elec       q    Type
REMARK                         _______ _______ _______ _____ _____    ______ ____
ROOT
ATOM      1  N   UNL     1       7.737   7.068  16.686  0.00  0.00    +0.000 N 
ATOM      2  C   UNL     1       7.186   6.016  17.281  0.00  0.00    +0.000 A 
ATOM      3  N   UNL     1       7.845   5.142  18.034  0.00  0.00    +0.000 NA
ATOM      4  N   UNL     1       6.855   4.312  18.379  0.00  0.00    +0.000 N 
ATOM      5  C   UNL     1       5.646   4.725  17.886  0.00  0.00    +0.000 A 
ATOM      6  N   UNL     1       4.529   3.992  18.084  0.00  0.00    +0.000 N 
ATOM      7  C   UNL     1       3.406   4.091  17.150  0.00  0.00    +0.000 C 
ATOM      8  C   UNL     1       2.761   2.683  17.006  0.00  0.00    +0.000 C 
ATOM      9  N   UNL     1       2.372   2.014  18.280  0.00  0.00    +0.000 NA
ATOM     10  C   UNL     1       3.548   2.031  19.192  0.00  0.00    +0.000 C 
ATOM     11  C   UNL     1       4.202   3.422  19.392  0.00  0.00    +0.000 C 
ATOM     12  N   UNL     1       5.846   5.798  17.158  0.00  0.00    +0.000 NA
ATOM     13  H   UNL     1       8.651   7.344  17.018  0.00  0.00    +0.000 HD
ATOM     14  H   UNL     1       7.124   7.833  16.441  0.00  0.00    +0.000 HD
ATOM     15  H   UNL     1       7.060   3.465  18.889  0.00  0.00    +0.000 HD
ENDROOT
BRANCH   9  16
ATOM     16  C   UNL     1       1.234   2.671  18.942  0.00  0.00    +0.000 C 
BRANCH  16  17
ATOM     17  C   UNL     1       1.469   3.114  20.405  0.00  0.00    +0.000 C 
BRANCH  17  18
ATOM     18  N   UNL     1       0.997   4.478  20.684  0.00  0.00    +0.000 NA
ATOM     19  H   UNL     1       0.342   4.465  21.465  0.00  0.00    +0.000 HD
BRANCH  18  20
ATOM     20  C   UNL     1       2.098   5.392  20.989  0.00  0.00    +0.000 C 
BRANCH  20  21
ATOM     21  C   UNL     1       1.944   6.702  20.269  0.00  0.00    +0.000 A 
ATOM     22  C   UNL     1       2.446   6.869  18.973  0.00  0.00    +0.000 A 
ATOM     23  C   UNL     1       2.260   8.087  18.342  0.00  0.00    +0.000 A 
ATOM     24  N   UNL     1       1.627   9.135  18.904  0.00  0.00    +0.000 NA
ATOM     25  C   UNL     1       1.152   8.953  20.156  0.00  0.00    +0.000 A 
ATOM     26  C   UNL     1       1.282   7.773  20.871  0.00  0.00    +0.000 A 
ENDBRANCH  20  21
ENDBRANCH  18  20
ENDBRANCH  17  18
ENDBRANCH  16  17
ENDBRANCH   9  16
TORSDOF 5
ENDMDL
MODEL 5
REMARK VINA RESULT:      -7.0      5.265      6.829
REMARK  Name = 
REMARK  5 active torsions:
REMARK  status: ('A' for Active; 'I' for Inactive)
REMARK    1  A    between atoms: N_9  and  C_10
REMARK    2  A    between atoms: C_10  and  C_11
REMARK    3  A    between atoms: C_11  and  N_12
REMARK    4  A    between atoms: N_12  and  C_13
REMARK    5  A    between atoms: C_13  and  C_14
REMARK                            x       y       z     vdW  Elec       q    Type
REMARK                         _______ _______ _______ _____ _____    ______ ____
ROOT
ATOM      1  N   UNL     1       2.072   1.457  18.871  0.00  0.00    +0.000 N 
ATOM      2  C   UNL     1       2.567   2.536  18.274  0.00  0.00    +0.000 A 
ATOM      3  N   UNL     1       1.916   3.268  17.376  0.00  0.00    +0.000 NA
ATOM      4  N   UNL     1       2.832   4.203  17.104  0.00  0.00    +0.000 N 
ATOM      5  C   UNL     1       3.961   4.050  17.864  0.00  0.00    +0.000 A 
ATOM      6  N   UNL     1       5.024   4.868  17.701  0.00  0.00    +0.000 N 
ATOM      7  C   UNL     1       6.368   4.411  18.059  0.00  0.00    +0.000 C 
ATOM      8  C   UNL     1       7.377   5.004  17.035  0.00  0.00    +0.000 C 
ATOM      9  N   UNL     1       7.319   6.482  16.848  0.00  0.00    +0.000 NA
ATOM     10  C   UNL     1       5.907   6.860  16.568  0.00  0.00    +0.000 C 
ATOM     11  C   UNL     1       4.870   6.318  17.585  0.00  0.00    +0.000 C 
ATOM     12  N   UNL     1       3.818   2.971  18.597  0.00  0.00    +0.000 NA
ATOM     13  H   UNL     1       1.071   1.332  18.813  0.00  0.00    +0.000 HD
ATOM     14  H   UNL     1       2.485   1.189  19.753  0.00  0.00    +0.000 HD
ATOM     15  H   UNL     1       2.667   4.873  16.366  0.00  0.00    +0.000 HD
ENDROOT
BRANCH   9  16
ATOM     16  C   UNL     1       7.797   7.222  18.027  0.00  0.00    +0.000 C 
BRANCH  16  17
ATOM     17  C   UNL     1       7.914   8.755  17.858  0.00  0.00    +0.000 C 
BRANCH  17  18
ATOM     18  N   UNL     1       8.874   9.372  18.784  0.00  0.00    +0.000 NA
ATOM     19  H   UNL     1       9.616   8.710  19.006  0.00  0.00    +0.000 HD
BRANCH  18  20
ATOM     20  C   UNL     1       9.463  10.595  18.236  0.00  0.00    +0.000 C 
BRANCH  20  21
ATOM     21  C   UNL     1       9.415  11.723  19.227  0.00  0.00    +0.000 A 
ATOM     22  C   UNL     1       9.874  11.543  20.537  0.00  0.00    +0.000 A 
ATOM     23  C   UNL     1       9.831  12.618  21.409  0.00  0.00    +0.000 A 
ATOM     24  N   UNL     1       9.364  13.837  21.075  0.00  0.00    +0.000 NA
ATOM     25  C   UNL     1       8.924  13.988  19.806  0.00  0.00    +0.000 A 
ATOM     26  C   UNL     1       8.929  12.978  18.858  0.00  0.00    +0.000 A 
ENDBRANCH  20  21
ENDBRANCH  18  20
ENDBRANCH  17  18
ENDBRANCH  16  17
ENDBRANCH   9  16
TORSDOF 5
ENDMDL
MODEL 6
REMARK VINA RESULT:      -7.0      5.183      7.098
REMARK  Name = 
REMARK  5 active torsions:
REMARK  status: ('A' for Active; 'I' for Inactive)
REMARK    1  A    between atoms: N_9  and  C_10
REMARK    2  A    between atoms: C_10  and  C_11
REMARK    3  A    between atoms: C_11  and  N_12
REMARK    4  A    between atoms: N_12  and  C_13
REMARK    5  A    between atoms: C_13  and  C_14
REMARK                            x       y       z     vdW  Elec       q    Type
REMARK                         _______ _______ _______ _____ _____    ______ ____
ROOT
ATOM      1  N   UNL     1       0.737   3.083  20.526  0.00  0.00    +0.000 N 
ATOM      2  C   UNL     1       1.489   3.637  19.582  0.00  0.00    +0.000 A 
ATOM      3  N   UNL     1       1.098   3.844  18.329  0.00  0.00    +0.000 NA
ATOM      4  N   UNL     1       2.195   4.410  17.815  0.00  0.00    +0.000 N 
ATOM      5  C   UNL     1       3.174   4.577  18.757  0.00  0.00    +0.000 A 
ATOM      6  N   UNL     1       4.380   5.087  18.423  0.00  0.00    +0.000 N 
ATOM      7  C   UNL     1       5.564   4.767  19.222  0.00  0.00    +0.000 C 
ATOM      8  C   UNL     1       6.783   4.640  18.265  0.00  0.00    +0.000 C 
ATOM      9  N   UNL     1       7.018   5.797  17.355  0.00  0.00    +0.000 NA
ATOM     10  C   UNL     1       5.743   6.099  16.648  0.00  0.00    +0.000 C 
ATOM     11  C   UNL     1       4.507   6.268  17.568  0.00  0.00    +0.000 C 
ATOM     12  N   UNL     1       2.748   4.062  19.886  0.00  0.00    +0.000 NA
ATOM     13  H   UNL     1      -0.255   3.037  20.340  0.00  0.00    +0.000 HD
ATOM     14  H   UNL     1       0.982   3.281  21.486  0.00  0.00    +0.000 HD
ATOM     15  H   UNL     1       2.247   4.604  16.825  0.00  0.00    +0.000 HD
ENDROOT
BRANCH   9  16
ATOM     16  C   UNL     1       7.472   7.000  18.072  0.00  0.00    +0.000 C 
BRANCH  16  17
ATOM     17  C   UNL     1       7.805   8.225  17.190  0.00  0.00    +0.000 C 
BRANCH  17  18
ATOM     18  N   UNL     1       7.952   9.472  17.954  0.00  0.00    +0.000 NA
ATOM     19  H   UNL     1       7.059   9.727  18.376  0.00  0.00    +0.000 HD
BRANCH  18  20
ATOM     20  C   UNL     1       8.970   9.363  19.000  0.00  0.00    +0.000 C 
BRANCH  20  21
ATOM     21  C   UNL     1       9.639  10.684  19.258  0.00  0.00    +0.000 A 
ATOM     22  C   UNL     1      10.139  11.451  18.200  0.00  0.00    +0.000 A 
ATOM     23  C   UNL     1      10.728  12.671  18.485  0.00  0.00    +0.000 A 
ATOM     24  N   UNL     1      10.857  13.169  19.730  0.00  0.00    +0.000 NA
ATOM     25  C   UNL     1      10.369  12.411  20.737  0.00  0.00    +0.000 A 
ATOM     26  C   UNL     1       9.759  11.180  20.557  0.00  0.00    +0.000 A 
ENDBRANCH  20  21
ENDBRANCH  18  20
ENDBRANCH  17  18
ENDBRANCH  16  17
ENDBRANCH   9  16
TORSDOF 5
ENDMDL
MODEL 7
REMARK VINA RESULT:      -7.0      5.393      7.198
REMARK  Name = 
REMARK  5 active torsions:
REMARK  status: ('A' for Active; 'I' for Inactive)
REMARK    1  A    between atoms: N_9  and  C_10
REMARK    2  A    between atoms: C_10  and  C_11
REMARK    3  A    between atoms: C_11  and  N_12
REMARK    4  A    between atoms: N_12  and  C_13
REMARK    5  A    between atoms: C_13  and  C_14
REMARK                            x       y       z     vdW  Elec       q    Type
REMARK                         _______ _______ _______ _____ _____    ______ ____
ROOT
ATOM      1  N   UNL     1       1.259   2.488  19.773  0.00  0.00    +0.000 N 
ATOM      2  C   UNL     1       1.976   3.261  18.964  0.00  0.00    +0.000 A 
ATOM      3  N   UNL     1       1.556   3.724  17.792  0.00  0.00    +0.000 NA
ATOM      4  N   UNL     1       2.624   4.426  17.402  0.00  0.00    +0.000 N 
ATOM      5  C   UNL     1       3.616   4.416  18.347  0.00  0.00    +0.000 A 
ATOM      6  N   UNL     1       4.798   5.028  18.119  0.00  0.00    +0.000 N 
ATOM      7  C   UNL     1       6.007   4.581  18.815  0.00  0.00    +0.000 C 
ATOM      8  C   UNL     1       7.210   4.709  17.839  0.00  0.00    +0.000 C 
ATOM      9  N   UNL     1       7.392   6.045  17.203  0.00  0.00    +0.000 NA
ATOM     10  C   UNL     1       6.096   6.450  16.593  0.00  0.00    +0.000 C 
ATOM     11  C   UNL     1       4.873   6.371  17.542  0.00  0.00    +0.000 C 
ATOM     12  N   UNL     1       3.227   3.652  19.340  0.00  0.00    +0.000 NA
ATOM     13  H   UNL     1       0.265   2.450  19.592  0.00  0.00    +0.000 HD
ATOM     14  H   UNL     1       1.516   2.481  20.750  0.00  0.00    +0.000 HD
ATOM     15  H   UNL     1       2.652   4.834  16.479  0.00  0.00    +0.000 HD
ENDROOT
BRANCH   9  16
ATOM     16  C   UNL     1       7.822   7.076  18.161  0.00  0.00    +0.000 C 
BRANCH  16  17
ATOM     17  C   UNL     1       7.892   8.520  17.611  0.00  0.00    +0.000 C 
BRANCH  17  18
ATOM     18  N   UNL     1       8.649   9.438  18.475  0.00  0.00    +0.000 NA
ATOM     19  H   UNL     1       9.617   9.127  18.545  0.00  0.00    +0.000 HD
BRANCH  18  20
ATOM     20  C   UNL     1       8.614  10.815  17.982  0.00  0.00    +0.000 C 
BRANCH  20  21
ATOM     21  C   UNL     1       9.556  11.699  18.750  0.00  0.00    +0.000 A 
ATOM     22  C   UNL     1      10.764  11.196  19.247  0.00  0.00    +0.000 A 
ATOM     23  C   UNL     1      11.609  12.054  19.930  0.00  0.00    +0.000 A 
ATOM     24  N   UNL     1      11.337  13.355  20.153  0.00  0.00    +0.000 NA
ATOM     25  C   UNL     1      10.165  13.819  19.666  0.00  0.00    +0.000 A 
ATOM     26  C   UNL     1       9.254  13.044  18.968  0.00  0.00    +0.000 A 
ENDBRANCH  20  21
ENDBRANCH  18  20
ENDBRANCH  17  18
ENDBRANCH  16  17
ENDBRANCH   9  16
TORSDOF 5
ENDMDL
MODEL 8
REMARK VINA RESULT:      -7.0      5.105      7.093
REMARK  Name = 
REMARK  5 active torsions:
REMARK  status: ('A' for Active; 'I' for Inactive)
REMARK    1  A    between atoms: N_9  and  C_10
REMARK    2  A    between atoms: C_10  and  C_11
REMARK    3  A    between atoms: C_11  and  N_12
REMARK    4  A    between atoms: N_12  and  C_13
REMARK    5  A    between atoms: C_13  and  C_14
REMARK                            x       y       z     vdW  Elec       q    Type
REMARK                         _______ _______ _______ _____ _____    ______ ____
ROOT
ATOM      1  N   UNL     1       1.328   1.663  19.319  0.00  0.00    +0.000 N 
ATOM      2  C   UNL     1       1.803   2.716  18.664  0.00  0.00    +0.000 A 
ATOM      3  N   UNL     1       1.091   3.478  17.839  0.00  0.00    +0.000 NA
ATOM      4  N   UNL     1       2.014   4.368  17.462  0.00  0.00    +0.000 N 
ATOM      5  C   UNL     1       3.212   4.163  18.092  0.00  0.00    +0.000 A 
ATOM      6  N   UNL     1       4.288   4.929  17.808  0.00  0.00    +0.000 N 
ATOM      7  C   UNL     1       5.641   4.409  18.016  0.00  0.00    +0.000 C 
ATOM      8  C   UNL     1       6.555   4.953  16.883  0.00  0.00    +0.000 C 
ATOM      9  N   UNL     1       6.547   6.432  16.694  0.00  0.00    +0.000 NA
ATOM     10  C   UNL     1       5.131   6.877  16.571  0.00  0.00    +0.000 C 
ATOM     11  C   UNL     1       4.190   6.385  17.701  0.00  0.00    +0.000 C 
ATOM     12  N   UNL     1       3.101   3.092  18.843  0.00  0.00    +0.000 NA
ATOM     13  H   UNL     1       0.322   1.585  19.373  0.00  0.00    +0.000 HD
ATOM     14  H   UNL     1       1.824   1.376  20.151  0.00  0.00    +0.000 HD
ATOM     15  H   UNL     1       1.800   5.045  16.743  0.00  0.00    +0.000 HD
ENDROOT
BRANCH   9  16
ATOM     16  C   UNL     1       7.187   7.150  17.808  0.00  0.00    +0.000 C 
BRANCH  16  17
ATOM     17  C   UNL     1       8.228   8.222  17.410  0.00  0.00    +0.000 C 
BRANCH  17  18
ATOM     18  N   UNL     1       7.966   9.540  18.007  0.00  0.00    +0.000 NA
ATOM     19  H   UNL     1       7.109   9.506  18.558  0.00  0.00    +0.000 HD
BRANCH  18  20
ATOM     20  C   UNL     1       9.070   9.992  18.854  0.00  0.00    +0.000 C 
BRANCH  20  21
ATOM     21  C   UNL     1       9.634  11.300  18.374  0.00  0.00    +0.000 A 
ATOM     22  C   UNL     1      10.960  11.388  17.936  0.00  0.00    +0.000 A 
ATOM     23  C   UNL     1      11.428  12.610  17.482  0.00  0.00    +0.000 A 
ATOM     24  N   UNL     1      10.683  13.732  17.442  0.00  0.00    +0.000 NA
ATOM     25  C   UNL     1       9.407  13.624  17.873  0.00  0.00    +0.000 A 
ATOM     26  C   UNL     1       8.842  12.448  18.341  0.00  0.00    +0.000 A 
ENDBRANCH  20  21
ENDBRANCH  18  20
ENDBRANCH  17  18
ENDBRANCH  16  17
ENDBRANCH   9  16
TORSDOF 5
ENDMDL
MODEL 9
REMARK VINA RESULT:      -7.0      1.924      4.389
REMARK  Name = 
REMARK  5 active torsions:
REMARK  status: ('A' for Active; 'I' for Inactive)
REMARK    1  A    between atoms: N_9  and  C_10
REMARK    2  A    between atoms: C_10  and  C_11
REMARK    3  A    between atoms: C_11  and  N_12
REMARK    4  A    between atoms: N_12  and  C_13
REMARK    5  A    between atoms: C_13  and  C_14
REMARK                            x       y       z     vdW  Elec       q    Type
REMARK                         _______ _______ _______ _____ _____    ______ ____
ROOT
ATOM      1  N   UNL     1       6.724   2.885  11.936  0.00  0.00    +0.000 N 
ATOM      2  C   UNL     1       6.677   3.800  12.898  0.00  0.00    +0.000 A 
ATOM      3  N   UNL     1       7.528   4.813  13.020  0.00  0.00    +0.000 NA
ATOM      4  N   UNL     1       7.049   5.412  14.115  0.00  0.00    +0.000 N 
ATOM      5  C   UNL     1       5.919   4.796  14.582  0.00  0.00    +0.000 A 
ATOM      6  N   UNL     1       5.312   5.222  15.712  0.00  0.00    +0.000 N 
ATOM      7  C   UNL     1       4.498   4.300  16.506  0.00  0.00    +0.000 C 
ATOM      8  C   UNL     1       4.695   4.642  18.010  0.00  0.00    +0.000 C 
ATOM      9  N   UNL     1       4.460   6.064  18.389  0.00  0.00    +0.000 NA
ATOM     10  C   UNL     1       5.264   6.926  17.480  0.00  0.00    +0.000 C 
ATOM     11  C   UNL     1       5.071   6.643  15.968  0.00  0.00    +0.000 C 
ATOM     12  N   UNL     1       5.685   3.746  13.831  0.00  0.00    +0.000 NA
ATOM     13  H   UNL     1       7.289   3.111  11.129  0.00  0.00    +0.000 HD
ATOM     14  H   UNL     1       5.870   2.387  11.732  0.00  0.00    +0.000 HD
ATOM     15  H   UNL     1       7.551   6.184  14.529  0.00  0.00    +0.000 HD
ENDROOT
BRANCH   9  16
ATOM     16  C   UNL     1       3.043   6.449  18.297  0.00  0.00    +0.000 C 
BRANCH  16  17
ATOM     17  C   UNL     1       2.461   7.178  19.531  0.00  0.00    +0.000 C 
BRANCH  17  18
ATOM     18  N   UNL     1       2.307   6.306  20.704  0.00  0.00    +0.000 NA
ATOM     19  H   UNL     1       2.124   6.870  21.534  0.00  0.00    +0.000 HD
BRANCH  18  20
ATOM     20  C   UNL     1       1.228   5.332  20.532  0.00  0.00    +0.000 C 
BRANCH  20  21
ATOM     21  C   UNL     1       1.745   4.023  20.003  0.00  0.00    +0.000 A 
ATOM     22  C   UNL     1       2.822   3.378  20.622  0.00  0.00    +0.000 A 
ATOM     23  C   UNL     1       3.249   2.164  20.113  0.00  0.00    +0.000 A 
ATOM     24  N   UNL     1       2.693   1.561  19.044  0.00  0.00    +0.000 NA
ATOM     25  C   UNL     1       1.656   2.202  18.460  0.00  0.00    +0.000 A 
ATOM     26  C   UNL     1       1.152   3.417  18.895  0.00  0.00    +0.000 A 
ENDBRANCH  20  21
ENDBRANCH  18  20
ENDBRANCH  17  18
ENDBRANCH  16  17
ENDBRANCH   9  16
TORSDOF 5
ENDMDL
