MODEL 1
REMARK VINA RESULT:      -7.4      0.000      0.000
REMARK  Name = 
REMARK  7 active torsions:
REMARK  status: ('A' for Active; 'I' for Inactive)
REMARK    1  A    between atoms: C_1  and  O_2
REMARK    2  A    between atoms: O_2  and  C_3
REMARK    3  A    between atoms: C_6  and  C_7
REMARK    4  A    between atoms: C_7  and  N_8
REMARK    5  A    between atoms: C_9  and  C_11
REMARK    6  A    between atoms: C_14  and  C_15
REMARK    7  A    between atoms: C_15  and  C_16
REMARK                            x       y       z     vdW  Elec       q    Type
REMARK                         _______ _______ _______ _____ _____    ______ ____
ROOT
ATOM      1  N   UNL     1       3.324   6.376  19.673  0.00  0.00    +0.000 N 
ATOM      2  C   UNL     1       2.113   6.482  20.313  0.00  0.00    +0.000 C 
ATOM      3  O   UNL     1       1.504   5.524  20.781  0.00  0.00    +0.000 OA
ATOM      4  H   UNL     1       3.736   7.235  19.322  0.00  0.00    +0.000 HD
ENDROOT
BRANCH   2   5
ATOM      5  C   UNL     1       1.601   7.854  20.389  0.00  0.00    +0.000 A 
ATOM      6  C   UNL     1       1.305   8.486  21.583  0.00  0.00    +0.000 A 
ATOM      7  S   UNL     1       0.730  10.068  21.297  0.00  0.00    +0.000 S 
ATOM      8  C   UNL     1       0.873   9.806  19.601  0.00  0.00    +0.000 A 
ATOM      9  N   UNL     1       1.361   8.631  19.247  0.00  0.00    +0.000 NA
BRANCH   8  10
ATOM     10  C   UNL     1       0.464  10.892  18.646  0.00  0.00    +0.000 C 
BRANCH  10  11
ATOM     11  C   UNL     1      -1.012  10.863  18.317  0.00  0.00    +0.000 A 
ATOM     12  C   UNL     1      -1.904  11.745  18.942  0.00  0.00    +0.000 A 
ATOM     13  C   UNL     1      -3.266  11.708  18.640  0.00  0.00    +0.000 A 
ATOM     14  C   UNL     1      -3.750  10.790  17.710  0.00  0.00    +0.000 A 
ATOM     15  C   UNL     1      -2.875   9.900  17.091  0.00  0.00    +0.000 A 
ATOM     16  C   UNL     1      -1.513   9.931  17.395  0.00  0.00    +0.000 A 
ENDBRANCH  10  11
ENDBRANCH   8  10
ENDBRANCH   2   5
BRANCH   1  17
ATOM     17  C   UNL     1       3.983   5.111  19.461  0.00  0.00    +0.000 C 
BRANCH  17  21
ATOM     18  C   UNL     1       6.782   5.366  16.169  0.00  0.00    +0.000 A 
ATOM     19  C   UNL     1       5.414   5.533  15.951  0.00  0.00    +0.000 A 
ATOM     20  C   UNL     1       4.507   5.442  17.011  0.00  0.00    +0.000 A 
ATOM     21  C   UNL     1       4.954   5.155  18.308  0.00  0.00    +0.000 A 
ATOM     22  C   UNL     1       6.328   4.968  18.517  0.00  0.00    +0.000 A 
ATOM     23  C   UNL     1       7.237   5.072  17.454  0.00  0.00    +0.000 A 
BRANCH  18  25
ATOM     24  C   UNL     1       7.069   4.851  13.879  0.00  0.00    +0.000 C 
ATOM     25  O   UNL     1       7.566   5.480  15.056  0.00  0.00    +0.000 OA
ENDBRANCH  18  25
ENDBRANCH  17  21
ENDBRANCH   1  17
TORSDOF 6
ENDMDL
MODEL 2
REMARK VINA RESULT:      -7.3      2.742      8.508
REMARK  Name = 
REMARK  7 active torsions:
REMARK  status: ('A' for Active; 'I' for Inactive)
REMARK    1  A    between atoms: C_1  and  O_2
REMARK    2  A    between atoms: O_2  and  C_3
REMARK    3  A    between atoms: C_6  and  C_7
REMARK    4  A    between atoms: C_7  and  N_8
REMARK    5  A    between atoms: C_9  and  C_11
REMARK    6  A    between atoms: C_14  and  C_15
REMARK    7  A    between atoms: C_15  and  C_16
REMARK                            x       y       z     vdW  Elec       q    Type
REMARK                         _______ _______ _______ _____ _____    ______ ____
ROOT
ATOM      1  N   UNL     1       1.255   9.057  19.627  0.00  0.00    +0.000 N 
ATOM      2  C   UNL     1       1.401   8.131  20.631  0.00  0.00    +0.000 C 
ATOM      3  O   UNL     1       1.074   8.334  21.797  0.00  0.00    +0.000 OA
ATOM      4  H   UNL     1       1.562   8.782  18.699  0.00  0.00    +0.000 HD
ENDROOT
BRANCH   2   5
ATOM      5  C   UNL     1       1.989   6.862  20.187  0.00  0.00    +0.000 A 
ATOM      6  C   UNL     1       1.708   5.648  20.787  0.00  0.00    +0.000 A 
ATOM      7  S   UNL     1       2.566   4.388  20.018  0.00  0.00    +0.000 S 
ATOM      8  C   UNL     1       3.289   5.537  18.957  0.00  0.00    +0.000 A 
ATOM      9  N   UNL     1       2.894   6.787  19.121  0.00  0.00    +0.000 NA
BRANCH   8  10
ATOM     10  C   UNL     1       4.284   5.075  17.930  0.00  0.00    +0.000 C 
BRANCH  10  11
ATOM     11  C   UNL     1       5.618   5.778  18.044  0.00  0.00    +0.000 A 
ATOM     12  C   UNL     1       6.576   5.355  18.976  0.00  0.00    +0.000 A 
ATOM     13  C   UNL     1       7.803   6.013  19.081  0.00  0.00    +0.000 A 
ATOM     14  C   UNL     1       8.084   7.100  18.257  0.00  0.00    +0.000 A 
ATOM     15  C   UNL     1       7.136   7.537  17.334  0.00  0.00    +0.000 A 
ATOM     16  C   UNL     1       5.907   6.885  17.230  0.00  0.00    +0.000 A 
ENDBRANCH  10  11
ENDBRANCH   8  10
ENDBRANCH   2   5
BRANCH   1  17
ATOM     17  C   UNL     1       0.730  10.380  19.860  0.00  0.00    +0.000 C 
BRANCH  17  21
ATOM     18  C   UNL     1      -2.846  11.111  17.534  0.00  0.00    +0.000 A 
ATOM     19  C   UNL     1      -1.903  10.174  17.109  0.00  0.00    +0.000 A 
ATOM     20  C   UNL     1      -0.743   9.943  17.854  0.00  0.00    +0.000 A 
ATOM     21  C   UNL     1      -0.493  10.667  19.027  0.00  0.00    +0.000 A 
ATOM     22  C   UNL     1      -1.435  11.622  19.438  0.00  0.00    +0.000 A 
ATOM     23  C   UNL     1      -2.604  11.843  18.695  0.00  0.00    +0.000 A 
BRANCH  18  25
ATOM     24  C   UNL     1      -3.753  10.861  15.365  0.00  0.00    +0.000 C 
ATOM     25  O   UNL     1      -3.937  11.245  16.723  0.00  0.00    +0.000 OA
ENDBRANCH  18  25
ENDBRANCH  17  21
ENDBRANCH   1  17
TORSDOF 6
ENDMDL
MODEL 3
REMARK VINA RESULT:      -7.3      2.599      9.003
REMARK  Name = 
REMARK  7 active torsions:
REMARK  status: ('A' for Active; 'I' for Inactive)
REMARK    1  A    between atoms: C_1  and  O_2
REMARK    2  A    between atoms: O_2  and  C_3
REMARK    3  A    between atoms: C_6  and  C_7
REMARK    4  A    between atoms: C_7  and  N_8
REMARK    5  A    between atoms: C_9  and  C_11
REMARK    6  A    between atoms: C_14  and  C_15
REMARK    7  A    between atoms: C_15  and  C_16
REMARK                            x       y       z     vdW  Elec       q    Type
REMARK                         _______ _______ _______ _____ _____    ______ ____
ROOT
ATOM      1  N   UNL     1       1.119   9.423  19.339  0.00  0.00    +0.000 N 
ATOM      2  C   UNL     1       1.914   8.753  18.441  0.00  0.00    +0.000 C 
ATOM      3  O   UNL     1       2.345   9.254  17.406  0.00  0.00    +0.000 OA
ATOM      4  H   UNL     1       0.818   8.909  20.160  0.00  0.00    +0.000 HD
ENDROOT
BRANCH   2   5
ATOM      5  C   UNL     1       2.209   7.369  18.828  0.00  0.00    +0.000 A 
ATOM      6  C   UNL     1       2.046   6.893  20.116  0.00  0.00    +0.000 A 
ATOM      7  S   UNL     1       2.485   5.246  20.206  0.00  0.00    +0.000 S 
ATOM      8  C   UNL     1       2.899   5.272  18.534  0.00  0.00    +0.000 A 
ATOM      9  N   UNL     1       2.689   6.420  17.916  0.00  0.00    +0.000 NA
BRANCH   8  10
ATOM     10  C   UNL     1       3.445   4.031  17.886  0.00  0.00    +0.000 C 
BRANCH  10  11
ATOM     11  C   UNL     1       4.830   4.227  17.310  0.00  0.00    +0.000 A 
ATOM     12  C   UNL     1       5.922   4.502  18.145  0.00  0.00    +0.000 A 
ATOM     13  C   UNL     1       7.196   4.689  17.607  0.00  0.00    +0.000 A 
ATOM     14  C   UNL     1       7.392   4.604  16.231  0.00  0.00    +0.000 A 
ATOM     15  C   UNL     1       6.313   4.342  15.389  0.00  0.00    +0.000 A 
ATOM     16  C   UNL     1       5.036   4.160  15.924  0.00  0.00    +0.000 A 
ENDBRANCH  10  11
ENDBRANCH   8  10
ENDBRANCH   2   5
BRANCH   1  17
ATOM     17  C   UNL     1       0.684  10.782  19.128  0.00  0.00    +0.000 C 
BRANCH  17  21
ATOM     18  C   UNL     1      -3.450  10.913  17.851  0.00  0.00    +0.000 A 
ATOM     19  C   UNL     1      -2.548  10.037  17.245  0.00  0.00    +0.000 A 
ATOM     20  C   UNL     1      -1.211   9.999  17.650  0.00  0.00    +0.000 A 
ATOM     21  C   UNL     1      -0.745  10.860  18.653  0.00  0.00    +0.000 A 
ATOM     22  C   UNL     1      -1.652  11.753  19.244  0.00  0.00    +0.000 A 
ATOM     23  C   UNL     1      -2.996  11.780  18.844  0.00  0.00    +0.000 A 
BRANCH  18  25
ATOM     24  C   UNL     1      -5.762  10.969  18.341  0.00  0.00    +0.000 C 
ATOM     25  O   UNL     1      -4.728  10.856  17.370  0.00  0.00    +0.000 OA
ENDBRANCH  18  25
ENDBRANCH  17  21
ENDBRANCH   1  17
TORSDOF 6
ENDMDL
MODEL 4
REMARK VINA RESULT:      -7.2      2.728      8.739
REMARK  Name = 
REMARK  7 active torsions:
REMARK  status: ('A' for Active; 'I' for Inactive)
REMARK    1  A    between atoms: C_1  and  O_2
REMARK    2  A    between atoms: O_2  and  C_3
REMARK    3  A    between atoms: C_6  and  C_7
REMARK    4  A    between atoms: C_7  and  N_8
REMARK    5  A    between atoms: C_9  and  C_11
REMARK    6  A    between atoms: C_14  and  C_15
REMARK    7  A    between atoms: C_15  and  C_16
REMARK                            x       y       z     vdW  Elec       q    Type
REMARK                         _______ _______ _______ _____ _____    ______ ____
ROOT
ATOM      1  N   UNL     1       1.313   9.203  19.409  0.00  0.00    +0.000 N 
ATOM      2  C   UNL     1       1.394   8.277  20.420  0.00  0.00    +0.000 C 
ATOM      3  O   UNL     1       1.010   8.487  21.568  0.00  0.00    +0.000 OA
ATOM      4  H   UNL     1       1.664   8.923  18.499  0.00  0.00    +0.000 HD
ENDROOT
BRANCH   2   5
ATOM      5  C   UNL     1       1.988   7.001  20.009  0.00  0.00    +0.000 A 
ATOM      6  C   UNL     1       1.672   5.793  20.605  0.00  0.00    +0.000 A 
ATOM      7  S   UNL     1       2.549   4.520  19.880  0.00  0.00    +0.000 S 
ATOM      8  C   UNL     1       3.324   5.655  18.841  0.00  0.00    +0.000 A 
ATOM      9  N   UNL     1       2.934   6.909  18.980  0.00  0.00    +0.000 NA
BRANCH   8  10
ATOM     10  C   UNL     1       4.354   5.177  17.858  0.00  0.00    +0.000 C 
BRANCH  10  11
ATOM     11  C   UNL     1       5.703   5.833  18.051  0.00  0.00    +0.000 A 
ATOM     12  C   UNL     1       6.099   6.910  17.246  0.00  0.00    +0.000 A 
ATOM     13  C   UNL     1       7.348   7.508  17.425  0.00  0.00    +0.000 A 
ATOM     14  C   UNL     1       8.214   7.034  18.408  0.00  0.00    +0.000 A 
ATOM     15  C   UNL     1       7.836   5.957  19.207  0.00  0.00    +0.000 A 
ATOM     16  C   UNL     1       6.590   5.355  19.028  0.00  0.00    +0.000 A 
ENDBRANCH  10  11
ENDBRANCH   8  10
ENDBRANCH   2   5
BRANCH   1  17
ATOM     17  C   UNL     1       0.794  10.534  19.613  0.00  0.00    +0.000 C 
BRANCH  17  21
ATOM     18  C   UNL     1      -3.118  11.007  17.822  0.00  0.00    +0.000 A 
ATOM     19  C   UNL     1      -2.200  10.099  17.291  0.00  0.00    +0.000 A 
ATOM     20  C   UNL     1      -0.933   9.951  17.862  0.00  0.00    +0.000 A 
ATOM     21  C   UNL     1      -0.552  10.731  18.963  0.00  0.00    +0.000 A 
ATOM     22  C   UNL     1      -1.472  11.656  19.479  0.00  0.00    +0.000 A 
ATOM     23  C   UNL     1      -2.746  11.794  18.911  0.00  0.00    +0.000 A 
BRANCH  18  25
ATOM     24  C   UNL     1      -5.469  11.174  18.013  0.00  0.00    +0.000 C 
ATOM     25  O   UNL     1      -4.322  11.058  17.178  0.00  0.00    +0.000 OA
ENDBRANCH  18  25
ENDBRANCH  17  21
ENDBRANCH   1  17
TORSDOF 6
ENDMDL
MODEL 5
REMARK VINA RESULT:      -7.2      0.539      1.313
REMARK  Name = 
REMARK  7 active torsions:
REMARK  status: ('A' for Active; 'I' for Inactive)
REMARK    1  A    between atoms: C_1  and  O_2
REMARK    2  A    between atoms: O_2  and  C_3
REMARK    3  A    between atoms: C_6  and  C_7
REMARK    4  A    between atoms: C_7  and  N_8
REMARK    5  A    between atoms: C_9  and  C_11
REMARK    6  A    between atoms: C_14  and  C_15
REMARK    7  A    between atoms: C_15  and  C_16
REMARK                            x       y       z     vdW  Elec       q    Type
REMARK                         _______ _______ _______ _____ _____    ______ ____
ROOT
ATOM      1  N   UNL     1       3.522   6.333  19.667  0.00  0.00    +0.000 N 
ATOM      2  C   UNL     1       2.254   6.379  20.192  0.00  0.00    +0.000 C 
ATOM      3  O   UNL     1       1.622   5.384  20.537  0.00  0.00    +0.000 OA
ATOM      4  H   UNL     1       3.948   7.218  19.414  0.00  0.00    +0.000 HD
ENDROOT
BRANCH   2   5
ATOM      5  C   UNL     1       1.709   7.736  20.306  0.00  0.00    +0.000 A 
ATOM      6  C   UNL     1       1.372   8.317  21.516  0.00  0.00    +0.000 A 
ATOM      7  S   UNL     1       0.768   9.895  21.275  0.00  0.00    +0.000 S 
ATOM      8  C   UNL     1       0.956   9.700  19.574  0.00  0.00    +0.000 A 
ATOM      9  N   UNL     1       1.477   8.549  19.189  0.00  0.00    +0.000 NA
BRANCH   8  10
ATOM     10  C   UNL     1       0.545  10.812  18.650  0.00  0.00    +0.000 C 
BRANCH  10  11
ATOM     11  C   UNL     1      -0.935  10.801  18.337  0.00  0.00    +0.000 A 
ATOM     12  C   UNL     1      -1.469   9.881  17.423  0.00  0.00    +0.000 A 
ATOM     13  C   UNL     1      -2.834   9.880  17.133  0.00  0.00    +0.000 A 
ATOM     14  C   UNL     1      -3.679  10.799  17.751  0.00  0.00    +0.000 A 
ATOM     15  C   UNL     1      -3.159  11.726  18.651  0.00  0.00    +0.000 A 
ATOM     16  C   UNL     1      -1.794  11.732  18.940  0.00  0.00    +0.000 A 
ENDBRANCH  10  11
ENDBRANCH   8  10
ENDBRANCH   2   5
BRANCH   1  17
ATOM     17  C   UNL     1       4.223   5.093  19.438  0.00  0.00    +0.000 C 
BRANCH  17  21
ATOM     18  C   UNL     1       6.780   5.148  15.947  0.00  0.00    +0.000 A 
ATOM     19  C   UNL     1       6.958   6.080  16.971  0.00  0.00    +0.000 A 
ATOM     20  C   UNL     1       6.128   6.070  18.095  0.00  0.00    +0.000 A 
ATOM     21  C   UNL     1       5.084   5.140  18.202  0.00  0.00    +0.000 A 
ATOM     22  C   UNL     1       4.899   4.219  17.160  0.00  0.00    +0.000 A 
ATOM     23  C   UNL     1       5.740   4.224  16.039  0.00  0.00    +0.000 A 
BRANCH  18  25
ATOM     24  C   UNL     1       7.162   4.844  13.633  0.00  0.00    +0.000 C 
ATOM     25  O   UNL     1       7.655   5.259  14.902  0.00  0.00    +0.000 OA
ENDBRANCH  18  25
ENDBRANCH  17  21
ENDBRANCH   1  17
TORSDOF 6
ENDMDL
MODEL 6
REMARK VINA RESULT:      -7.2      5.346      7.628
REMARK  Name = 
REMARK  7 active torsions:
REMARK  status: ('A' for Active; 'I' for Inactive)
REMARK    1  A    between atoms: C_1  and  O_2
REMARK    2  A    between atoms: O_2  and  C_3
REMARK    3  A    between atoms: C_6  and  C_7
REMARK    4  A    between atoms: C_7  and  N_8
REMARK    5  A    between atoms: C_9  and  C_11
REMARK    6  A    between atoms: C_14  and  C_15
REMARK    7  A    between atoms: C_15  and  C_16
REMARK                            x       y       z     vdW  Elec       q    Type
REMARK                         _______ _______ _______ _____ _____    ______ ____
ROOT
ATOM      1  N   UNL     1       7.533   8.530  17.817  0.00  0.00    +0.000 N 
ATOM      2  C   UNL     1       7.315   7.291  17.265  0.00  0.00    +0.000 C 
ATOM      3  O   UNL     1       7.984   6.827  16.346  0.00  0.00    +0.000 OA
ATOM      4  H   UNL     1       6.916   8.813  18.571  0.00  0.00    +0.000 HD
ENDROOT
BRANCH   2   5
ATOM      5  C   UNL     1       6.198   6.559  17.873  0.00  0.00    +0.000 A 
ATOM      6  C   UNL     1       6.373   5.505  18.750  0.00  0.00    +0.000 A 
ATOM      7  S   UNL     1       4.863   4.891  19.257  0.00  0.00    +0.000 S 
ATOM      8  C   UNL     1       4.066   6.039  18.251  0.00  0.00    +0.000 A 
ATOM      9  N   UNL     1       4.859   6.870  17.600  0.00  0.00    +0.000 NA
BRANCH   8  10
ATOM     10  C   UNL     1       2.565   6.045  18.178  0.00  0.00    +0.000 C 
BRANCH  10  11
ATOM     11  C   UNL     1       1.939   4.814  18.796  0.00  0.00    +0.000 A 
ATOM     12  C   UNL     1       1.661   4.763  20.169  0.00  0.00    +0.000 A 
ATOM     13  C   UNL     1       1.090   3.621  20.734  0.00  0.00    +0.000 A 
ATOM     14  C   UNL     1       0.793   2.520  19.934  0.00  0.00    +0.000 A 
ATOM     15  C   UNL     1       1.076   2.555  18.570  0.00  0.00    +0.000 A 
ATOM     16  C   UNL     1       1.651   3.693  18.003  0.00  0.00    +0.000 A 
ENDBRANCH  10  11
ENDBRANCH   8  10
ENDBRANCH   2   5
BRANCH   1  17
ATOM     17  C   UNL     1       8.560   9.423  17.339  0.00  0.00    +0.000 C 
BRANCH  17  21
ATOM     18  C   UNL     1       9.669  12.482  20.193  0.00  0.00    +0.000 A 
ATOM     19  C   UNL     1       9.612  11.141  20.577  0.00  0.00    +0.000 A 
ATOM     20  C   UNL     1       9.246  10.153  19.659  0.00  0.00    +0.000 A 
ATOM     21  C   UNL     1       8.902  10.494  18.344  0.00  0.00    +0.000 A 
ATOM     22  C   UNL     1       8.942  11.845  17.970  0.00  0.00    +0.000 A 
ATOM     23  C   UNL     1       9.322  12.833  18.889  0.00  0.00    +0.000 A 
BRANCH  18  25
ATOM     24  C   UNL     1       9.337  14.590  21.213  0.00  0.00    +0.000 C 
ATOM     25  O   UNL     1      10.042  13.353  21.178  0.00  0.00    +0.000 OA
ENDBRANCH  18  25
ENDBRANCH  17  21
ENDBRANCH   1  17
TORSDOF 6
ENDMDL
MODEL 7
REMARK VINA RESULT:      -7.2      5.353      7.566
REMARK  Name = 
REMARK  7 active torsions:
REMARK  status: ('A' for Active; 'I' for Inactive)
REMARK    1  A    between atoms: C_1  and  O_2
REMARK    2  A    between atoms: O_2  and  C_3
REMARK    3  A    between atoms: C_6  and  C_7
REMARK    4  A    between atoms: C_7  and  N_8
REMARK    5  A    between atoms: C_9  and  C_11
REMARK    6  A    between atoms: C_14  and  C_15
REMARK    7  A    between atoms: C_15  and  C_16
REMARK                            x       y       z     vdW  Elec       q    Type
REMARK                         _______ _______ _______ _____ _____    ______ ____
ROOT
ATOM      1  N   UNL     1       7.576   8.415  17.860  0.00  0.00    +0.000 N 
ATOM      2  C   UNL     1       7.302   7.205  17.270  0.00  0.00    +0.000 C 
ATOM      3  O   UNL     1       7.927   6.756  16.313  0.00  0.00    +0.000 OA
ATOM      4  H   UNL     1       6.992   8.688  18.643  0.00  0.00    +0.000 HD
ENDROOT
BRANCH   2   5
ATOM      5  C   UNL     1       6.182   6.485  17.886  0.00  0.00    +0.000 A 
ATOM      6  C   UNL     1       6.353   5.473  18.813  0.00  0.00    +0.000 A 
ATOM      7  S   UNL     1       4.840   4.860  19.315  0.00  0.00    +0.000 S 
ATOM      8  C   UNL     1       4.049   5.952  18.243  0.00  0.00    +0.000 A 
ATOM      9  N   UNL     1       4.845   6.765  17.573  0.00  0.00    +0.000 NA
BRANCH   8  10
ATOM     10  C   UNL     1       2.551   5.934  18.139  0.00  0.00    +0.000 C 
BRANCH  10  11
ATOM     11  C   UNL     1       1.929   4.718  18.789  0.00  0.00    +0.000 A 
ATOM     12  C   UNL     1       1.641   4.705  20.161  0.00  0.00    +0.000 A 
ATOM     13  C   UNL     1       1.074   3.577  20.756  0.00  0.00    +0.000 A 
ATOM     14  C   UNL     1       0.790   2.450  19.988  0.00  0.00    +0.000 A 
ATOM     15  C   UNL     1       1.083   2.446  18.625  0.00  0.00    +0.000 A 
ATOM     16  C   UNL     1       1.654   3.571  18.028  0.00  0.00    +0.000 A 
ENDBRANCH  10  11
ENDBRANCH   8  10
ENDBRANCH   2   5
BRANCH   1  17
ATOM     17  C   UNL     1       8.615   9.294  17.382  0.00  0.00    +0.000 C 
BRANCH  17  21
ATOM     18  C   UNL     1       9.413  12.451  20.234  0.00  0.00    +0.000 A 
ATOM     19  C   UNL     1       9.150  12.753  18.896  0.00  0.00    +0.000 A 
ATOM     20  C   UNL     1       8.901  11.735  17.972  0.00  0.00    +0.000 A 
ATOM     21  C   UNL     1       8.937  10.390  18.366  0.00  0.00    +0.000 A 
ATOM     22  C   UNL     1       9.222  10.092  19.707  0.00  0.00    +0.000 A 
ATOM     23  C   UNL     1       9.459  11.116  20.635  0.00  0.00    +0.000 A 
BRANCH  18  25
ATOM     24  C   UNL     1       9.944  14.751  20.373  0.00  0.00    +0.000 C 
ATOM     25  O   UNL     1       9.638  13.531  21.040  0.00  0.00    +0.000 OA
ENDBRANCH  18  25
ENDBRANCH  17  21
ENDBRANCH   1  17
TORSDOF 6
ENDMDL
MODEL 8
REMARK VINA RESULT:      -7.1      3.433      8.068
REMARK  Name = 
REMARK  7 active torsions:
REMARK  status: ('A' for Active; 'I' for Inactive)
REMARK    1  A    between atoms: C_1  and  O_2
REMARK    2  A    between atoms: O_2  and  C_3
REMARK    3  A    between atoms: C_6  and  C_7
REMARK    4  A    between atoms: C_7  and  N_8
REMARK    5  A    between atoms: C_9  and  C_11
REMARK    6  A    between atoms: C_14  and  C_15
REMARK    7  A    between atoms: C_15  and  C_16
REMARK                            x       y       z     vdW  Elec       q    Type
REMARK                         _______ _______ _______ _____ _____    ______ ____
ROOT
ATOM      1  N   UNL     1       2.170   6.448  20.213  0.00  0.00    +0.000 N 
ATOM      2  C   UNL     1       1.747   5.151  20.055  0.00  0.00    +0.000 C 
ATOM      3  O   UNL     1       0.735   4.696  20.580  0.00  0.00    +0.000 OA
ATOM      4  H   UNL     1       3.024   6.716  19.734  0.00  0.00    +0.000 HD
ENDROOT
BRANCH   2   5
ATOM      5  C   UNL     1       2.619   4.344  19.194  0.00  0.00    +0.000 A 
ATOM      6  C   UNL     1       2.482   2.975  19.051  0.00  0.00    +0.000 A 
ATOM      7  S   UNL     1       3.663   2.364  17.980  0.00  0.00    +0.000 S 
ATOM      8  C   UNL     1       4.309   3.951  17.798  0.00  0.00    +0.000 A 
ATOM      9  N   UNL     1       3.670   4.902  18.454  0.00  0.00    +0.000 NA
BRANCH   8  10
ATOM     10  C   UNL     1       5.512   4.166  16.924  0.00  0.00    +0.000 C 
BRANCH  10  11
ATOM     11  C   UNL     1       6.430   5.251  17.442  0.00  0.00    +0.000 A 
ATOM     12  C   UNL     1       7.219   5.041  18.582  0.00  0.00    +0.000 A 
ATOM     13  C   UNL     1       8.058   6.049  19.059  0.00  0.00    +0.000 A 
ATOM     14  C   UNL     1       8.118   7.277  18.403  0.00  0.00    +0.000 A 
ATOM     15  C   UNL     1       7.330   7.502  17.276  0.00  0.00    +0.000 A 
ATOM     16  C   UNL     1       6.486   6.498  16.800  0.00  0.00    +0.000 A 
ENDBRANCH  10  11
ENDBRANCH   8  10
ENDBRANCH   2   5
BRANCH   1  17
ATOM     17  C   UNL     1       1.474   7.396  21.049  0.00  0.00    +0.000 C 
BRANCH  17  21
ATOM     18  C   UNL     1       0.968  11.227  19.100  0.00  0.00    +0.000 A 
ATOM     19  C   UNL     1       0.640  11.068  20.447  0.00  0.00    +0.000 A 
ATOM     20  C   UNL     1       0.794   9.830  21.076  0.00  0.00    +0.000 A 
ATOM     21  C   UNL     1       1.256   8.718  20.358  0.00  0.00    +0.000 A 
ATOM     22  C   UNL     1       1.565   8.880  18.999  0.00  0.00    +0.000 A 
ATOM     23  C   UNL     1       1.421  10.126  18.374  0.00  0.00    +0.000 A 
BRANCH  18  25
ATOM     24  C   UNL     1       1.957  13.219  18.294  0.00  0.00    +0.000 C 
ATOM     25  O   UNL     1       0.776  12.484  18.599  0.00  0.00    +0.000 OA
ENDBRANCH  18  25
ENDBRANCH  17  21
ENDBRANCH   1  17
TORSDOF 6
ENDMDL
MODEL 9
REMARK VINA RESULT:      -7.1      0.957      1.316
REMARK  Name = 
REMARK  7 active torsions:
REMARK  status: ('A' for Active; 'I' for Inactive)
REMARK    1  A    between atoms: C_1  and  O_2
REMARK    2  A    between atoms: O_2  and  C_3
REMARK    3  A    between atoms: C_6  and  C_7
REMARK    4  A    between atoms: C_7  and  N_8
REMARK    5  A    between atoms: C_9  and  C_11
REMARK    6  A    between atoms: C_14  and  C_15
REMARK    7  A    between atoms: C_15  and  C_16
REMARK                            x       y       z     vdW  Elec       q    Type
REMARK                         _______ _______ _______ _____ _____    ______ ____
ROOT
ATOM      1  N   UNL     1       3.955   5.847  19.714  0.00  0.00    +0.000 N 
ATOM      2  C   UNL     1       2.582   5.839  19.753  0.00  0.00    +0.000 C 
ATOM      3  O   UNL     1       1.902   4.825  19.626  0.00  0.00    +0.000 OA
ATOM      4  H   UNL     1       4.414   6.745  19.827  0.00  0.00    +0.000 HD
ENDROOT
BRANCH   2   5
ATOM      5  C   UNL     1       1.987   7.165  19.960  0.00  0.00    +0.000 A 
ATOM      6  C   UNL     1       1.472   7.581  21.174  0.00  0.00    +0.000 A 
ATOM      7  S   UNL     1       0.861   9.170  21.051  0.00  0.00    +0.000 S 
ATOM      8  C   UNL     1       1.285   9.198  19.382  0.00  0.00    +0.000 A 
ATOM      9  N   UNL     1       1.888   8.112  18.932  0.00  0.00    +0.000 NA
BRANCH   8  10
ATOM     10  C   UNL     1       0.973  10.415  18.558  0.00  0.00    +0.000 C 
BRANCH  10  11
ATOM     11  C   UNL     1      -0.511  10.615  18.342  0.00  0.00    +0.000 A 
ATOM     12  C   UNL     1      -1.206  11.624  19.024  0.00  0.00    +0.000 A 
ATOM     13  C   UNL     1      -2.576  11.799  18.825  0.00  0.00    +0.000 A 
ATOM     14  C   UNL     1      -3.266  10.969  17.945  0.00  0.00    +0.000 A 
ATOM     15  C   UNL     1      -2.589   9.955  17.270  0.00  0.00    +0.000 A 
ATOM     16  C   UNL     1      -1.220   9.774  17.470  0.00  0.00    +0.000 A 
ENDBRANCH  10  11
ENDBRANCH   8  10
ENDBRANCH   2   5
BRANCH   1  17
ATOM     17  C   UNL     1       4.732   4.654  19.484  0.00  0.00    +0.000 C 
BRANCH  17  21
ATOM     18  C   UNL     1       6.390   4.367  15.496  0.00  0.00    +0.000 A 
ATOM     19  C   UNL     1       7.162   4.856  16.551  0.00  0.00    +0.000 A 
ATOM     20  C   UNL     1       6.626   4.958  17.838  0.00  0.00    +0.000 A 
ATOM     21  C   UNL     1       5.294   4.596  18.086  0.00  0.00    +0.000 A 
ATOM     22  C   UNL     1       4.518   4.124  17.017  0.00  0.00    +0.000 A 
ATOM     23  C   UNL     1       5.062   4.011  15.730  0.00  0.00    +0.000 A 
BRANCH  18  25
ATOM     24  C   UNL     1       6.247   3.835  13.196  0.00  0.00    +0.000 C 
ATOM     25  O   UNL     1       7.026   4.313  14.287  0.00  0.00    +0.000 OA
ENDBRANCH  18  25
ENDBRANCH  17  21
ENDBRANCH   1  17
TORSDOF 6
ENDMDL
