MODEL 1
REMARK VINA RESULT:      -7.2      0.000      0.000
REMARK  Name = 
REMARK  6 active torsions:
REMARK  status: ('A' for Active; 'I' for Inactive)
REMARK    1  A    between atoms: C_1  and  O_2
REMARK    2  A    between atoms: O_2  and  C_3
REMARK    3  A    between atoms: C_7  and  C_8
REMARK    4  A    between atoms: N_10  and  N_11
REMARK    5  A    between atoms: C_12  and  C_13
REMARK    6  A    between atoms: C_15  and  C_16
REMARK                            x       y       z     vdW  Elec       q    Type
REMARK                         _______ _______ _______ _____ _____    ______ ____
ROOT
ATOM      1  C   UNL     1       8.569   9.534  18.384  0.00  0.00    +0.000 C 
ATOM      2  O   UNL     1       7.709   9.930  17.603  0.00  0.00    +0.000 OA
ATOM      3  N   UNL     1       8.790   8.198  18.702  0.00  0.00    +0.000 N 
ATOM      4  H   UNL     1       9.432   7.915  19.433  0.00  0.00    +0.000 HD
ENDROOT
BRANCH   1   9
ATOM      5  C   UNL     1      11.091  12.302  19.080  0.00  0.00    +0.000 A 
ATOM      6  C   UNL     1      10.929  12.436  20.462  0.00  0.00    +0.000 A 
ATOM      7  C   UNL     1      10.013  11.643  21.151  0.00  0.00    +0.000 A 
ATOM      8  C   UNL     1       9.259  10.702  20.456  0.00  0.00    +0.000 A 
ATOM      9  C   UNL     1       9.418  10.547  19.071  0.00  0.00    +0.000 A 
ATOM     10  C   UNL     1      10.324  11.364  18.380  0.00  0.00    +0.000 A 
BRANCH   5  12
ATOM     11  C   UNL     1      12.332  14.325  19.255  0.00  0.00    +0.000 C 
ATOM     12  O   UNL     1      12.028  13.136  18.536  0.00  0.00    +0.000 OA
ENDBRANCH   5  12
ENDBRANCH   1   9
BRANCH   3  13
ATOM     13  N   UNL     1       7.985   7.267  18.109  0.00  0.00    +0.000 NA
ATOM     14  C   UNL     1       7.319   6.457  18.868  0.00  0.00    +0.000 C 
BRANCH  14  15
ATOM     15  C   UNL     1       6.389   5.417  18.323  0.00  0.00    +0.000 C 
ATOM     16 BR   UNL     1       6.934   4.546  16.765  0.00  0.00    +0.000 Br
ATOM     17  C   UNL     1       5.251   5.168  18.991  0.00  0.00    +0.000 C 
BRANCH  17  18
ATOM     18  C   UNL     1       4.262   4.142  18.645  0.00  0.00    +0.000 A 
ATOM     19  C   UNL     1       4.427   2.835  19.115  0.00  0.00    +0.000 A 
ATOM     20  C   UNL     1       3.484   1.851  18.807  0.00  0.00    +0.000 A 
ATOM     21  C   UNL     1       2.369   2.173  18.035  0.00  0.00    +0.000 A 
ATOM     22  C   UNL     1       2.200   3.474  17.564  0.00  0.00    +0.000 A 
ATOM     23  C   UNL     1       3.145   4.458  17.864  0.00  0.00    +0.000 A 
ENDBRANCH  17  18
ENDBRANCH  14  15
ENDBRANCH   3  13
TORSDOF 5
ENDMDL
MODEL 2
REMARK VINA RESULT:      -7.2      1.111      1.893
REMARK  Name = 
REMARK  6 active torsions:
REMARK  status: ('A' for Active; 'I' for Inactive)
REMARK    1  A    between atoms: C_1  and  O_2
REMARK    2  A    between atoms: O_2  and  C_3
REMARK    3  A    between atoms: C_7  and  C_8
REMARK    4  A    between atoms: N_10  and  N_11
REMARK    5  A    between atoms: C_12  and  C_13
REMARK    6  A    between atoms: C_15  and  C_16
REMARK                            x       y       z     vdW  Elec       q    Type
REMARK                         _______ _______ _______ _____ _____    ______ ____
ROOT
ATOM      1  C   UNL     1       8.610   9.622  18.380  0.00  0.00    +0.000 C 
ATOM      2  O   UNL     1       7.801  10.076  17.577  0.00  0.00    +0.000 OA
ATOM      3  N   UNL     1       8.709   8.278  18.725  0.00  0.00    +0.000 N 
ATOM      4  H   UNL     1       9.312   7.955  19.472  0.00  0.00    +0.000 HD
ENDROOT
BRANCH   1   9
ATOM      5  C   UNL     1      10.121  12.061  20.885  0.00  0.00    +0.000 A 
ATOM      6  C   UNL     1      11.355  12.302  20.275  0.00  0.00    +0.000 A 
ATOM      7  C   UNL     1      11.689  11.679  19.074  0.00  0.00    +0.000 A 
ATOM      8  C   UNL     1      10.779  10.814  18.472  0.00  0.00    +0.000 A 
ATOM      9  C   UNL     1       9.531  10.571  19.066  0.00  0.00    +0.000 A 
ATOM     10  C   UNL     1       9.211  11.183  20.286  0.00  0.00    +0.000 A 
BRANCH   5  12
ATOM     11  C   UNL     1       9.533  14.108  21.947  0.00  0.00    +0.000 C 
ATOM     12  O   UNL     1       9.923  12.744  22.054  0.00  0.00    +0.000 OA
ENDBRANCH   5  12
ENDBRANCH   1   9
BRANCH   3  13
ATOM     13  N   UNL     1       7.838   7.409  18.132  0.00  0.00    +0.000 NA
ATOM     14  C   UNL     1       7.581   6.291  18.731  0.00  0.00    +0.000 C 
BRANCH  14  15
ATOM     15  C   UNL     1       6.622   5.280  18.183  0.00  0.00    +0.000 C 
ATOM     16 BR   UNL     1       7.134   4.412  16.612  0.00  0.00    +0.000 Br
ATOM     17  C   UNL     1       5.482   5.052  18.856  0.00  0.00    +0.000 C 
BRANCH  17  18
ATOM     18  C   UNL     1       4.467   4.054  18.507  0.00  0.00    +0.000 A 
ATOM     19  C   UNL     1       3.530   4.339  17.508  0.00  0.00    +0.000 A 
ATOM     20  C   UNL     1       2.567   3.392  17.152  0.00  0.00    +0.000 A 
ATOM     21  C   UNL     1       2.543   2.152  17.789  0.00  0.00    +0.000 A 
ATOM     22  C   UNL     1       3.473   1.862  18.786  0.00  0.00    +0.000 A 
ATOM     23  C   UNL     1       4.433   2.811  19.148  0.00  0.00    +0.000 A 
ENDBRANCH  17  18
ENDBRANCH  14  15
ENDBRANCH   3  13
TORSDOF 5
ENDMDL
MODEL 3
REMARK VINA RESULT:      -7.2      1.119      1.664
REMARK  Name = 
REMARK  6 active torsions:
REMARK  status: ('A' for Active; 'I' for Inactive)
REMARK    1  A    between atoms: C_1  and  O_2
REMARK    2  A    between atoms: O_2  and  C_3
REMARK    3  A    between atoms: C_7  and  C_8
REMARK    4  A    between atoms: N_10  and  N_11
REMARK    5  A    between atoms: C_12  and  C_13
REMARK    6  A    between atoms: C_15  and  C_16
REMARK                            x       y       z     vdW  Elec       q    Type
REMARK                         _______ _______ _______ _____ _____    ______ ____
ROOT
ATOM      1  C   UNL     1       8.597   9.606  18.392  0.00  0.00    +0.000 C 
ATOM      2  O   UNL     1       7.823  10.025  17.537  0.00  0.00    +0.000 OA
ATOM      3  N   UNL     1       8.712   8.271  18.766  0.00  0.00    +0.000 N 
ATOM      4  H   UNL     1       9.281   7.977  19.552  0.00  0.00    +0.000 HD
ENDROOT
BRANCH   1   9
ATOM      5  C   UNL     1       9.973  12.007  21.009  0.00  0.00    +0.000 A 
ATOM      6  C   UNL     1      11.155  12.404  20.377  0.00  0.00    +0.000 A 
ATOM      7  C   UNL     1      11.498  11.896  19.125  0.00  0.00    +0.000 A 
ATOM      8  C   UNL     1      10.648  10.990  18.495  0.00  0.00    +0.000 A 
ATOM      9  C   UNL     1       9.453  10.591  19.112  0.00  0.00    +0.000 A 
ATOM     10  C   UNL     1       9.126  11.088  20.381  0.00  0.00    +0.000 A 
BRANCH   5  12
ATOM     11  C   UNL     1       9.271  13.926  22.229  0.00  0.00    +0.000 C 
ATOM     12  O   UNL     1       9.759  12.591  22.228  0.00  0.00    +0.000 OA
ENDBRANCH   5  12
ENDBRANCH   1   9
BRANCH   3  13
ATOM     13  N   UNL     1       7.899   7.370  18.141  0.00  0.00    +0.000 NA
ATOM     14  C   UNL     1       7.415   6.392  18.838  0.00  0.00    +0.000 C 
BRANCH  14  15
ATOM     15  C   UNL     1       6.493   5.363  18.259  0.00  0.00    +0.000 C 
ATOM     16 BR   UNL     1       7.031   4.568  16.659  0.00  0.00    +0.000 Br
ATOM     17  C   UNL     1       5.366   5.069  18.928  0.00  0.00    +0.000 C 
BRANCH  17  18
ATOM     18  C   UNL     1       4.388   4.045  18.549  0.00  0.00    +0.000 A 
ATOM     19  C   UNL     1       4.435   2.784  19.154  0.00  0.00    +0.000 A 
ATOM     20  C   UNL     1       3.500   1.804  18.816  0.00  0.00    +0.000 A 
ATOM     21  C   UNL     1       2.508   2.084  17.877  0.00  0.00    +0.000 A 
ATOM     22  C   UNL     1       2.456   3.338  17.270  0.00  0.00    +0.000 A 
ATOM     23  C   UNL     1       3.395   4.318  17.602  0.00  0.00    +0.000 A 
ENDBRANCH  17  18
ENDBRANCH  14  15
ENDBRANCH   3  13
TORSDOF 5
ENDMDL
MODEL 4
REMARK VINA RESULT:      -7.2      1.388      1.692
REMARK  Name = 
REMARK  6 active torsions:
REMARK  status: ('A' for Active; 'I' for Inactive)
REMARK    1  A    between atoms: C_1  and  O_2
REMARK    2  A    between atoms: O_2  and  C_3
REMARK    3  A    between atoms: C_7  and  C_8
REMARK    4  A    between atoms: N_10  and  N_11
REMARK    5  A    between atoms: C_12  and  C_13
REMARK    6  A    between atoms: C_15  and  C_16
REMARK                            x       y       z     vdW  Elec       q    Type
REMARK                         _______ _______ _______ _____ _____    ______ ____
ROOT
ATOM      1  C   UNL     1       8.653   9.462  18.300  0.00  0.00    +0.000 C 
ATOM      2  O   UNL     1       9.023   8.845  19.294  0.00  0.00    +0.000 OA
ATOM      3  N   UNL     1       7.883   8.921  17.276  0.00  0.00    +0.000 N 
ATOM      4  H   UNL     1       7.690   9.427  16.419  0.00  0.00    +0.000 HD
ENDROOT
BRANCH   1   9
ATOM      5  C   UNL     1      10.742  12.646  18.234  0.00  0.00    +0.000 A 
ATOM      6  C   UNL     1       9.777  13.562  17.803  0.00  0.00    +0.000 A 
ATOM      7  C   UNL     1       8.474  13.147  17.536  0.00  0.00    +0.000 A 
ATOM      8  C   UNL     1       8.128  11.809  17.709  0.00  0.00    +0.000 A 
ATOM      9  C   UNL     1       9.083  10.881  18.152  0.00  0.00    +0.000 A 
ATOM     10  C   UNL     1      10.398  11.300  18.396  0.00  0.00    +0.000 A 
BRANCH   5  12
ATOM     11  C   UNL     1      12.036  14.599  18.659  0.00  0.00    +0.000 C 
ATOM     12  O   UNL     1      11.976  13.191  18.466  0.00  0.00    +0.000 OA
ENDBRANCH   5  12
ENDBRANCH   1   9
BRANCH   3  13
ATOM     13  N   UNL     1       7.523   7.608  17.385  0.00  0.00    +0.000 NA
ATOM     14  C   UNL     1       6.298   7.282  17.126  0.00  0.00    +0.000 C 
BRANCH  14  15
ATOM     15  C   UNL     1       5.804   5.870  17.189  0.00  0.00    +0.000 C 
ATOM     16 BR   UNL     1       6.768   4.607  16.209  0.00  0.00    +0.000 Br
ATOM     17  C   UNL     1       4.730   5.603  17.950  0.00  0.00    +0.000 C 
BRANCH  17  18
ATOM     18  C   UNL     1       4.155   4.275  18.183  0.00  0.00    +0.000 A 
ATOM     19  C   UNL     1       4.616   3.498  19.252  0.00  0.00    +0.000 A 
ATOM     20  C   UNL     1       4.066   2.238  19.497  0.00  0.00    +0.000 A 
ATOM     21  C   UNL     1       3.046   1.754  18.679  0.00  0.00    +0.000 A 
ATOM     22  C   UNL     1       2.582   2.523  17.613  0.00  0.00    +0.000 A 
ATOM     23  C   UNL     1       3.136   3.781  17.362  0.00  0.00    +0.000 A 
ENDBRANCH  17  18
ENDBRANCH  14  15
ENDBRANCH   3  13
TORSDOF 5
ENDMDL
MODEL 5
REMARK VINA RESULT:      -7.0      1.760      2.535
REMARK  Name = 
REMARK  6 active torsions:
REMARK  status: ('A' for Active; 'I' for Inactive)
REMARK    1  A    between atoms: C_1  and  O_2
REMARK    2  A    between atoms: O_2  and  C_3
REMARK    3  A    between atoms: C_7  and  C_8
REMARK    4  A    between atoms: N_10  and  N_11
REMARK    5  A    between atoms: C_12  and  C_13
REMARK    6  A    between atoms: C_15  and  C_16
REMARK                            x       y       z     vdW  Elec       q    Type
REMARK                         _______ _______ _______ _____ _____    ______ ____
ROOT
ATOM      1  C   UNL     1       9.515  10.791  19.076  0.00  0.00    +0.000 C 
ATOM      2  O   UNL     1       9.443  10.422  20.244  0.00  0.00    +0.000 OA
ATOM      3  N   UNL     1       8.813  10.216  18.022  0.00  0.00    +0.000 N 
ATOM      4  H   UNL     1       8.981  10.474  17.056  0.00  0.00    +0.000 HD
ENDROOT
BRANCH   1   9
ATOM      5  C   UNL     1      11.687  13.911  19.314  0.00  0.00    +0.000 A 
ATOM      6  C   UNL     1      12.221  13.935  18.022  0.00  0.00    +0.000 A 
ATOM      7  C   UNL     1      11.883  12.951  17.095  0.00  0.00    +0.000 A 
ATOM      8  C   UNL     1      10.996  11.940  17.457  0.00  0.00    +0.000 A 
ATOM      9  C   UNL     1      10.443  11.909  18.746  0.00  0.00    +0.000 A 
ATOM     10  C   UNL     1      10.806  12.888  19.682  0.00  0.00    +0.000 A 
BRANCH   5  12
ATOM     11  C   UNL     1      12.332  16.196  19.490  0.00  0.00    +0.000 C 
ATOM     12  O   UNL     1      12.098  14.940  20.116  0.00  0.00    +0.000 OA
ENDBRANCH   5  12
ENDBRANCH   1   9
BRANCH   3  13
ATOM     13  N   UNL     1       7.994   9.162  18.310  0.00  0.00    +0.000 NA
ATOM     14  C   UNL     1       7.817   8.255  17.405  0.00  0.00    +0.000 C 
BRANCH  14  15
ATOM     15  C   UNL     1       6.961   7.046  17.626  0.00  0.00    +0.000 C 
ATOM     16 BR   UNL     1       7.669   5.714  18.726  0.00  0.00    +0.000 Br
ATOM     17  C   UNL     1       5.750   7.007  17.046  0.00  0.00    +0.000 C 
BRANCH  17  18
ATOM     18  C   UNL     1       4.757   5.941  17.209  0.00  0.00    +0.000 A 
ATOM     19  C   UNL     1       4.969   4.698  16.602  0.00  0.00    +0.000 A 
ATOM     20  C   UNL     1       4.039   3.668  16.762  0.00  0.00    +0.000 A 
ATOM     21  C   UNL     1       2.899   3.874  17.537  0.00  0.00    +0.000 A 
ATOM     22  C   UNL     1       2.682   5.111  18.144  0.00  0.00    +0.000 A 
ATOM     23  C   UNL     1       3.607   6.145  17.979  0.00  0.00    +0.000 A 
ENDBRANCH  17  18
ENDBRANCH  14  15
ENDBRANCH   3  13
TORSDOF 5
ENDMDL
MODEL 6
REMARK VINA RESULT:      -7.0      1.928      2.552
REMARK  Name = 
REMARK  6 active torsions:
REMARK  status: ('A' for Active; 'I' for Inactive)
REMARK    1  A    between atoms: C_1  and  O_2
REMARK    2  A    between atoms: O_2  and  C_3
REMARK    3  A    between atoms: C_7  and  C_8
REMARK    4  A    between atoms: N_10  and  N_11
REMARK    5  A    between atoms: C_12  and  C_13
REMARK    6  A    between atoms: C_15  and  C_16
REMARK                            x       y       z     vdW  Elec       q    Type
REMARK                         _______ _______ _______ _____ _____    ______ ____
ROOT
ATOM      1  C   UNL     1       9.372  10.859  18.868  0.00  0.00    +0.000 C 
ATOM      2  O   UNL     1       9.182  10.701  20.070  0.00  0.00    +0.000 OA
ATOM      3  N   UNL     1       8.943   9.981  17.879  0.00  0.00    +0.000 N 
ATOM      4  H   UNL     1       9.213  10.086  16.908  0.00  0.00    +0.000 HD
ENDROOT
BRANCH   1   9
ATOM      5  C   UNL     1      10.415  14.442  18.106  0.00  0.00    +0.000 A 
ATOM      6  C   UNL     1      11.702  14.220  17.606  0.00  0.00    +0.000 A 
ATOM      7  C   UNL     1      12.220  12.928  17.525  0.00  0.00    +0.000 A 
ATOM      8  C   UNL     1      11.442  11.848  17.936  0.00  0.00    +0.000 A 
ATOM      9  C   UNL     1      10.145  12.055  18.429  0.00  0.00    +0.000 A 
ATOM     10  C   UNL     1       9.639  13.358  18.530  0.00  0.00    +0.000 A 
BRANCH   5  12
ATOM     11  C   UNL     1      10.122  16.441  19.365  0.00  0.00    +0.000 C 
ATOM     12  O   UNL     1      10.033  15.756  18.122  0.00  0.00    +0.000 OA
ENDBRANCH   5  12
ENDBRANCH   1   9
BRANCH   3  13
ATOM     13  N   UNL     1       8.272   8.860  18.279  0.00  0.00    +0.000 NA
ATOM     14  C   UNL     1       7.560   8.225  17.405  0.00  0.00    +0.000 C 
BRANCH  14  15
ATOM     15  C   UNL     1       6.807   6.972  17.730  0.00  0.00    +0.000 C 
ATOM     16 BR   UNL     1       7.629   5.789  18.916  0.00  0.00    +0.000 Br
ATOM     17  C   UNL     1       5.597   6.793  17.173  0.00  0.00    +0.000 C 
BRANCH  17  18
ATOM     18  C   UNL     1       4.695   5.667  17.431  0.00  0.00    +0.000 A 
ATOM     19  C   UNL     1       4.851   4.475  16.715  0.00  0.00    +0.000 A 
ATOM     20  C   UNL     1       4.009   3.389  16.961  0.00  0.00    +0.000 A 
ATOM     21  C   UNL     1       3.013   3.486  17.932  0.00  0.00    +0.000 A 
ATOM     22  C   UNL     1       2.852   4.672  18.649  0.00  0.00    +0.000 A 
ATOM     23  C   UNL     1       3.689   5.762  18.398  0.00  0.00    +0.000 A 
ENDBRANCH  17  18
ENDBRANCH  14  15
ENDBRANCH   3  13
TORSDOF 5
ENDMDL
MODEL 7
REMARK VINA RESULT:      -7.0      1.473      1.997
REMARK  Name = 
REMARK  6 active torsions:
REMARK  status: ('A' for Active; 'I' for Inactive)
REMARK    1  A    between atoms: C_1  and  O_2
REMARK    2  A    between atoms: O_2  and  C_3
REMARK    3  A    between atoms: C_7  and  C_8
REMARK    4  A    between atoms: N_10  and  N_11
REMARK    5  A    between atoms: C_12  and  C_13
REMARK    6  A    between atoms: C_15  and  C_16
REMARK                            x       y       z     vdW  Elec       q    Type
REMARK                         _______ _______ _______ _____ _____    ______ ____
ROOT
ATOM      1  C   UNL     1       8.620   9.519  18.392  0.00  0.00    +0.000 C 
ATOM      2  O   UNL     1       9.127   8.913  19.330  0.00  0.00    +0.000 OA
ATOM      3  N   UNL     1       7.708   8.968  17.498  0.00  0.00    +0.000 N 
ATOM      4  H   UNL     1       7.395   9.463  16.671  0.00  0.00    +0.000 HD
ENDROOT
BRANCH   1   9
ATOM      5  C   UNL     1      10.673  12.711  18.078  0.00  0.00    +0.000 A 
ATOM      6  C   UNL     1       9.677  13.603  17.672  0.00  0.00    +0.000 A 
ATOM      7  C   UNL     1       8.363  13.170  17.499  0.00  0.00    +0.000 A 
ATOM      8  C   UNL     1       8.040  11.838  17.744  0.00  0.00    +0.000 A 
ATOM      9  C   UNL     1       9.027  10.934  18.164  0.00  0.00    +0.000 A 
ATOM     10  C   UNL     1      10.351  11.370  18.313  0.00  0.00    +0.000 A 
BRANCH   5  12
ATOM     11  C   UNL     1      12.329  14.181  17.203  0.00  0.00    +0.000 C 
ATOM     12  O   UNL     1      11.914  13.272  18.215  0.00  0.00    +0.000 OA
ENDBRANCH   5  12
ENDBRANCH   1   9
BRANCH   3  13
ATOM     13  N   UNL     1       7.364   7.658  17.675  0.00  0.00    +0.000 NA
ATOM     14  C   UNL     1       6.285   7.223  17.107  0.00  0.00    +0.000 C 
BRANCH  14  15
ATOM     15  C   UNL     1       5.831   5.800  17.215  0.00  0.00    +0.000 C 
ATOM     16 BR   UNL     1       6.919   4.515  16.411  0.00  0.00    +0.000 Br
ATOM     17  C   UNL     1       4.698   5.542  17.890  0.00  0.00    +0.000 C 
BRANCH  17  18
ATOM     18  C   UNL     1       4.144   4.212  18.154  0.00  0.00    +0.000 A 
ATOM     19  C   UNL     1       3.170   3.684  17.299  0.00  0.00    +0.000 A 
ATOM     20  C   UNL     1       2.644   2.411  17.529  0.00  0.00    +0.000 A 
ATOM     21  C   UNL     1       3.097   1.656  18.609  0.00  0.00    +0.000 A 
ATOM     22  C   UNL     1       4.067   2.176  19.465  0.00  0.00    +0.000 A 
ATOM     23  C   UNL     1       4.589   3.452  19.242  0.00  0.00    +0.000 A 
ENDBRANCH  17  18
ENDBRANCH  14  15
ENDBRANCH   3  13
TORSDOF 5
ENDMDL
MODEL 8
REMARK VINA RESULT:      -7.0      1.337      1.365
REMARK  Name = 
REMARK  6 active torsions:
REMARK  status: ('A' for Active; 'I' for Inactive)
REMARK    1  A    between atoms: C_1  and  O_2
REMARK    2  A    between atoms: O_2  and  C_3
REMARK    3  A    between atoms: C_7  and  C_8
REMARK    4  A    between atoms: N_10  and  N_11
REMARK    5  A    between atoms: C_12  and  C_13
REMARK    6  A    between atoms: C_15  and  C_16
REMARK                            x       y       z     vdW  Elec       q    Type
REMARK                         _______ _______ _______ _____ _____    ______ ____
ROOT
ATOM      1  C   UNL     1       8.585   8.881  18.409  0.00  0.00    +0.000 C 
ATOM      2  O   UNL     1       8.659   7.953  19.208  0.00  0.00    +0.000 OA
ATOM      3  N   UNL     1       7.869   8.841  17.217  0.00  0.00    +0.000 N 
ATOM      4  H   UNL     1       7.920   9.584  16.530  0.00  0.00    +0.000 HD
ENDROOT
BRANCH   1   9
ATOM      5  C   UNL     1      10.489  12.160  18.047  0.00  0.00    +0.000 A 
ATOM      6  C   UNL     1      10.710  12.463  19.394  0.00  0.00    +0.000 A 
ATOM      7  C   UNL     1      10.244  11.617  20.398  0.00  0.00    +0.000 A 
ATOM      8  C   UNL     1       9.559  10.454  20.055  0.00  0.00    +0.000 A 
ATOM      9  C   UNL     1       9.340  10.130  18.708  0.00  0.00    +0.000 A 
ATOM     10  C   UNL     1       9.791  10.997  17.703  0.00  0.00    +0.000 A 
BRANCH   5  12
ATOM     11  C   UNL     1      12.020  13.941  17.661  0.00  0.00    +0.000 C 
ATOM     12  O   UNL     1      11.008  13.072  17.168  0.00  0.00    +0.000 OA
ENDBRANCH   5  12
ENDBRANCH   1   9
BRANCH   3  13
ATOM     13  N   UNL     1       7.211   7.682  16.916  0.00  0.00    +0.000 NA
ATOM     14  C   UNL     1       6.069   7.458  17.482  0.00  0.00    +0.000 C 
BRANCH  14  15
ATOM     15  C   UNL     1       5.254   6.233  17.203  0.00  0.00    +0.000 C 
ATOM     16 BR   UNL     1       5.409   5.501  15.494  0.00  0.00    +0.000 Br
ATOM     17  C   UNL     1       4.491   5.736  18.191  0.00  0.00    +0.000 C 
BRANCH  17  18
ATOM     18  C   UNL     1       3.687   4.513  18.119  0.00  0.00    +0.000 A 
ATOM     19  C   UNL     1       4.284   3.275  18.381  0.00  0.00    +0.000 A 
ATOM     20  C   UNL     1       3.527   2.103  18.333  0.00  0.00    +0.000 A 
ATOM     21  C   UNL     1       2.167   2.164  18.031  0.00  0.00    +0.000 A 
ATOM     22  C   UNL     1       1.566   3.395  17.769  0.00  0.00    +0.000 A 
ATOM     23  C   UNL     1       2.324   4.569  17.810  0.00  0.00    +0.000 A 
ENDBRANCH  17  18
ENDBRANCH  14  15
ENDBRANCH   3  13
TORSDOF 5
ENDMDL
MODEL 9
REMARK VINA RESULT:      -6.9      2.935      9.986
REMARK  Name = 
REMARK  6 active torsions:
REMARK  status: ('A' for Active; 'I' for Inactive)
REMARK    1  A    between atoms: C_1  and  O_2
REMARK    2  A    between atoms: O_2  and  C_3
REMARK    3  A    between atoms: C_7  and  C_8
REMARK    4  A    between atoms: N_10  and  N_11
REMARK    5  A    between atoms: C_12  and  C_13
REMARK    6  A    between atoms: C_15  and  C_16
REMARK                            x       y       z     vdW  Elec       q    Type
REMARK                         _______ _______ _______ _____ _____    ______ ____
ROOT
ATOM      1  C   UNL     1       7.374   6.505  18.186  0.00  0.00    +0.000 C 
ATOM      2  O   UNL     1       8.056   6.209  19.161  0.00  0.00    +0.000 OA
ATOM      3  N   UNL     1       7.470   7.707  17.492  0.00  0.00    +0.000 N 
ATOM      4  H   UNL     1       6.817   7.963  16.761  0.00  0.00    +0.000 HD
ENDROOT
BRANCH   1   9
ATOM      5  C   UNL     1       4.625   3.870  18.120  0.00  0.00    +0.000 A 
ATOM      6  C   UNL     1       4.414   3.773  16.741  0.00  0.00    +0.000 A 
ATOM      7  C   UNL     1       5.150   4.554  15.852  0.00  0.00    +0.000 A 
ATOM      8  C   UNL     1       6.112   5.433  16.344  0.00  0.00    +0.000 A 
ATOM      9  C   UNL     1       6.343   5.533  17.724  0.00  0.00    +0.000 A 
ATOM     10  C   UNL     1       5.582   4.762  18.614  0.00  0.00    +0.000 A 
BRANCH   5  12
ATOM     11  C   UNL     1       4.463   2.371  19.961  0.00  0.00    +0.000 C 
ATOM     12  O   UNL     1       3.839   3.041  18.873  0.00  0.00    +0.000 OA
ENDBRANCH   5  12
ENDBRANCH   1   9
BRANCH   3  13
ATOM     13  N   UNL     1       8.383   8.620  17.937  0.00  0.00    +0.000 NA
ATOM     14  C   UNL     1       8.048   9.870  17.946  0.00  0.00    +0.000 C 
BRANCH  14  15
ATOM     15  C   UNL     1       8.961  10.950  18.438  0.00  0.00    +0.000 C 
ATOM     16 BR   UNL     1       9.701  10.707  20.134  0.00  0.00    +0.000 Br
ATOM     17  C   UNL     1       9.202  11.998  17.632  0.00  0.00    +0.000 C 
BRANCH  17  18
ATOM     18  C   UNL     1      10.119  13.105  17.918  0.00  0.00    +0.000 A 
ATOM     19  C   UNL     1      11.453  13.026  17.504  0.00  0.00    +0.000 A 
ATOM     20  C   UNL     1      12.333  14.080  17.755  0.00  0.00    +0.000 A 
ATOM     21  C   UNL     1      11.881  15.222  18.414  0.00  0.00    +0.000 A 
ATOM     22  C   UNL     1      10.553  15.308  18.830  0.00  0.00    +0.000 A 
ATOM     23  C   UNL     1       9.672  14.251  18.586  0.00  0.00    +0.000 A 
ENDBRANCH  17  18
ENDBRANCH  14  15
ENDBRANCH   3  13
TORSDOF 5
ENDMDL
