MODEL 1
REMARK VINA RESULT:      -7.3      0.000      0.000
REMARK  Name = 
REMARK  15 active torsions:
REMARK  status: ('A' for Active; 'I' for Inactive)
REMARK    1  A    between atoms: C_1  and  O_2
REMARK    2  A    between atoms: O_2  and  C_3
REMARK    3  A    between atoms: C_7  and  C_8
REMARK    4  A    between atoms: C_10  and  C_11
REMARK    5  A    between atoms: C_11  and  S_12
REMARK    6  A    between atoms: S_12  and  C_14
REMARK    7  A    between atoms: C_14  and  C_15
REMARK    8  A    between atoms: N_17  and  C_18
REMARK    9  A    between atoms: C_18  and  C_19
REMARK   10  A    between atoms: C_19  and  C_20
REMARK   11  A    between atoms: C_20  and  O_21
REMARK   12  A    between atoms: O_21  and  C_22
REMARK   13  A    between atoms: C_22  and  C_23
REMARK   14  A    between atoms: C_22  and  C_24
REMARK   15  A    between atoms: C_25  and  C_26
REMARK                            x       y       z     vdW  Elec       q    Type
REMARK                         _______ _______ _______ _____ _____    ______ ____
ROOT
ATOM      1  C   UNL     1       4.354   3.484  19.572  0.00  0.00    +0.000 C 
ENDROOT
BRANCH   1   4
ATOM      2  C   UNL     1       2.283   6.322  20.071  0.00  0.00    +0.000 A 
ATOM      3  N   UNL     1       3.357   5.764  19.545  0.00  0.00    +0.000 NA
ATOM      4  C   UNL     1       3.301   4.449  19.973  0.00  0.00    +0.000 A 
ATOM      5  C   UNL     1       2.177   4.275  20.756  0.00  0.00    +0.000 A 
ATOM      6  C   UNL     1       1.527   3.162  21.468  0.00  0.00    +0.000 C 
ATOM      7  O   UNL     1       1.529   5.471  20.827  0.00  0.00    +0.000 OA
BRANCH   2  12
ATOM      8  C   UNL     1       0.590   9.572  20.893  0.00  0.00    +0.000 A 
ATOM      9  C   UNL     1       0.794  10.289  19.713  0.00  0.00    +0.000 A 
ATOM     10  C   UNL     1       1.484   9.716  18.646  0.00  0.00    +0.000 A 
ATOM     11  C   UNL     1       1.973   8.418  18.757  0.00  0.00    +0.000 A 
ATOM     12  C   UNL     1       1.773   7.679  19.933  0.00  0.00    +0.000 A 
ATOM     13  C   UNL     1       1.078   8.269  20.999  0.00  0.00    +0.000 A 
BRANCH   8  15
ATOM     14  C   UNL     1      -0.104   9.661  23.161  0.00  0.00    +0.000 C 
ATOM     15  O   UNL     1      -0.101  10.247  21.864  0.00  0.00    +0.000 OA
ENDBRANCH   8  15
ENDBRANCH   2  12
ENDBRANCH   1   4
BRANCH   1  16
ATOM     16  S   UNL     1       3.826   2.353  18.249  0.00  0.00    +0.000 S 
ATOM     17  O   UNL     1       2.529   1.594  18.711  0.00  0.00    +0.000 OA
BRANCH  16  18
ATOM     18  C   UNL     1       3.369   3.582  16.988  0.00  0.00    +0.000 C 
BRANCH  18  19
ATOM     19  C   UNL     1       4.581   4.347  16.515  0.00  0.00    +0.000 C 
ATOM     20  O   UNL     1       4.648   5.577  16.581  0.00  0.00    +0.000 OA
ATOM     21  N   UNL     1       5.601   3.577  16.003  0.00  0.00    +0.000 N 
ATOM     22  H   UNL     1       5.560   2.566  16.060  0.00  0.00    +0.000 HD
BRANCH  21  23
ATOM     23  C   UNL     1       6.745   4.202  15.364  0.00  0.00    +0.000 C 
BRANCH  23  24
ATOM     24  C   UNL     1       6.403   4.739  13.978  0.00  0.00    +0.000 C 
BRANCH  24  25
ATOM     25  C   UNL     1       7.375   4.204  12.932  0.00  0.00    +0.000 C 
BRANCH  25  26
ATOM     26  O   UNL     1       6.649   3.807  11.772  0.00  0.00    +0.000 OA
BRANCH  26  27
ATOM     27  C   UNL     1       5.620   2.844  12.012  0.00  0.00    +0.000 C 
ATOM     28  C   UNL     1       4.295   3.276  11.388  0.00  0.00    +0.000 C 
ATOM     29  C   UNL     1       6.078   1.529  11.389  0.00  0.00    +0.000 C 
ENDBRANCH  26  27
ENDBRANCH  25  26
ENDBRANCH  24  25
ENDBRANCH  23  24
ENDBRANCH  21  23
ENDBRANCH  18  19
ENDBRANCH  16  18
ENDBRANCH   1  16
TORSDOF 11
ENDMDL
MODEL 2
REMARK VINA RESULT:      -7.2      2.992      4.544
REMARK  Name = 
REMARK  15 active torsions:
REMARK  status: ('A' for Active; 'I' for Inactive)
REMARK    1  A    between atoms: C_1  and  O_2
REMARK    2  A    between atoms: O_2  and  C_3
REMARK    3  A    between atoms: C_7  and  C_8
REMARK    4  A    between atoms: C_10  and  C_11
REMARK    5  A    between atoms: C_11  and  S_12
REMARK    6  A    between atoms: S_12  and  C_14
REMARK    7  A    between atoms: C_14  and  C_15
REMARK    8  A    between atoms: N_17  and  C_18
REMARK    9  A    between atoms: C_18  and  C_19
REMARK   10  A    between atoms: C_19  and  C_20
REMARK   11  A    between atoms: C_20  and  O_21
REMARK   12  A    between atoms: O_21  and  C_22
REMARK   13  A    between atoms: C_22  and  C_23
REMARK   14  A    between atoms: C_22  and  C_24
REMARK   15  A    between atoms: C_25  and  C_26
REMARK                            x       y       z     vdW  Elec       q    Type
REMARK                         _______ _______ _______ _____ _____    ______ ____
ROOT
ATOM      1  C   UNL     1       2.837   5.318  20.164  0.00  0.00    +0.000 C 
ENDROOT
BRANCH   1   4
ATOM      2  C   UNL     1       1.222   8.439  20.657  0.00  0.00    +0.000 A 
ATOM      3  N   UNL     1       1.542   7.233  21.086  0.00  0.00    +0.000 NA
ATOM      4  C   UNL     1       2.282   6.688  20.050  0.00  0.00    +0.000 A 
ATOM      5  C   UNL     1       2.370   7.608  19.025  0.00  0.00    +0.000 A 
ATOM      6  C   UNL     1       3.014   7.684  17.703  0.00  0.00    +0.000 C 
ATOM      7  O   UNL     1       1.687   8.724  19.405  0.00  0.00    +0.000 OA
BRANCH   2  12
ATOM      8  C   UNL     1      -0.229  11.824  21.387  0.00  0.00    +0.000 A 
ATOM      9  C   UNL     1      -0.914  11.574  22.578  0.00  0.00    +0.000 A 
ATOM     10  C   UNL     1      -0.906  10.301  23.145  0.00  0.00    +0.000 A 
ATOM     11  C   UNL     1      -0.208   9.271  22.522  0.00  0.00    +0.000 A 
ATOM     12  C   UNL     1       0.491   9.504  21.328  0.00  0.00    +0.000 A 
ATOM     13  C   UNL     1       0.473  10.790  20.767  0.00  0.00    +0.000 A 
BRANCH   8  15
ATOM     14  C   UNL     1      -1.454  13.430  20.140  0.00  0.00    +0.000 C 
ATOM     15  O   UNL     1      -0.316  13.114  20.933  0.00  0.00    +0.000 OA
ENDBRANCH   8  15
ENDBRANCH   2  12
ENDBRANCH   1   4
BRANCH   1  16
ATOM     16  S   UNL     1       1.650   4.114  20.836  0.00  0.00    +0.000 S 
ATOM     17  O   UNL     1       0.688   3.646  19.685  0.00  0.00    +0.000 OA
BRANCH  16  18
ATOM     18  C   UNL     1       2.804   2.761  21.223  0.00  0.00    +0.000 C 
BRANCH  18  19
ATOM     19  C   UNL     1       3.743   2.506  20.070  0.00  0.00    +0.000 C 
ATOM     20  O   UNL     1       4.949   2.313  20.236  0.00  0.00    +0.000 OA
ATOM     21  N   UNL     1       3.158   2.505  18.823  0.00  0.00    +0.000 N 
ATOM     22  H   UNL     1       2.151   2.561  18.728  0.00  0.00    +0.000 HD
BRANCH  21  23
ATOM     23  C   UNL     1       3.978   2.438  17.626  0.00  0.00    +0.000 C 
BRANCH  23  24
ATOM     24  C   UNL     1       3.892   3.717  16.800  0.00  0.00    +0.000 C 
BRANCH  24  25
ATOM     25  C   UNL     1       5.230   4.448  16.787  0.00  0.00    +0.000 C 
BRANCH  25  26
ATOM     26  O   UNL     1       5.701   4.595  18.124  0.00  0.00    +0.000 OA
BRANCH  26  27
ATOM     27  C   UNL     1       6.336   5.847  18.398  0.00  0.00    +0.000 C 
ATOM     28  C   UNL     1       7.589   5.663  19.251  0.00  0.00    +0.000 C 
ATOM     29  C   UNL     1       6.715   6.464  17.054  0.00  0.00    +0.000 C 
ENDBRANCH  26  27
ENDBRANCH  25  26
ENDBRANCH  24  25
ENDBRANCH  23  24
ENDBRANCH  21  23
ENDBRANCH  18  19
ENDBRANCH  16  18
ENDBRANCH   1  16
TORSDOF 11
ENDMDL
MODEL 3
REMARK VINA RESULT:      -7.1      1.869      8.803
REMARK  Name = 
REMARK  15 active torsions:
REMARK  status: ('A' for Active; 'I' for Inactive)
REMARK    1  A    between atoms: C_1  and  O_2
REMARK    2  A    between atoms: O_2  and  C_3
REMARK    3  A    between atoms: C_7  and  C_8
REMARK    4  A    between atoms: C_10  and  C_11
REMARK    5  A    between atoms: C_11  and  S_12
REMARK    6  A    between atoms: S_12  and  C_14
REMARK    7  A    between atoms: C_14  and  C_15
REMARK    8  A    between atoms: N_17  and  C_18
REMARK    9  A    between atoms: C_18  and  C_19
REMARK   10  A    between atoms: C_19  and  C_20
REMARK   11  A    between atoms: C_20  and  O_21
REMARK   12  A    between atoms: O_21  and  C_22
REMARK   13  A    between atoms: C_22  and  C_23
REMARK   14  A    between atoms: C_22  and  C_24
REMARK   15  A    between atoms: C_25  and  C_26
REMARK                            x       y       z     vdW  Elec       q    Type
REMARK                         _______ _______ _______ _____ _____    ______ ____
ROOT
ATOM      1  C   UNL     1       5.015   4.343  19.206  0.00  0.00    +0.000 C 
ENDROOT
BRANCH   1   4
ATOM      2  C   UNL     1       6.535   4.608  16.011  0.00  0.00    +0.000 A 
ATOM      3  N   UNL     1       5.561   4.168  16.784  0.00  0.00    +0.000 NA
ATOM      4  C   UNL     1       5.891   4.633  18.046  0.00  0.00    +0.000 A 
ATOM      5  C   UNL     1       7.074   5.341  17.971  0.00  0.00    +0.000 A 
ATOM      6  C   UNL     1       7.932   6.099  18.897  0.00  0.00    +0.000 C 
ATOM      7  O   UNL     1       7.493   5.320  16.674  0.00  0.00    +0.000 OA
BRANCH   2  12
ATOM      8  C   UNL     1       6.085   3.417  12.478  0.00  0.00    +0.000 A 
ATOM      9  C   UNL     1       7.012   4.214  11.803  0.00  0.00    +0.000 A 
ATOM     10  C   UNL     1       7.785   5.143  12.497  0.00  0.00    +0.000 A 
ATOM     11  C   UNL     1       7.634   5.276  13.875  0.00  0.00    +0.000 A 
ATOM     12  C   UNL     1       6.713   4.480  14.571  0.00  0.00    +0.000 A 
ATOM     13  C   UNL     1       5.939   3.551  13.859  0.00  0.00    +0.000 A 
BRANCH   8  15
ATOM     14  C   UNL     1       6.088   1.383  11.256  0.00  0.00    +0.000 C 
ATOM     15  O   UNL     1       5.389   2.547  11.682  0.00  0.00    +0.000 OA
ENDBRANCH   8  15
ENDBRANCH   2  12
ENDBRANCH   1   4
BRANCH   1  16
ATOM     16  S   UNL     1       3.819   3.010  18.889  0.00  0.00    +0.000 S 
ATOM     17  O   UNL     1       3.342   2.411  20.262  0.00  0.00    +0.000 OA
BRANCH  16  18
ATOM     18  C   UNL     1       2.467   4.002  18.181  0.00  0.00    +0.000 C 
BRANCH  18  19
ATOM     19  C   UNL     1       2.283   5.289  18.947  0.00  0.00    +0.000 C 
ATOM     20  O   UNL     1       1.867   5.308  20.107  0.00  0.00    +0.000 OA
ATOM     21  N   UNL     1       2.610   6.436  18.258  0.00  0.00    +0.000 N 
ATOM     22  H   UNL     1       3.049   6.380  17.346  0.00  0.00    +0.000 HD
BRANCH  21  23
ATOM     23  C   UNL     1       2.319   7.741  18.823  0.00  0.00    +0.000 C 
BRANCH  23  24
ATOM     24  C   UNL     1       2.048   8.785  17.745  0.00  0.00    +0.000 C 
BRANCH  24  25
ATOM     25  C   UNL     1       0.905   9.707  18.156  0.00  0.00    +0.000 C 
BRANCH  25  26
ATOM     26  O   UNL     1       1.442  10.907  18.708  0.00  0.00    +0.000 OA
BRANCH  26  27
ATOM     27  C   UNL     1       0.494  11.718  19.406  0.00  0.00    +0.000 C 
ATOM     28  C   UNL     1      -0.696  10.894  19.892  0.00  0.00    +0.000 C 
ATOM     29  C   UNL     1       1.219  12.329  20.603  0.00  0.00    +0.000 C 
ENDBRANCH  26  27
ENDBRANCH  25  26
ENDBRANCH  24  25
ENDBRANCH  23  24
ENDBRANCH  21  23
ENDBRANCH  18  19
ENDBRANCH  16  18
ENDBRANCH   1  16
TORSDOF 11
ENDMDL
MODEL 4
REMARK VINA RESULT:      -7.1      2.416      4.225
REMARK  Name = 
REMARK  15 active torsions:
REMARK  status: ('A' for Active; 'I' for Inactive)
REMARK    1  A    between atoms: C_1  and  O_2
REMARK    2  A    between atoms: O_2  and  C_3
REMARK    3  A    between atoms: C_7  and  C_8
REMARK    4  A    between atoms: C_10  and  C_11
REMARK    5  A    between atoms: C_11  and  S_12
REMARK    6  A    between atoms: S_12  and  C_14
REMARK    7  A    between atoms: C_14  and  C_15
REMARK    8  A    between atoms: N_17  and  C_18
REMARK    9  A    between atoms: C_18  and  C_19
REMARK   10  A    between atoms: C_19  and  C_20
REMARK   11  A    between atoms: C_20  and  O_21
REMARK   12  A    between atoms: O_21  and  C_22
REMARK   13  A    between atoms: C_22  and  C_23
REMARK   14  A    between atoms: C_22  and  C_24
REMARK   15  A    between atoms: C_25  and  C_26
REMARK                            x       y       z     vdW  Elec       q    Type
REMARK                         _______ _______ _______ _____ _____    ______ ____
ROOT
ATOM      1  C   UNL     1       3.043   5.502  20.029  0.00  0.00    +0.000 C 
ENDROOT
BRANCH   1   4
ATOM      2  C   UNL     1       1.260   8.511  20.630  0.00  0.00    +0.000 A 
ATOM      3  N   UNL     1       1.705   7.339  21.043  0.00  0.00    +0.000 NA
ATOM      4  C   UNL     1       2.382   6.827  19.950  0.00  0.00    +0.000 A 
ATOM      5  C   UNL     1       2.306   7.730  18.908  0.00  0.00    +0.000 A 
ATOM      6  C   UNL     1       2.816   7.824  17.530  0.00  0.00    +0.000 C 
ATOM      7  O   UNL     1       1.583   8.803  19.336  0.00  0.00    +0.000 OA
BRANCH   2  12
ATOM      8  C   UNL     1      -0.168  11.856  21.561  0.00  0.00    +0.000 A 
ATOM      9  C   UNL     1      -0.900  11.530  22.704  0.00  0.00    +0.000 A 
ATOM     10  C   UNL     1      -0.932  10.218  23.174  0.00  0.00    +0.000 A 
ATOM     11  C   UNL     1      -0.226   9.225  22.500  0.00  0.00    +0.000 A 
ATOM     12  C   UNL     1       0.520   9.535  21.354  0.00  0.00    +0.000 A 
ATOM     13  C   UNL     1       0.542  10.859  20.891  0.00  0.00    +0.000 A 
BRANCH   8  15
ATOM     14  C   UNL     1      -0.586  14.096  22.228  0.00  0.00    +0.000 C 
ATOM     15  O   UNL     1      -0.219  13.178  21.204  0.00  0.00    +0.000 OA
ENDBRANCH   8  15
ENDBRANCH   2  12
ENDBRANCH   1   4
BRANCH   1  16
ATOM     16  S   UNL     1       1.899   4.111  19.779  0.00  0.00    +0.000 S 
ATOM     17  O   UNL     1       0.486   4.501  20.349  0.00  0.00    +0.000 OA
BRANCH  16  18
ATOM     18  C   UNL     1       1.822   4.128  17.961  0.00  0.00    +0.000 C 
BRANCH  18  19
ATOM     19  C   UNL     1       2.995   3.392  17.364  0.00  0.00    +0.000 C 
ATOM     20  O   UNL     1       3.051   2.160  17.334  0.00  0.00    +0.000 OA
ATOM     21  N   UNL     1       3.997   4.190  16.858  0.00  0.00    +0.000 N 
ATOM     22  H   UNL     1       3.874   5.195  16.801  0.00  0.00    +0.000 HD
BRANCH  21  23
ATOM     23  C   UNL     1       5.248   3.606  16.411  0.00  0.00    +0.000 C 
BRANCH  23  24
ATOM     24  C   UNL     1       5.873   4.396  15.266  0.00  0.00    +0.000 C 
BRANCH  24  25
ATOM     25  C   UNL     1       5.969   5.877  15.616  0.00  0.00    +0.000 C 
BRANCH  25  26
ATOM     26  O   UNL     1       7.205   6.127  16.280  0.00  0.00    +0.000 OA
BRANCH  26  27
ATOM     27  C   UNL     1       7.078   6.687  17.589  0.00  0.00    +0.000 C 
ATOM     28  C   UNL     1       7.706   5.782  18.647  0.00  0.00    +0.000 C 
ATOM     29  C   UNL     1       7.792   8.035  17.575  0.00  0.00    +0.000 C 
ENDBRANCH  26  27
ENDBRANCH  25  26
ENDBRANCH  24  25
ENDBRANCH  23  24
ENDBRANCH  21  23
ENDBRANCH  18  19
ENDBRANCH  16  18
ENDBRANCH   1  16
TORSDOF 11
ENDMDL
MODEL 5
REMARK VINA RESULT:      -7.0      1.634      8.776
REMARK  Name = 
REMARK  15 active torsions:
REMARK  status: ('A' for Active; 'I' for Inactive)
REMARK    1  A    between atoms: C_1  and  O_2
REMARK    2  A    between atoms: O_2  and  C_3
REMARK    3  A    between atoms: C_7  and  C_8
REMARK    4  A    between atoms: C_10  and  C_11
REMARK    5  A    between atoms: C_11  and  S_12
REMARK    6  A    between atoms: S_12  and  C_14
REMARK    7  A    between atoms: C_14  and  C_15
REMARK    8  A    between atoms: N_17  and  C_18
REMARK    9  A    between atoms: C_18  and  C_19
REMARK   10  A    between atoms: C_19  and  C_20
REMARK   11  A    between atoms: C_20  and  O_21
REMARK   12  A    between atoms: O_21  and  C_22
REMARK   13  A    between atoms: C_22  and  C_23
REMARK   14  A    between atoms: C_22  and  C_24
REMARK   15  A    between atoms: C_25  and  C_26
REMARK                            x       y       z     vdW  Elec       q    Type
REMARK                         _______ _______ _______ _____ _____    ______ ____
ROOT
ATOM      1  C   UNL     1       4.753   4.384  19.192  0.00  0.00    +0.000 C 
ENDROOT
BRANCH   1   4
ATOM      2  C   UNL     1       5.580   4.850  15.772  0.00  0.00    +0.000 A 
ATOM      3  N   UNL     1       5.609   4.118  16.870  0.00  0.00    +0.000 NA
ATOM      4  C   UNL     1       4.938   4.884  17.808  0.00  0.00    +0.000 A 
ATOM      5  C   UNL     1       4.534   6.066  17.220  0.00  0.00    +0.000 A 
ATOM      6  C   UNL     1       3.775   7.261  17.625  0.00  0.00    +0.000 C 
ATOM      7  O   UNL     1       4.949   6.051  15.923  0.00  0.00    +0.000 OA
BRANCH   2  12
ATOM      8  C   UNL     1       5.803   3.401  12.315  0.00  0.00    +0.000 A 
ATOM      9  C   UNL     1       6.999   3.963  11.863  0.00  0.00    +0.000 A 
ATOM     10  C   UNL     1       7.735   4.816  12.683  0.00  0.00    +0.000 A 
ATOM     11  C   UNL     1       7.277   5.110  13.964  0.00  0.00    +0.000 A 
ATOM     12  C   UNL     1       6.081   4.550  14.438  0.00  0.00    +0.000 A 
ATOM     13  C   UNL     1       5.349   3.694  13.602  0.00  0.00    +0.000 A 
BRANCH   8  15
ATOM     14  C   UNL     1       3.916   3.027  10.925  0.00  0.00    +0.000 C 
ATOM     15  O   UNL     1       5.176   2.582  11.414  0.00  0.00    +0.000 OA
ENDBRANCH   8  15
ENDBRANCH   2  12
ENDBRANCH   1   4
BRANCH   1  16
ATOM     16  S   UNL     1       4.331   2.617  19.268  0.00  0.00    +0.000 S 
ATOM     17  O   UNL     1       3.952   2.243  20.747  0.00  0.00    +0.000 OA
BRANCH  16  18
ATOM     18  C   UNL     1       2.813   2.643  18.264  0.00  0.00    +0.000 C 
BRANCH  18  19
ATOM     19  C   UNL     1       1.927   3.800  18.654  0.00  0.00    +0.000 C 
ATOM     20  O   UNL     1       1.411   4.543  17.816  0.00  0.00    +0.000 OA
ATOM     21  N   UNL     1       1.739   3.969  20.008  0.00  0.00    +0.000 N 
ATOM     22  H   UNL     1       2.089   3.281  20.664  0.00  0.00    +0.000 HD
BRANCH  21  23
ATOM     23  C   UNL     1       1.048   5.141  20.514  0.00  0.00    +0.000 C 
BRANCH  23  24
ATOM     24  C   UNL     1       2.005   6.295  20.792  0.00  0.00    +0.000 C 
BRANCH  24  25
ATOM     25  C   UNL     1       1.302   7.637  20.625  0.00  0.00    +0.000 C 
BRANCH  25  26
ATOM     26  O   UNL     1       1.417   8.385  21.833  0.00  0.00    +0.000 OA
BRANCH  26  27
ATOM     27  C   UNL     1       0.680   9.610  21.849  0.00  0.00    +0.000 C 
ATOM     28  C   UNL     1      -0.265   9.709  20.653  0.00  0.00    +0.000 C 
ATOM     29  C   UNL     1      -0.125   9.635  23.145  0.00  0.00    +0.000 C 
ENDBRANCH  26  27
ENDBRANCH  25  26
ENDBRANCH  24  25
ENDBRANCH  23  24
ENDBRANCH  21  23
ENDBRANCH  18  19
ENDBRANCH  16  18
ENDBRANCH   1  16
TORSDOF 11
ENDMDL
MODEL 6
REMARK VINA RESULT:      -7.0      1.982      8.231
REMARK  Name = 
REMARK  15 active torsions:
REMARK  status: ('A' for Active; 'I' for Inactive)
REMARK    1  A    between atoms: C_1  and  O_2
REMARK    2  A    between atoms: O_2  and  C_3
REMARK    3  A    between atoms: C_7  and  C_8
REMARK    4  A    between atoms: C_10  and  C_11
REMARK    5  A    between atoms: C_11  and  S_12
REMARK    6  A    between atoms: S_12  and  C_14
REMARK    7  A    between atoms: C_14  and  C_15
REMARK    8  A    between atoms: N_17  and  C_18
REMARK    9  A    between atoms: C_18  and  C_19
REMARK   10  A    between atoms: C_19  and  C_20
REMARK   11  A    between atoms: C_20  and  O_21
REMARK   12  A    between atoms: O_21  and  C_22
REMARK   13  A    between atoms: C_22  and  C_23
REMARK   14  A    between atoms: C_22  and  C_24
REMARK   15  A    between atoms: C_25  and  C_26
REMARK                            x       y       z     vdW  Elec       q    Type
REMARK                         _______ _______ _______ _____ _____    ______ ____
ROOT
ATOM      1  C   UNL     1       4.967   4.186  19.326  0.00  0.00    +0.000 C 
ENDROOT
BRANCH   1   4
ATOM      2  C   UNL     1       6.515   4.515  16.150  0.00  0.00    +0.000 A 
ATOM      3  N   UNL     1       5.517   4.089  16.901  0.00  0.00    +0.000 NA
ATOM      4  C   UNL     1       5.863   4.483  18.182  0.00  0.00    +0.000 A 
ATOM      5  C   UNL     1       7.079   5.136  18.142  0.00  0.00    +0.000 A 
ATOM      6  C   UNL     1       7.967   5.811  19.103  0.00  0.00    +0.000 C 
ATOM      7  O   UNL     1       7.503   5.151  16.847  0.00  0.00    +0.000 OA
BRANCH   2  12
ATOM      8  C   UNL     1       6.053   3.474  12.572  0.00  0.00    +0.000 A 
ATOM      9  C   UNL     1       6.996   4.280  11.931  0.00  0.00    +0.000 A 
ATOM     10  C   UNL     1       7.786   5.165  12.663  0.00  0.00    +0.000 A 
ATOM     11  C   UNL     1       7.633   5.246  14.045  0.00  0.00    +0.000 A 
ATOM     12  C   UNL     1       6.695   4.441  14.707  0.00  0.00    +0.000 A 
ATOM     13  C   UNL     1       5.906   3.555  13.957  0.00  0.00    +0.000 A 
BRANCH   8  15
ATOM     14  C   UNL     1       4.117   3.166  11.234  0.00  0.00    +0.000 C 
ATOM     15  O   UNL     1       5.342   2.649  11.741  0.00  0.00    +0.000 OA
ENDBRANCH   8  15
ENDBRANCH   2  12
ENDBRANCH   1   4
BRANCH   1  16
ATOM     16  S   UNL     1       4.596   2.415  19.508  0.00  0.00    +0.000 S 
ATOM     17  O   UNL     1       4.733   2.016  21.023  0.00  0.00    +0.000 OA
BRANCH  16  18
ATOM     18  C   UNL     1       2.831   2.446  19.067  0.00  0.00    +0.000 C 
BRANCH  18  19
ATOM     19  C   UNL     1       2.278   3.847  19.151  0.00  0.00    +0.000 C 
ATOM     20  O   UNL     1       1.783   4.297  20.187  0.00  0.00    +0.000 OA
ATOM     21  N   UNL     1       2.363   4.585  17.991  0.00  0.00    +0.000 N 
ATOM     22  H   UNL     1       2.870   4.225  17.190  0.00  0.00    +0.000 HD
BRANCH  21  23
ATOM     23  C   UNL     1       1.717   5.881  17.894  0.00  0.00    +0.000 C 
BRANCH  23  24
ATOM     24  C   UNL     1       2.707   7.028  18.065  0.00  0.00    +0.000 C 
BRANCH  24  25
ATOM     25  C   UNL     1       2.115   8.132  18.935  0.00  0.00    +0.000 C 
BRANCH  25  26
ATOM     26  O   UNL     1       1.875   9.287  18.136  0.00  0.00    +0.000 OA
BRANCH  26  27
ATOM     27  C   UNL     1       0.870  10.167  18.645  0.00  0.00    +0.000 C 
ATOM     28  C   UNL     1      -0.469   9.952  17.943  0.00  0.00    +0.000 C 
ATOM     29  C   UNL     1       0.723   9.870  20.135  0.00  0.00    +0.000 C 
ENDBRANCH  26  27
ENDBRANCH  25  26
ENDBRANCH  24  25
ENDBRANCH  23  24
ENDBRANCH  21  23
ENDBRANCH  18  19
ENDBRANCH  16  18
ENDBRANCH   1  16
TORSDOF 11
ENDMDL
MODEL 7
REMARK VINA RESULT:      -6.9      1.742      8.870
REMARK  Name = 
REMARK  15 active torsions:
REMARK  status: ('A' for Active; 'I' for Inactive)
REMARK    1  A    between atoms: C_1  and  O_2
REMARK    2  A    between atoms: O_2  and  C_3
REMARK    3  A    between atoms: C_7  and  C_8
REMARK    4  A    between atoms: C_10  and  C_11
REMARK    5  A    between atoms: C_11  and  S_12
REMARK    6  A    between atoms: S_12  and  C_14
REMARK    7  A    between atoms: C_14  and  C_15
REMARK    8  A    between atoms: N_17  and  C_18
REMARK    9  A    between atoms: C_18  and  C_19
REMARK   10  A    between atoms: C_19  and  C_20
REMARK   11  A    between atoms: C_20  and  O_21
REMARK   12  A    between atoms: O_21  and  C_22
REMARK   13  A    between atoms: C_22  and  C_23
REMARK   14  A    between atoms: C_22  and  C_24
REMARK   15  A    between atoms: C_25  and  C_26
REMARK                            x       y       z     vdW  Elec       q    Type
REMARK                         _______ _______ _______ _____ _____    ______ ____
ROOT
ATOM      1  C   UNL     1       4.821   4.234  19.248  0.00  0.00    +0.000 C 
ENDROOT
BRANCH   1   4
ATOM      2  C   UNL     1       6.454   4.513  16.109  0.00  0.00    +0.000 A 
ATOM      3  N   UNL     1       5.424   4.122  16.836  0.00  0.00    +0.000 NA
ATOM      4  C   UNL     1       5.754   4.501  18.126  0.00  0.00    +0.000 A 
ATOM      5  C   UNL     1       6.993   5.110  18.115  0.00  0.00    +0.000 A 
ATOM      6  C   UNL     1       7.882   5.752  19.098  0.00  0.00    +0.000 C 
ATOM      7  O   UNL     1       7.446   5.112  16.831  0.00  0.00    +0.000 OA
BRANCH   2  12
ATOM      8  C   UNL     1       6.052   3.478  12.522  0.00  0.00    +0.000 A 
ATOM      9  C   UNL     1       7.024   4.267  11.902  0.00  0.00    +0.000 A 
ATOM     10  C   UNL     1       7.812   5.139  12.651  0.00  0.00    +0.000 A 
ATOM     11  C   UNL     1       7.630   5.223  14.029  0.00  0.00    +0.000 A 
ATOM     12  C   UNL     1       6.664   4.435  14.670  0.00  0.00    +0.000 A 
ATOM     13  C   UNL     1       5.876   3.563  13.904  0.00  0.00    +0.000 A 
BRANCH   8  15
ATOM     14  C   UNL     1       5.964   1.433  11.321  0.00  0.00    +0.000 C 
ATOM     15  O   UNL     1       5.346   2.665  11.675  0.00  0.00    +0.000 OA
ENDBRANCH   8  15
ENDBRANCH   2  12
ENDBRANCH   1   4
BRANCH   1  16
ATOM     16  S   UNL     1       3.173   3.693  18.701  0.00  0.00    +0.000 S 
ATOM     17  O   UNL     1       2.513   2.832  19.838  0.00  0.00    +0.000 OA
BRANCH  16  18
ATOM     18  C   UNL     1       2.348   5.313  18.638  0.00  0.00    +0.000 C 
BRANCH  18  19
ATOM     19  C   UNL     1       2.158   5.877  20.025  0.00  0.00    +0.000 C 
ATOM     20  O   UNL     1       2.059   5.155  21.019  0.00  0.00    +0.000 OA
ATOM     21  N   UNL     1       2.100   7.251  20.100  0.00  0.00    +0.000 N 
ATOM     22  H   UNL     1       2.291   7.818  19.282  0.00  0.00    +0.000 HD
BRANCH  21  23
ATOM     23  C   UNL     1       1.754   7.906  21.348  0.00  0.00    +0.000 C 
BRANCH  23  24
ATOM     24  C   UNL     1       0.322   8.429  21.343  0.00  0.00    +0.000 C 
BRANCH  24  25
ATOM     25  C   UNL     1       0.252   9.817  20.714  0.00  0.00    +0.000 C 
BRANCH  25  26
ATOM     26  O   UNL     1      -0.783   9.840  19.734  0.00  0.00    +0.000 OA
BRANCH  26  27
ATOM     27  C   UNL     1      -0.400  10.397  18.475  0.00  0.00    +0.000 C 
ATOM     28  C   UNL     1       0.914   9.799  17.976  0.00  0.00    +0.000 C 
ATOM     29  C   UNL     1      -1.516  10.081  17.483  0.00  0.00    +0.000 C 
ENDBRANCH  26  27
ENDBRANCH  25  26
ENDBRANCH  24  25
ENDBRANCH  23  24
ENDBRANCH  21  23
ENDBRANCH  18  19
ENDBRANCH  16  18
ENDBRANCH   1  16
TORSDOF 11
ENDMDL
MODEL 8
REMARK VINA RESULT:      -6.9      1.975      8.611
REMARK  Name = 
REMARK  15 active torsions:
REMARK  status: ('A' for Active; 'I' for Inactive)
REMARK    1  A    between atoms: C_1  and  O_2
REMARK    2  A    between atoms: O_2  and  C_3
REMARK    3  A    between atoms: C_7  and  C_8
REMARK    4  A    between atoms: C_10  and  C_11
REMARK    5  A    between atoms: C_11  and  S_12
REMARK    6  A    between atoms: S_12  and  C_14
REMARK    7  A    between atoms: C_14  and  C_15
REMARK    8  A    between atoms: N_17  and  C_18
REMARK    9  A    between atoms: C_18  and  C_19
REMARK   10  A    between atoms: C_19  and  C_20
REMARK   11  A    between atoms: C_20  and  O_21
REMARK   12  A    between atoms: O_21  and  C_22
REMARK   13  A    between atoms: C_22  and  C_23
REMARK   14  A    between atoms: C_22  and  C_24
REMARK   15  A    between atoms: C_25  and  C_26
REMARK                            x       y       z     vdW  Elec       q    Type
REMARK                         _______ _______ _______ _____ _____    ______ ____
ROOT
ATOM      1  C   UNL     1       5.641   5.150  19.333  0.00  0.00    +0.000 C 
ENDROOT
BRANCH   1   4
ATOM      2  C   UNL     1       6.786   5.166  15.974  0.00  0.00    +0.000 A 
ATOM      3  N   UNL     1       6.013   4.667  16.920  0.00  0.00    +0.000 NA
ATOM      4  C   UNL     1       6.324   5.413  18.043  0.00  0.00    +0.000 A 
ATOM      5  C   UNL     1       7.292   6.341  17.715  0.00  0.00    +0.000 A 
ATOM      6  C   UNL     1       8.016   7.426  18.400  0.00  0.00    +0.000 C 
ATOM      7  O   UNL     1       7.596   6.181  16.396  0.00  0.00    +0.000 OA
BRANCH   2  12
ATOM      8  C   UNL     1       6.075   3.502  12.684  0.00  0.00    +0.000 A 
ATOM      9  C   UNL     1       6.990   4.148  11.850  0.00  0.00    +0.000 A 
ATOM     10  C   UNL     1       7.840   5.129  12.357  0.00  0.00    +0.000 A 
ATOM     11  C   UNL     1       7.779   5.466  13.707  0.00  0.00    +0.000 A 
ATOM     12  C   UNL     1       6.870   4.823  14.561  0.00  0.00    +0.000 A 
ATOM     13  C   UNL     1       6.019   3.839  14.037  0.00  0.00    +0.000 A 
BRANCH   8  15
ATOM     14  C   UNL     1       4.176   3.046  11.335  0.00  0.00    +0.000 C 
ATOM     15  O   UNL     1       5.298   2.559  12.063  0.00  0.00    +0.000 OA
ENDBRANCH   8  15
ENDBRANCH   2  12
ENDBRANCH   1   4
BRANCH   1  16
ATOM     16  S   UNL     1       4.404   3.820  19.233  0.00  0.00    +0.000 S 
ATOM     17  O   UNL     1       4.994   2.521  19.892  0.00  0.00    +0.000 OA
BRANCH  16  18
ATOM     18  C   UNL     1       3.143   4.520  20.342  0.00  0.00    +0.000 C 
BRANCH  18  19
ATOM     19  C   UNL     1       2.521   5.756  19.741  0.00  0.00    +0.000 C 
ATOM     20  O   UNL     1       1.902   6.577  20.422  0.00  0.00    +0.000 OA
ATOM     21  N   UNL     1       2.692   5.901  18.382  0.00  0.00    +0.000 N 
ATOM     22  H   UNL     1       3.295   5.268  17.870  0.00  0.00    +0.000 HD
BRANCH  21  23
ATOM     23  C   UNL     1       2.002   6.956  17.662  0.00  0.00    +0.000 C 
BRANCH  23  24
ATOM     24  C   UNL     1       2.448   8.343  18.111  0.00  0.00    +0.000 C 
BRANCH  24  25
ATOM     25  C   UNL     1       1.380   9.386  17.800  0.00  0.00    +0.000 C 
BRANCH  25  26
ATOM     26  O   UNL     1       1.065  10.108  18.988  0.00  0.00    +0.000 OA
BRANCH  26  27
ATOM     27  C   UNL     1      -0.143  10.870  18.920  0.00  0.00    +0.000 C 
ATOM     28  C   UNL     1      -1.157  10.226  17.977  0.00  0.00    +0.000 C 
ATOM     29  C   UNL     1      -0.719  10.928  20.332  0.00  0.00    +0.000 C 
ENDBRANCH  26  27
ENDBRANCH  25  26
ENDBRANCH  24  25
ENDBRANCH  23  24
ENDBRANCH  21  23
ENDBRANCH  18  19
ENDBRANCH  16  18
ENDBRANCH   1  16
TORSDOF 11
ENDMDL
MODEL 9
REMARK VINA RESULT:      -6.9      1.241      1.372
REMARK  Name = 
REMARK  15 active torsions:
REMARK  status: ('A' for Active; 'I' for Inactive)
REMARK    1  A    between atoms: C_1  and  O_2
REMARK    2  A    between atoms: O_2  and  C_3
REMARK    3  A    between atoms: C_7  and  C_8
REMARK    4  A    between atoms: C_10  and  C_11
REMARK    5  A    between atoms: C_11  and  S_12
REMARK    6  A    between atoms: S_12  and  C_14
REMARK    7  A    between atoms: C_14  and  C_15
REMARK    8  A    between atoms: N_17  and  C_18
REMARK    9  A    between atoms: C_18  and  C_19
REMARK   10  A    between atoms: C_19  and  C_20
REMARK   11  A    between atoms: C_20  and  O_21
REMARK   12  A    between atoms: O_21  and  C_22
REMARK   13  A    between atoms: C_22  and  C_23
REMARK   14  A    between atoms: C_22  and  C_24
REMARK   15  A    between atoms: C_25  and  C_26
REMARK                            x       y       z     vdW  Elec       q    Type
REMARK                         _______ _______ _______ _____ _____    ______ ____
ROOT
ATOM      1  C   UNL     1       4.298   3.682  19.774  0.00  0.00    +0.000 C 
ENDROOT
BRANCH   1   4
ATOM      2  C   UNL     1       2.149   6.478  20.173  0.00  0.00    +0.000 A 
ATOM      3  N   UNL     1       3.321   5.970  19.842  0.00  0.00    +0.000 NA
ATOM      4  C   UNL     1       3.174   4.609  20.049  0.00  0.00    +0.000 A 
ATOM      5  C   UNL     1       1.896   4.358  20.508  0.00  0.00    +0.000 A 
ATOM      6  C   UNL     1       1.101   3.175  20.876  0.00  0.00    +0.000 C 
ATOM      7  O   UNL     1       1.241   5.550  20.596  0.00  0.00    +0.000 OA
BRANCH   2  12
ATOM      8  C   UNL     1       0.864   9.831  21.271  0.00  0.00    +0.000 A 
ATOM      9  C   UNL     1       0.788  10.505  20.050  0.00  0.00    +0.000 A 
ATOM     10  C   UNL     1       1.156   9.869  18.866  0.00  0.00    +0.000 A 
ATOM     11  C   UNL     1       1.601   8.550  18.899  0.00  0.00    +0.000 A 
ATOM     12  C   UNL     1       1.680   7.855  20.115  0.00  0.00    +0.000 A 
ATOM     13  C   UNL     1       1.308   8.508  21.300  0.00  0.00    +0.000 A 
BRANCH   8  15
ATOM     14  C   UNL     1      -0.727  10.159  23.000  0.00  0.00    +0.000 C 
ATOM     15  O   UNL     1       0.475  10.567  22.359  0.00  0.00    +0.000 OA
ENDBRANCH   8  15
ENDBRANCH   2  12
ENDBRANCH   1   4
BRANCH   1  16
ATOM     16  S   UNL     1       4.940   3.813  18.078  0.00  0.00    +0.000 S 
ATOM     17  O   UNL     1       3.882   4.558  17.185  0.00  0.00    +0.000 OA
BRANCH  16  18
ATOM     18  C   UNL     1       6.339   4.935  18.389  0.00  0.00    +0.000 C 
BRANCH  18  19
ATOM     19  C   UNL     1       6.867   5.511  17.099  0.00  0.00    +0.000 C 
ATOM     20  O   UNL     1       7.119   6.711  16.970  0.00  0.00    +0.000 OA
ATOM     21  N   UNL     1       7.045   4.603  16.078  0.00  0.00    +0.000 N 
ATOM     22  H   UNL     1       6.931   3.611  16.247  0.00  0.00    +0.000 HD
BRANCH  21  23
ATOM     23  C   UNL     1       7.387   5.057  14.742  0.00  0.00    +0.000 C 
BRANCH  23  24
ATOM     24  C   UNL     1       6.500   4.422  13.677  0.00  0.00    +0.000 C 
BRANCH  24  25
ATOM     25  C   UNL     1       7.317   4.035  12.448  0.00  0.00    +0.000 C 
BRANCH  25  26
ATOM     26  O   UNL     1       6.435   3.659  11.394  0.00  0.00    +0.000 OA
BRANCH  26  27
ATOM     27  C   UNL     1       5.422   2.723  11.768  0.00  0.00    +0.000 C 
ATOM     28  C   UNL     1       4.062   3.112  11.192  0.00  0.00    +0.000 C 
ATOM     29  C   UNL     1       5.842   1.361  11.221  0.00  0.00    +0.000 C 
ENDBRANCH  26  27
ENDBRANCH  25  26
ENDBRANCH  24  25
ENDBRANCH  23  24
ENDBRANCH  21  23
ENDBRANCH  18  19
ENDBRANCH  16  18
ENDBRANCH   1  16
TORSDOF 11
ENDMDL
