MODEL 1
REMARK VINA RESULT:      -7.8      0.000      0.000
REMARK  Name = 
REMARK  4 active torsions:
REMARK  status: ('A' for Active; 'I' for Inactive)
REMARK    1  A    between atoms: C_2  and  C_3
REMARK    2  A    between atoms: C_11  and  C_12
REMARK    3  A    between atoms: N_15  and  C_16
REMARK    4  A    between atoms: C_23  and  C_24
REMARK                            x       y       z     vdW  Elec       q    Type
REMARK                         _______ _______ _______ _____ _____    ______ ____
ROOT
ATOM      1  C   UNL     1       1.033  10.194  19.820  0.00  0.00    +0.000 A 
ATOM      2  C   UNL     1       1.495  10.436  18.533  0.00  0.00    +0.000 A 
ATOM      3  C   UNL     1       2.114   9.395  17.875  0.00  0.00    +0.000 A 
ATOM      4  N   UNL     1       2.296   8.175  18.423  0.00  0.00    +0.000 NA
ATOM      5  C   UNL     1       1.832   7.935  19.673  0.00  0.00    +0.000 A 
ATOM      6  N   UNL     1       2.019   6.669  20.270  0.00  0.00    +0.000 N 
ATOM      7  C   UNL     1       2.995   5.733  19.865  0.00  0.00    +0.000 A 
ATOM      8  C   UNL     1       4.266   6.186  19.552  0.00  0.00    +0.000 A 
ATOM      9  C   UNL     1       5.248   5.330  19.064  0.00  0.00    +0.000 A 
ATOM     10  C   UNL     1       4.911   3.974  19.018  0.00  0.00    +0.000 A 
ATOM     11  C   UNL     1       3.636   3.542  19.415  0.00  0.00    +0.000 A 
ATOM     12  N   UNL     1       2.681   4.421  19.832  0.00  0.00    +0.000 NA
ATOM     13  C   UNL     1       1.197   8.931  20.400  0.00  0.00    +0.000 A 
ATOM     14  H   UNL     1       1.145   6.184  20.438  0.00  0.00    +0.000 HD
ENDROOT
BRANCH   9  15
ATOM     15  C   UNL     1       6.622   5.833  18.640  0.00  0.00    +0.000 C 
ATOM     16  C   UNL     1       6.632   7.060  17.709  0.00  0.00    +0.000 C 
ATOM     17  C   UNL     1       6.209   6.721  16.276  0.00  0.00    +0.000 C 
ATOM     18  N   UNL     1       6.993   5.637  15.661  0.00  0.00    +0.000 NA
ATOM     19  C   UNL     1       7.055   4.446  16.533  0.00  0.00    +0.000 C 
ATOM     20  C   UNL     1       7.494   4.759  17.970  0.00  0.00    +0.000 C 
BRANCH  18  21
ATOM     21  C   UNL     1       6.318   5.259  14.391  0.00  0.00    +0.000 C 
ATOM     22  C   UNL     1       7.317   4.684  13.366  0.00  0.00    +0.000 C 
ATOM     23  O   UNL     1       6.423   3.560  13.114  0.00  0.00    +0.000 OA
ATOM     24  C   UNL     1       5.802   3.810  14.415  0.00  0.00    +0.000 C 
ENDBRANCH  18  21
ENDBRANCH   9  15
BRANCH  11  25
ATOM     25  C   UNL     1       3.269   2.074  19.336  0.00  0.00    +0.000 C 
ATOM     26  C   UNL     1       2.282   1.550  18.316  0.00  0.00    +0.000 C 
ATOM     27  C   UNL     1       3.742   1.258  18.155  0.00  0.00    +0.000 C 
ENDBRANCH  11  25
BRANCH   1  29
ATOM     28  N   UNL     1      -0.138  12.078  21.159  0.00  0.00    +0.000 NA
ATOM     29  C   UNL     1       0.387  11.242  20.555  0.00  0.00    +0.000 C 
ENDBRANCH   1  29
TORSDOF 4
ENDMDL
MODEL 2
REMARK VINA RESULT:      -7.4      0.794      1.007
REMARK  Name = 
REMARK  4 active torsions:
REMARK  status: ('A' for Active; 'I' for Inactive)
REMARK    1  A    between atoms: C_2  and  C_3
REMARK    2  A    between atoms: C_11  and  C_12
REMARK    3  A    between atoms: N_15  and  C_16
REMARK    4  A    between atoms: C_23  and  C_24
REMARK                            x       y       z     vdW  Elec       q    Type
REMARK                         _______ _______ _______ _____ _____    ______ ____
ROOT
ATOM      1  C   UNL     1       0.654  10.029  20.920  0.00  0.00    +0.000 A 
ATOM      2  C   UNL     1       0.849  10.442  19.608  0.00  0.00    +0.000 A 
ATOM      3  C   UNL     1       1.404   9.535  18.732  0.00  0.00    +0.000 A 
ATOM      4  N   UNL     1       1.767   8.286  19.091  0.00  0.00    +0.000 NA
ATOM      5  C   UNL     1       1.564   7.877  20.366  0.00  0.00    +0.000 A 
ATOM      6  N   UNL     1       1.945   6.578  20.766  0.00  0.00    +0.000 N 
ATOM      7  C   UNL     1       2.889   5.779  20.086  0.00  0.00    +0.000 A 
ATOM      8  C   UNL     1       4.046   6.373  19.606  0.00  0.00    +0.000 A 
ATOM      9  C   UNL     1       4.975   5.663  18.853  0.00  0.00    +0.000 A 
ATOM     10  C   UNL     1       4.729   4.295  18.708  0.00  0.00    +0.000 A 
ATOM     11  C   UNL     1       3.584   3.712  19.273  0.00  0.00    +0.000 A 
ATOM     12  N   UNL     1       2.665   4.455  19.954  0.00  0.00    +0.000 NA
ATOM     13  C   UNL     1       1.010   8.732  21.308  0.00  0.00    +0.000 A 
ATOM     14  H   UNL     1       1.153   6.002  21.029  0.00  0.00    +0.000 HD
ENDROOT
BRANCH   9  15
ATOM     15  C   UNL     1       6.208   6.327  18.253  0.00  0.00    +0.000 C 
ATOM     16  C   UNL     1       6.017   6.974  16.868  0.00  0.00    +0.000 C 
ATOM     17  C   UNL     1       5.907   5.942  15.741  0.00  0.00    +0.000 C 
ATOM     18  N   UNL     1       7.034   4.995  15.685  0.00  0.00    +0.000 NA
ATOM     19  C   UNL     1       7.291   4.375  17.002  0.00  0.00    +0.000 C 
ATOM     20  C   UNL     1       7.423   5.392  18.144  0.00  0.00    +0.000 C 
BRANCH  18  21
ATOM     21  C   UNL     1       6.671   3.922  14.721  0.00  0.00    +0.000 C 
ATOM     22  C   UNL     1       5.209   4.053  14.248  0.00  0.00    +0.000 C 
ATOM     23  O   UNL     1       5.636   3.897  12.863  0.00  0.00    +0.000 OA
ATOM     24  C   UNL     1       6.977   4.318  13.267  0.00  0.00    +0.000 C 
ENDBRANCH  18  21
ENDBRANCH   9  15
BRANCH  11  25
ATOM     25  C   UNL     1       3.309   2.234  19.087  0.00  0.00    +0.000 C 
ATOM     26  C   UNL     1       1.923   1.709  18.783  0.00  0.00    +0.000 C 
ATOM     27  C   UNL     1       2.969   1.713  17.710  0.00  0.00    +0.000 C 
ENDBRANCH  11  25
BRANCH   1  29
ATOM     28  N   UNL     1      -0.381  11.655  22.651  0.00  0.00    +0.000 NA
ATOM     29  C   UNL     1       0.088  10.933  21.877  0.00  0.00    +0.000 C 
ENDBRANCH   1  29
TORSDOF 4
ENDMDL
MODEL 3
REMARK VINA RESULT:      -7.1      2.410      3.191
REMARK  Name = 
REMARK  4 active torsions:
REMARK  status: ('A' for Active; 'I' for Inactive)
REMARK    1  A    between atoms: C_2  and  C_3
REMARK    2  A    between atoms: C_11  and  C_12
REMARK    3  A    between atoms: N_15  and  C_16
REMARK    4  A    between atoms: C_23  and  C_24
REMARK                            x       y       z     vdW  Elec       q    Type
REMARK                         _______ _______ _______ _____ _____    ______ ____
ROOT
ATOM      1  C   UNL     1       0.723  11.539  20.419  0.00  0.00    +0.000 A 
ATOM      2  C   UNL     1       0.180  11.516  19.140  0.00  0.00    +0.000 A 
ATOM      3  C   UNL     1       0.107  10.296  18.503  0.00  0.00    +0.000 A 
ATOM      4  N   UNL     1       0.541   9.145  19.056  0.00  0.00    +0.000 NA
ATOM      5  C   UNL     1       1.057   9.163  20.308  0.00  0.00    +0.000 A 
ATOM      6  N   UNL     1       1.527   7.972  20.903  0.00  0.00    +0.000 N 
ATOM      7  C   UNL     1       1.891   6.812  20.185  0.00  0.00    +0.000 A 
ATOM      8  C   UNL     1       2.617   6.953  19.013  0.00  0.00    +0.000 A 
ATOM      9  C   UNL     1       2.934   5.860  18.213  0.00  0.00    +0.000 A 
ATOM     10  C   UNL     1       2.576   4.607  18.719  0.00  0.00    +0.000 A 
ATOM     11  C   UNL     1       1.907   4.498  19.948  0.00  0.00    +0.000 A 
ATOM     12  N   UNL     1       1.561   5.600  20.674  0.00  0.00    +0.000 NA
ATOM     13  C   UNL     1       1.165  10.352  21.016  0.00  0.00    +0.000 A 
ATOM     14  H   UNL     1       0.984   7.701  21.715  0.00  0.00    +0.000 HD
ENDROOT
BRANCH   9  15
ATOM     15  C   UNL     1       3.661   6.014  16.883  0.00  0.00    +0.000 C 
ATOM     16  C   UNL     1       4.369   4.752  16.354  0.00  0.00    +0.000 C 
ATOM     17  C   UNL     1       5.651   4.424  17.126  0.00  0.00    +0.000 C 
ATOM     18  N   UNL     1       6.616   5.535  17.186  0.00  0.00    +0.000 NA
ATOM     19  C   UNL     1       5.979   6.786  17.647  0.00  0.00    +0.000 C 
ATOM     20  C   UNL     1       4.702   7.145  16.875  0.00  0.00    +0.000 C 
BRANCH  18  21
ATOM     21  C   UNL     1       7.676   5.158  18.159  0.00  0.00    +0.000 C 
ATOM     22  C   UNL     1       8.102   6.360  19.027  0.00  0.00    +0.000 C 
ATOM     23  O   UNL     1       7.982   5.543  20.229  0.00  0.00    +0.000 OA
ATOM     24  C   UNL     1       7.092   4.649  19.488  0.00  0.00    +0.000 C 
ENDBRANCH  18  21
ENDBRANCH   9  15
BRANCH  11  25
ATOM     25  C   UNL     1       1.497   3.138  20.476  0.00  0.00    +0.000 C 
ATOM     26  C   UNL     1       2.467   2.238  21.208  0.00  0.00    +0.000 C 
ATOM     27  C   UNL     1       1.378   2.931  21.968  0.00  0.00    +0.000 C 
ENDBRANCH  11  25
BRANCH   1  29
ATOM     28  N   UNL     1       0.918  13.776  21.711  0.00  0.00    +0.000 NA
ATOM     29  C   UNL     1       0.831  12.781  21.126  0.00  0.00    +0.000 C 
ENDBRANCH   1  29
TORSDOF 4
ENDMDL
MODEL 4
REMARK VINA RESULT:      -7.1      1.122      1.500
REMARK  Name = 
REMARK  4 active torsions:
REMARK  status: ('A' for Active; 'I' for Inactive)
REMARK    1  A    between atoms: C_2  and  C_3
REMARK    2  A    between atoms: C_11  and  C_12
REMARK    3  A    between atoms: N_15  and  C_16
REMARK    4  A    between atoms: C_23  and  C_24
REMARK                            x       y       z     vdW  Elec       q    Type
REMARK                         _______ _______ _______ _____ _____    ______ ____
ROOT
ATOM      1  C   UNL     1       0.710  10.346  20.566  0.00  0.00    +0.000 A 
ATOM      2  C   UNL     1       0.768  10.852  19.273  0.00  0.00    +0.000 A 
ATOM      3  C   UNL     1       1.164   9.992  18.272  0.00  0.00    +0.000 A 
ATOM      4  N   UNL     1       1.502   8.704  18.492  0.00  0.00    +0.000 NA
ATOM      5  C   UNL     1       1.432   8.206  19.749  0.00  0.00    +0.000 A 
ATOM      6  N   UNL     1       1.790   6.864  20.005  0.00  0.00    +0.000 N 
ATOM      7  C   UNL     1       2.602   6.080  19.156  0.00  0.00    +0.000 A 
ATOM      8  C   UNL     1       3.722   6.660  18.582  0.00  0.00    +0.000 A 
ATOM      9  C   UNL     1       4.515   5.971  17.669  0.00  0.00    +0.000 A 
ATOM     10  C   UNL     1       4.181   4.630  17.458  0.00  0.00    +0.000 A 
ATOM     11  C   UNL     1       3.083   4.055  18.117  0.00  0.00    +0.000 A 
ATOM     12  N   UNL     1       2.294   4.782  18.958  0.00  0.00    +0.000 NA
ATOM     13  C   UNL     1       1.041   9.008  20.812  0.00  0.00    +0.000 A 
ATOM     14  H   UNL     1       1.006   6.305  20.321  0.00  0.00    +0.000 HD
ENDROOT
BRANCH   9  15
ATOM     15  C   UNL     1       5.700   6.626  16.972  0.00  0.00    +0.000 C 
ATOM     16  C   UNL     1       5.480   7.019  15.499  0.00  0.00    +0.000 C 
ATOM     17  C   UNL     1       5.470   5.811  14.556  0.00  0.00    +0.000 C 
ATOM     18  N   UNL     1       6.669   4.962  14.659  0.00  0.00    +0.000 NA
ATOM     19  C   UNL     1       6.954   4.589  16.060  0.00  0.00    +0.000 C 
ATOM     20  C   UNL     1       6.987   5.786  17.020  0.00  0.00    +0.000 C 
BRANCH  18  21
ATOM     21  C   UNL     1       6.408   3.720  13.883  0.00  0.00    +0.000 C 
ATOM     22  C   UNL     1       5.011   3.742  13.229  0.00  0.00    +0.000 C 
ATOM     23  O   UNL     1       5.592   3.327  11.958  0.00  0.00    +0.000 OA
ATOM     24  C   UNL     1       6.883   3.833  12.425  0.00  0.00    +0.000 C 
ENDBRANCH  18  21
ENDBRANCH   9  15
BRANCH  11  25
ATOM     25  C   UNL     1       2.711   2.609  17.860  0.00  0.00    +0.000 C 
ATOM     26  C   UNL     1       3.329   1.473  18.643  0.00  0.00    +0.000 C 
ATOM     27  C   UNL     1       1.904   1.860  18.895  0.00  0.00    +0.000 C 
ENDBRANCH  11  25
BRANCH   1  29
ATOM     28  N   UNL     1      -0.022  11.888  22.515  0.00  0.00    +0.000 NA
ATOM     29  C   UNL     1       0.311  11.196  21.648  0.00  0.00    +0.000 C 
ENDBRANCH   1  29
TORSDOF 4
ENDMDL
MODEL 5
REMARK VINA RESULT:      -7.0      2.621      5.236
REMARK  Name = 
REMARK  4 active torsions:
REMARK  status: ('A' for Active; 'I' for Inactive)
REMARK    1  A    between atoms: C_2  and  C_3
REMARK    2  A    between atoms: C_11  and  C_12
REMARK    3  A    between atoms: N_15  and  C_16
REMARK    4  A    between atoms: C_23  and  C_24
REMARK                            x       y       z     vdW  Elec       q    Type
REMARK                         _______ _______ _______ _____ _____    ______ ____
ROOT
ATOM      1  C   UNL     1       0.114   9.546  20.358  0.00  0.00    +0.000 A 
ATOM      2  C   UNL     1      -0.127   8.472  21.207  0.00  0.00    +0.000 A 
ATOM      3  C   UNL     1       0.698   7.375  21.093  0.00  0.00    +0.000 A 
ATOM      4  N   UNL     1       1.707   7.296  20.200  0.00  0.00    +0.000 NA
ATOM      5  C   UNL     1       1.953   8.347  19.383  0.00  0.00    +0.000 A 
ATOM      6  N   UNL     1       2.997   8.284  18.435  0.00  0.00    +0.000 N 
ATOM      7  C   UNL     1       3.572   7.084  17.962  0.00  0.00    +0.000 A 
ATOM      8  C   UNL     1       2.741   6.015  17.670  0.00  0.00    +0.000 A 
ATOM      9  C   UNL     1       3.249   4.778  17.283  0.00  0.00    +0.000 A 
ATOM     10  C   UNL     1       4.632   4.715  17.098  0.00  0.00    +0.000 A 
ATOM     11  C   UNL     1       5.436   5.842  17.331  0.00  0.00    +0.000 A 
ATOM     12  N   UNL     1       4.905   7.021  17.768  0.00  0.00    +0.000 NA
ATOM     13  C   UNL     1       1.166   9.489  19.437  0.00  0.00    +0.000 A 
ATOM     14  H   UNL     1       3.735   8.953  18.622  0.00  0.00    +0.000 HD
ENDROOT
BRANCH   9  15
ATOM     15  C   UNL     1       2.348   3.574  17.039  0.00  0.00    +0.000 C 
ATOM     16  C   UNL     1       0.919   3.677  17.606  0.00  0.00    +0.000 C 
ATOM     17  C   UNL     1       0.873   3.523  19.130  0.00  0.00    +0.000 C 
ATOM     18  N   UNL     1       1.506   2.290  19.626  0.00  0.00    +0.000 NA
ATOM     19  C   UNL     1       2.867   2.117  19.078  0.00  0.00    +0.000 C 
ATOM     20  C   UNL     1       2.935   2.249  17.551  0.00  0.00    +0.000 C 
BRANCH  18  21
ATOM     21  C   UNL     1       1.603   2.400  21.107  0.00  0.00    +0.000 C 
ATOM     22  C   UNL     1       3.071   2.408  21.580  0.00  0.00    +0.000 C 
ATOM     23  O   UNL     1       2.799   3.565  22.424  0.00  0.00    +0.000 OA
ATOM     24  C   UNL     1       1.640   3.862  21.582  0.00  0.00    +0.000 C 
ENDBRANCH  18  21
ENDBRANCH   9  15
BRANCH  11  25
ATOM     25  C   UNL     1       6.939   5.758  17.155  0.00  0.00    +0.000 C 
ATOM     26  C   UNL     1       7.840   5.196  18.232  0.00  0.00    +0.000 C 
ATOM     27  C   UNL     1       7.587   4.404  16.985  0.00  0.00    +0.000 C 
ENDBRANCH  11  25
BRANCH   1  29
ATOM     28  N   UNL     1      -1.379  11.660  20.473  0.00  0.00    +0.000 NA
ATOM     29  C   UNL     1      -0.717  10.711  20.427  0.00  0.00    +0.000 C 
ENDBRANCH   1  29
TORSDOF 4
ENDMDL
MODEL 6
REMARK VINA RESULT:      -6.9      7.735     11.029
REMARK  Name = 
REMARK  4 active torsions:
REMARK  status: ('A' for Active; 'I' for Inactive)
REMARK    1  A    between atoms: C_2  and  C_3
REMARK    2  A    between atoms: C_11  and  C_12
REMARK    3  A    between atoms: N_15  and  C_16
REMARK    4  A    between atoms: C_23  and  C_24
REMARK                            x       y       z     vdW  Elec       q    Type
REMARK                         _______ _______ _______ _____ _____    ______ ____
ROOT
ATOM      1  C   UNL     1      -3.462  10.211  15.492  0.00  0.00    +0.000 A 
ATOM      2  C   UNL     1      -2.332   9.666  16.090  0.00  0.00    +0.000 A 
ATOM      3  C   UNL     1      -2.203   9.812  17.454  0.00  0.00    +0.000 A 
ATOM      4  N   UNL     1      -3.106  10.461  18.218  0.00  0.00    +0.000 NA
ATOM      5  C   UNL     1      -4.214  10.981  17.639  0.00  0.00    +0.000 A 
ATOM      6  N   UNL     1      -5.167  11.672  18.417  0.00  0.00    +0.000 N 
ATOM      7  C   UNL     1      -4.904  12.236  19.684  0.00  0.00    +0.000 A 
ATOM      8  C   UNL     1      -3.708  12.908  19.881  0.00  0.00    +0.000 A 
ATOM      9  C   UNL     1      -3.348  13.412  21.127  0.00  0.00    +0.000 A 
ATOM     10  C   UNL     1      -4.311  13.300  22.133  0.00  0.00    +0.000 A 
ATOM     11  C   UNL     1      -5.543  12.680  21.877  0.00  0.00    +0.000 A 
ATOM     12  N   UNL     1      -5.834  12.145  20.657  0.00  0.00    +0.000 NA
ATOM     13  C   UNL     1      -4.417  10.874  16.270  0.00  0.00    +0.000 A 
ATOM     14  H   UNL     1      -6.064  11.200  18.446  0.00  0.00    +0.000 HD
ENDROOT
BRANCH   9  15
ATOM     15  C   UNL     1      -2.001  14.080  21.371  0.00  0.00    +0.000 C 
ATOM     16  C   UNL     1      -0.931  13.853  20.285  0.00  0.00    +0.000 C 
ATOM     17  C   UNL     1      -0.343  12.439  20.318  0.00  0.00    +0.000 C 
ATOM     18  N   UNL     1       0.202  12.047  21.628  0.00  0.00    +0.000 NA
ATOM     19  C   UNL     1      -0.768  12.285  22.716  0.00  0.00    +0.000 C 
ATOM     20  C   UNL     1      -1.358  13.702  22.715  0.00  0.00    +0.000 C 
BRANCH  18  21
ATOM     21  C   UNL     1       0.503  10.591  21.573  0.00  0.00    +0.000 C 
ATOM     22  C   UNL     1      -0.269   9.811  22.657  0.00  0.00    +0.000 C 
ATOM     23  O   UNL     1      -0.693   8.834  21.660  0.00  0.00    +0.000 OA
ATOM     24  C   UNL     1      -0.444   9.837  20.624  0.00  0.00    +0.000 C 
ENDBRANCH  18  21
ENDBRANCH   9  15
BRANCH  11  25
ATOM     25  C   UNL     1      -6.571  12.537  22.982  0.00  0.00    +0.000 C 
ATOM     26  C   UNL     1      -7.831  13.373  23.015  0.00  0.00    +0.000 C 
ATOM     27  C   UNL     1      -7.913  11.918  22.666  0.00  0.00    +0.000 C 
ENDBRANCH  11  25
BRANCH   1  29
ATOM     28  N   UNL     1      -3.801  10.016  12.931  0.00  0.00    +0.000 NA
ATOM     29  C   UNL     1      -3.645  10.096  14.075  0.00  0.00    +0.000 C 
ENDBRANCH   1  29
TORSDOF 4
ENDMDL
MODEL 7
REMARK VINA RESULT:      -6.9      7.522     11.348
REMARK  Name = 
REMARK  4 active torsions:
REMARK  status: ('A' for Active; 'I' for Inactive)
REMARK    1  A    between atoms: C_2  and  C_3
REMARK    2  A    between atoms: C_11  and  C_12
REMARK    3  A    between atoms: N_15  and  C_16
REMARK    4  A    between atoms: C_23  and  C_24
REMARK                            x       y       z     vdW  Elec       q    Type
REMARK                         _______ _______ _______ _____ _____    ______ ____
ROOT
ATOM      1  C   UNL     1      -3.432  10.346  15.732  0.00  0.00    +0.000 A 
ATOM      2  C   UNL     1      -2.511   9.655  16.509  0.00  0.00    +0.000 A 
ATOM      3  C   UNL     1      -2.603   9.794  17.877  0.00  0.00    +0.000 A 
ATOM      4  N   UNL     1      -3.528  10.568  18.482  0.00  0.00    +0.000 NA
ATOM      5  C   UNL     1      -4.435  11.230  17.727  0.00  0.00    +0.000 A 
ATOM      6  N   UNL     1      -5.407  12.053  18.338  0.00  0.00    +0.000 N 
ATOM      7  C   UNL     1      -5.294  12.586  19.640  0.00  0.00    +0.000 A 
ATOM      8  C   UNL     1      -4.070  13.089  20.052  0.00  0.00    +0.000 A 
ATOM      9  C   UNL     1      -3.868  13.549  21.350  0.00  0.00    +0.000 A 
ATOM     10  C   UNL     1      -4.998  13.580  22.171  0.00  0.00    +0.000 A 
ATOM     11  C   UNL     1      -6.240  13.133  21.694  0.00  0.00    +0.000 A 
ATOM     12  N   UNL     1      -6.383  12.632  20.434  0.00  0.00    +0.000 NA
ATOM     13  C   UNL     1      -4.409  11.141  16.342  0.00  0.00    +0.000 A 
ATOM     14  H   UNL     1      -6.350  11.709  18.202  0.00  0.00    +0.000 HD
ENDROOT
BRANCH   9  15
ATOM     15  C   UNL     1      -2.506  14.027  21.835  0.00  0.00    +0.000 C 
ATOM     16  C   UNL     1      -1.330  13.805  20.865  0.00  0.00    +0.000 C 
ATOM     17  C   UNL     1      -0.893  12.339  20.786  0.00  0.00    +0.000 C 
ATOM     18  N   UNL     1      -0.567  11.741  22.091  0.00  0.00    +0.000 NA
ATOM     19  C   UNL     1      -1.644  11.962  23.078  0.00  0.00    +0.000 C 
ATOM     20  C   UNL     1      -2.086  13.427  23.187  0.00  0.00    +0.000 C 
BRANCH  18  21
ATOM     21  C   UNL     1      -0.406  10.276  21.887  0.00  0.00    +0.000 C 
ATOM     22  C   UNL     1       1.012   9.924  21.393  0.00  0.00    +0.000 C 
ATOM     23  O   UNL     1       1.108   8.873  22.399  0.00  0.00    +0.000 OA
ATOM     24  C   UNL     1       0.066   9.558  23.163  0.00  0.00    +0.000 C 
ENDBRANCH  18  21
ENDBRANCH   9  15
BRANCH  11  25
ATOM     25  C   UNL     1      -7.454  13.143  22.600  0.00  0.00    +0.000 C 
ATOM     26  C   UNL     1      -7.635  12.128  23.708  0.00  0.00    +0.000 C 
ATOM     27  C   UNL     1      -7.292  13.547  24.048  0.00  0.00    +0.000 C 
ENDBRANCH  11  25
BRANCH   1  29
ATOM     28  N   UNL     1      -3.346  10.151  13.150  0.00  0.00    +0.000 NA
ATOM     29  C   UNL     1      -3.379  10.245  14.303  0.00  0.00    +0.000 C 
ENDBRANCH   1  29
TORSDOF 4
ENDMDL
MODEL 8
REMARK VINA RESULT:      -6.5      4.146      9.753
REMARK  Name = 
REMARK  4 active torsions:
REMARK  status: ('A' for Active; 'I' for Inactive)
REMARK    1  A    between atoms: C_2  and  C_3
REMARK    2  A    between atoms: C_11  and  C_12
REMARK    3  A    between atoms: N_15  and  C_16
REMARK    4  A    between atoms: C_23  and  C_24
REMARK                            x       y       z     vdW  Elec       q    Type
REMARK                         _______ _______ _______ _____ _____    ______ ____
ROOT
ATOM      1  C   UNL     1       4.598   6.207  18.125  0.00  0.00    +0.000 A 
ATOM      2  C   UNL     1       4.221   5.690  19.359  0.00  0.00    +0.000 A 
ATOM      3  C   UNL     1       3.031   6.133  19.896  0.00  0.00    +0.000 A 
ATOM      4  N   UNL     1       2.236   7.038  19.290  0.00  0.00    +0.000 NA
ATOM      5  C   UNL     1       2.595   7.532  18.081  0.00  0.00    +0.000 A 
ATOM      6  N   UNL     1       1.783   8.487  17.432  0.00  0.00    +0.000 N 
ATOM      7  C   UNL     1       0.828   9.296  18.084  0.00  0.00    +0.000 A 
ATOM      8  C   UNL     1       1.151   9.855  19.310  0.00  0.00    +0.000 A 
ATOM      9  C   UNL     1       0.226  10.590  20.046  0.00  0.00    +0.000 A 
ATOM     10  C   UNL     1      -1.004  10.824  19.425  0.00  0.00    +0.000 A 
ATOM     11  C   UNL     1      -1.269  10.304  18.148  0.00  0.00    +0.000 A 
ATOM     12  N   UNL     1      -0.356   9.537  17.485  0.00  0.00    +0.000 NA
ATOM     13  C   UNL     1       3.778   7.135  17.473  0.00  0.00    +0.000 A 
ATOM     14  H   UNL     1       1.386   8.139  16.567  0.00  0.00    +0.000 HD
ENDROOT
BRANCH   9  15
ATOM     15  C   UNL     1       0.547  11.139  21.430  0.00  0.00    +0.000 C 
ATOM     16  C   UNL     1      -0.439  10.757  22.550  0.00  0.00    +0.000 C 
ATOM     17  C   UNL     1      -1.769  11.512  22.454  0.00  0.00    +0.000 C 
ATOM     18  N   UNL     1      -1.625  12.976  22.412  0.00  0.00    +0.000 NA
ATOM     19  C   UNL     1      -0.654  13.400  21.381  0.00  0.00    +0.000 C 
ATOM     20  C   UNL     1       0.693  12.669  21.469  0.00  0.00    +0.000 C 
BRANCH  18  21
ATOM     21  C   UNL     1      -2.955  13.550  22.072  0.00  0.00    +0.000 C 
ATOM     22  C   UNL     1      -3.536  12.915  20.792  0.00  0.00    +0.000 C 
ATOM     23  O   UNL     1      -4.812  12.708  21.466  0.00  0.00    +0.000 OA
ATOM     24  C   UNL     1      -4.107  12.786  22.746  0.00  0.00    +0.000 C 
ENDBRANCH  18  21
ENDBRANCH   9  15
BRANCH  11  25
ATOM     25  C   UNL     1      -2.615  10.538  17.493  0.00  0.00    +0.000 C 
ATOM     26  C   UNL     1      -2.750  11.289  16.187  0.00  0.00    +0.000 C 
ATOM     27  C   UNL     1      -2.951   9.805  16.215  0.00  0.00    +0.000 C 
ENDBRANCH  11  25
BRANCH   1  29
ATOM     28  N   UNL     1       6.816   5.448  17.022  0.00  0.00    +0.000 NA
ATOM     29  C   UNL     1       5.829   5.789  17.522  0.00  0.00    +0.000 C 
ENDBRANCH   1  29
TORSDOF 4
ENDMDL
MODEL 9
REMARK VINA RESULT:      -6.4      2.236      4.834
REMARK  Name = 
REMARK  4 active torsions:
REMARK  status: ('A' for Active; 'I' for Inactive)
REMARK    1  A    between atoms: C_2  and  C_3
REMARK    2  A    between atoms: C_11  and  C_12
REMARK    3  A    between atoms: N_15  and  C_16
REMARK    4  A    between atoms: C_23  and  C_24
REMARK                            x       y       z     vdW  Elec       q    Type
REMARK                         _______ _______ _______ _____ _____    ______ ____
ROOT
ATOM      1  C   UNL     1      -1.120  11.765  20.503  0.00  0.00    +0.000 A 
ATOM      2  C   UNL     1      -0.547  11.623  21.761  0.00  0.00    +0.000 A 
ATOM      3  C   UNL     1       0.541  10.785  21.872  0.00  0.00    +0.000 A 
ATOM      4  N   UNL     1       1.059  10.101  20.831  0.00  0.00    +0.000 NA
ATOM      5  C   UNL     1       0.511  10.250  19.602  0.00  0.00    +0.000 A 
ATOM      6  N   UNL     1       1.030   9.538  18.499  0.00  0.00    +0.000 N 
ATOM      7  C   UNL     1       1.815   8.369  18.603  0.00  0.00    +0.000 A 
ATOM      8  C   UNL     1       1.458   7.405  19.532  0.00  0.00    +0.000 A 
ATOM      9  C   UNL     1       2.236   6.272  19.747  0.00  0.00    +0.000 A 
ATOM     10  C   UNL     1       3.330   6.110  18.894  0.00  0.00    +0.000 A 
ATOM     11  C   UNL     1       3.619   7.071  17.912  0.00  0.00    +0.000 A 
ATOM     12  N   UNL     1       2.865   8.200  17.774  0.00  0.00    +0.000 NA
ATOM     13  C   UNL     1      -0.587  11.077  19.408  0.00  0.00    +0.000 A 
ATOM     14  H   UNL     1       1.436  10.146  17.797  0.00  0.00    +0.000 HD
ENDROOT
BRANCH   9  15
ATOM     15  C   UNL     1       1.894   5.248  20.822  0.00  0.00    +0.000 C 
ATOM     16  C   UNL     1       3.023   4.272  21.204  0.00  0.00    +0.000 C 
ATOM     17  C   UNL     1       3.274   3.205  20.133  0.00  0.00    +0.000 C 
ATOM     18  N   UNL     1       2.074   2.439  19.759  0.00  0.00    +0.000 NA
ATOM     19  C   UNL     1       0.942   3.327  19.424  0.00  0.00    +0.000 C 
ATOM     20  C   UNL     1       0.660   4.393  20.492  0.00  0.00    +0.000 C 
BRANCH  18  21
ATOM     21  C   UNL     1       2.413   1.631  18.557  0.00  0.00    +0.000 C 
ATOM     22  C   UNL     1       2.717   2.527  17.338  0.00  0.00    +0.000 C 
ATOM     23  O   UNL     1       3.930   1.763  17.071  0.00  0.00    +0.000 OA
ATOM     24  C   UNL     1       3.917   1.324  18.466  0.00  0.00    +0.000 C 
ENDBRANCH  18  21
ENDBRANCH   9  15
BRANCH  11  25
ATOM     25  C   UNL     1       4.824   6.903  17.009  0.00  0.00    +0.000 C 
ATOM     26  C   UNL     1       6.177   6.498  17.549  0.00  0.00    +0.000 C 
ATOM     27  C   UNL     1       5.369   5.516  16.757  0.00  0.00    +0.000 C 
ENDBRANCH  11  25
BRANCH   1  29
ATOM     28  N   UNL     1      -3.183  13.303  20.204  0.00  0.00    +0.000 NA
ATOM     29  C   UNL     1      -2.259  12.617  20.330  0.00  0.00    +0.000 C 
ENDBRANCH   1  29
TORSDOF 4
ENDMDL
