MODEL 1
REMARK VINA RESULT:      -8.3      0.000      0.000
REMARK  Name = 
REMARK  12 active torsions:
REMARK  status: ('A' for Active; 'I' for Inactive)
REMARK    1  A    between atoms: C_1  and  C_2
REMARK    2  A    between atoms: C_2  and  C_3
REMARK    3  A    between atoms: C_3  and  N_4
REMARK    4  A    between atoms: N_4  and  C_5
REMARK    5  A    between atoms: N_4  and  C_22
REMARK    6  A    between atoms: C_5  and  C_6
REMARK    7  A    between atoms: C_6  and  C_7
REMARK    8  A    between atoms: C_7  and  C_8
REMARK    9  A    between atoms: C_8  and  N_9
REMARK   10  A    between atoms: C_10  and  C_12
REMARK   11  A    between atoms: C_22  and  C_23
REMARK   12  A    between atoms: C_25  and  C_26
REMARK                            x       y       z     vdW  Elec       q    Type
REMARK                         _______ _______ _______ _____ _____    ______ ____
ROOT
ATOM      1  C   UNL     1       0.925   3.742  19.223  0.00  0.00    +0.000 C 
ENDROOT
BRANCH   1   2
ATOM      2  C   UNL     1       1.261   2.382  18.584  0.00  0.00    +0.000 C 
BRANCH   2   3
ATOM      3  N   UNL     1       2.338   2.393  17.574  0.00  0.00    +0.000 NA
BRANCH   3   4
ATOM      4  C   UNL     1       3.491   1.552  17.949  0.00  0.00    +0.000 C 
BRANCH   4   6
ATOM      5  C   UNL     1       4.612   2.145  20.184  0.00  0.00    +0.000 C 
ATOM      6  C   UNL     1       3.646   1.227  19.448  0.00  0.00    +0.000 C 
ENDBRANCH   4   6
ENDBRANCH   3   4
BRANCH   3   7
ATOM      7  C   UNL     1       2.726   3.782  17.280  0.00  0.00    +0.000 C 
BRANCH   7   8
ATOM      8  C   UNL     1       4.200   3.993  17.115  0.00  0.00    +0.000 C 
ATOM      9  C   UNL     1       4.847   4.286  15.790  0.00  0.00    +0.000 C 
ATOM     10  C   UNL     1       4.697   5.394  16.804  0.00  0.00    +0.000 C 
BRANCH  10  11
ATOM     11  C   UNL     1       5.884   5.963  17.542  0.00  0.00    +0.000 A 
ATOM     12  C   UNL     1       6.487   5.263  18.604  0.00  0.00    +0.000 A 
ATOM     13  C   UNL     1       7.649   5.732  19.227  0.00  0.00    +0.000 A 
ATOM     14  C   UNL     1       8.235   6.919  18.798  0.00  0.00    +0.000 A 
ATOM     15  C   UNL     1       7.646   7.628  17.762  0.00  0.00    +0.000 A 
ATOM     16  F   UNL     1       8.209   8.768  17.339  0.00  0.00    +0.000 F 
ATOM     17  C   UNL     1       6.489   7.165  17.139  0.00  0.00    +0.000 A 
ENDBRANCH  10  11
ENDBRANCH   7   8
ENDBRANCH   3   7
ENDBRANCH   2   3
ENDBRANCH   1   2
BRANCH   1  18
ATOM     18  C   UNL     1       1.315   3.828  20.698  0.00  0.00    +0.000 C 
BRANCH  18  19
ATOM     19  C   UNL     1       2.302   4.956  20.958  0.00  0.00    +0.000 C 
BRANCH  19  20
ATOM     20  N   UNL     1       1.645   6.233  20.985  0.00  0.00    +0.000 N 
ATOM     21  C   UNL     1       1.942   7.214  20.067  0.00  0.00    +0.000 C 
ATOM     22  O   UNL     1       2.711   7.063  19.127  0.00  0.00    +0.000 OA
ATOM     23  H   UNL     1       0.852   6.347  21.600  0.00  0.00    +0.000 HD
BRANCH  21  24
ATOM     24  C   UNL     1       1.247   8.505  20.278  0.00  0.00    +0.000 A 
ATOM     25  C   UNL     1       1.173   9.463  19.262  0.00  0.00    +0.000 A 
ATOM     26  C   UNL     1       0.493  10.660  19.484  0.00  0.00    +0.000 A 
ATOM     27  C   UNL     1      -0.135  10.903  20.714  0.00  0.00    +0.000 A 
ATOM     28  C   UNL     1      -0.843  12.091  20.940  0.00  0.00    +0.000 A 
ATOM     29  C   UNL     1      -1.478  12.314  22.162  0.00  0.00    +0.000 A 
ATOM     30  C   UNL     1      -1.405  11.359  23.173  0.00  0.00    +0.000 A 
ATOM     31  C   UNL     1      -0.703  10.173  22.965  0.00  0.00    +0.000 A 
ATOM     32  C   UNL     1      -0.068   9.930  21.738  0.00  0.00    +0.000 A 
ATOM     33  C   UNL     1       0.625   8.733  21.509  0.00  0.00    +0.000 A 
ENDBRANCH  21  24
ENDBRANCH  19  20
ENDBRANCH  18  19
ENDBRANCH   1  18
TORSDOF 11
ENDMDL
MODEL 2
REMARK VINA RESULT:      -7.5      3.747      7.341
REMARK  Name = 
REMARK  12 active torsions:
REMARK  status: ('A' for Active; 'I' for Inactive)
REMARK    1  A    between atoms: C_1  and  C_2
REMARK    2  A    between atoms: C_2  and  C_3
REMARK    3  A    between atoms: C_3  and  N_4
REMARK    4  A    between atoms: N_4  and  C_5
REMARK    5  A    between atoms: N_4  and  C_22
REMARK    6  A    between atoms: C_5  and  C_6
REMARK    7  A    between atoms: C_6  and  C_7
REMARK    8  A    between atoms: C_7  and  C_8
REMARK    9  A    between atoms: C_8  and  N_9
REMARK   10  A    between atoms: C_10  and  C_12
REMARK   11  A    between atoms: C_22  and  C_23
REMARK   12  A    between atoms: C_25  and  C_26
REMARK                            x       y       z     vdW  Elec       q    Type
REMARK                         _______ _______ _______ _____ _____    ______ ____
ROOT
ATOM      1  C   UNL     1       5.771   4.814  18.362  0.00  0.00    +0.000 C 
ENDROOT
BRANCH   1   2
ATOM      2  C   UNL     1       4.935   3.630  18.884  0.00  0.00    +0.000 C 
BRANCH   2   3
ATOM      3  N   UNL     1       3.479   3.719  18.658  0.00  0.00    +0.000 NA
BRANCH   3   4
ATOM      4  C   UNL     1       2.944   2.590  17.873  0.00  0.00    +0.000 C 
BRANCH   4   6
ATOM      5  C   UNL     1       1.369   2.306  19.883  0.00  0.00    +0.000 C 
ATOM      6  C   UNL     1       1.753   1.830  18.489  0.00  0.00    +0.000 C 
ENDBRANCH   4   6
ENDBRANCH   3   4
BRANCH   3   7
ATOM      7  C   UNL     1       3.151   5.025  18.061  0.00  0.00    +0.000 C 
BRANCH   7   8
ATOM      8  C   UNL     1       2.120   5.809  18.814  0.00  0.00    +0.000 C 
ATOM      9  C   UNL     1       2.072   5.878  20.315  0.00  0.00    +0.000 C 
ATOM     10  C   UNL     1       2.558   7.073  19.532  0.00  0.00    +0.000 C 
BRANCH  10  11
ATOM     11  C   UNL     1       1.741   8.337  19.418  0.00  0.00    +0.000 A 
ATOM     12  C   UNL     1       1.649   9.038  18.202  0.00  0.00    +0.000 A 
ATOM     13  C   UNL     1       0.812  10.151  18.057  0.00  0.00    +0.000 A 
ATOM     14  C   UNL     1       0.047  10.589  19.134  0.00  0.00    +0.000 A 
ATOM     15  C   UNL     1       0.138   9.917  20.344  0.00  0.00    +0.000 A 
ATOM     16  F   UNL     1      -0.602  10.328  21.383  0.00  0.00    +0.000 F 
ATOM     17  C   UNL     1       0.968   8.808  20.492  0.00  0.00    +0.000 A 
ENDBRANCH  10  11
ENDBRANCH   7   8
ENDBRANCH   3   7
ENDBRANCH   2   3
ENDBRANCH   1   2
BRANCH   1  18
ATOM     18  C   UNL     1       6.626   5.471  19.444  0.00  0.00    +0.000 C 
BRANCH  18  19
ATOM     19  C   UNL     1       8.008   5.841  18.928  0.00  0.00    +0.000 C 
BRANCH  19  20
ATOM     20  N   UNL     1       8.240   7.256  19.012  0.00  0.00    +0.000 N 
ATOM     21  C   UNL     1       8.060   8.079  17.926  0.00  0.00    +0.000 C 
ATOM     22  O   UNL     1       7.624   7.705  16.845  0.00  0.00    +0.000 OA
ATOM     23  H   UNL     1       8.395   7.658  19.926  0.00  0.00    +0.000 HD
BRANCH  21  24
ATOM     24  C   UNL     1       8.424   9.499  18.145  0.00  0.00    +0.000 A 
ATOM     25  C   UNL     1       7.890  10.516  17.346  0.00  0.00    +0.000 A 
ATOM     26  C   UNL     1       8.235  11.844  17.590  0.00  0.00    +0.000 A 
ATOM     27  C   UNL     1       9.098  12.171  18.645  0.00  0.00    +0.000 A 
ATOM     28  C   UNL     1       9.432  13.505  18.917  0.00  0.00    +0.000 A 
ATOM     29  C   UNL     1      10.279  13.820  19.980  0.00  0.00    +0.000 A 
ATOM     30  C   UNL     1      10.808  12.808  20.777  0.00  0.00    +0.000 A 
ATOM     31  C   UNL     1      10.488  11.476  20.518  0.00  0.00    +0.000 A 
ATOM     32  C   UNL     1       9.630  11.144  19.459  0.00  0.00    +0.000 A 
ATOM     33  C   UNL     1       9.285   9.811  19.201  0.00  0.00    +0.000 A 
ENDBRANCH  21  24
ENDBRANCH  19  20
ENDBRANCH  18  19
ENDBRANCH   1  18
TORSDOF 11
ENDMDL
MODEL 3
REMARK VINA RESULT:      -7.4      5.034      9.196
REMARK  Name = 
REMARK  12 active torsions:
REMARK  status: ('A' for Active; 'I' for Inactive)
REMARK    1  A    between atoms: C_1  and  C_2
REMARK    2  A    between atoms: C_2  and  C_3
REMARK    3  A    between atoms: C_3  and  N_4
REMARK    4  A    between atoms: N_4  and  C_5
REMARK    5  A    between atoms: N_4  and  C_22
REMARK    6  A    between atoms: C_5  and  C_6
REMARK    7  A    between atoms: C_6  and  C_7
REMARK    8  A    between atoms: C_7  and  C_8
REMARK    9  A    between atoms: C_8  and  N_9
REMARK   10  A    between atoms: C_10  and  C_12
REMARK   11  A    between atoms: C_22  and  C_23
REMARK   12  A    between atoms: C_25  and  C_26
REMARK                            x       y       z     vdW  Elec       q    Type
REMARK                         _______ _______ _______ _____ _____    ______ ____
ROOT
ATOM      1  C   UNL     1       8.751   9.742  18.343  0.00  0.00    +0.000 C 
ENDROOT
BRANCH   1   2
ATOM      2  C   UNL     1       8.528  11.238  18.051  0.00  0.00    +0.000 C 
BRANCH   2   3
ATOM      3  N   UNL     1       9.712  11.987  17.586  0.00  0.00    +0.000 NA
BRANCH   3   4
ATOM      4  C   UNL     1      10.979  11.464  18.131  0.00  0.00    +0.000 C 
BRANCH   4   6
ATOM      5  C   UNL     1      11.089  11.898  20.661  0.00  0.00    +0.000 C 
ATOM      6  C   UNL     1      11.616  12.269  19.282  0.00  0.00    +0.000 C 
ENDBRANCH   4   6
ENDBRANCH   3   4
BRANCH   3   7
ATOM      7  C   UNL     1       9.530  13.422  17.863  0.00  0.00    +0.000 C 
BRANCH   7   8
ATOM      8  C   UNL     1       8.480  13.728  18.886  0.00  0.00    +0.000 C 
ATOM      9  C   UNL     1       8.637  14.795  19.934  0.00  0.00    +0.000 C 
ATOM     10  C   UNL     1       7.713  15.033  18.765  0.00  0.00    +0.000 C 
BRANCH  10  11
ATOM     11  C   UNL     1       6.213  15.054  18.925  0.00  0.00    +0.000 A 
ATOM     12  C   UNL     1       5.616  15.033  20.199  0.00  0.00    +0.000 A 
ATOM     13  C   UNL     1       4.231  15.157  20.364  0.00  0.00    +0.000 A 
ATOM     14  C   UNL     1       3.411  15.305  19.250  0.00  0.00    +0.000 A 
ATOM     15  C   UNL     1       3.983  15.315  17.986  0.00  0.00    +0.000 A 
ATOM     16  F   UNL     1       3.199  15.465  16.909  0.00  0.00    +0.000 F 
ATOM     17  C   UNL     1       5.360  15.192  17.818  0.00  0.00    +0.000 A 
ENDBRANCH  10  11
ENDBRANCH   7   8
ENDBRANCH   3   7
ENDBRANCH   2   3
ENDBRANCH   1   2
BRANCH   1  18
ATOM     18  C   UNL     1       7.638   8.849  17.798  0.00  0.00    +0.000 C 
BRANCH  18  19
ATOM     19  C   UNL     1       8.037   7.381  17.798  0.00  0.00    +0.000 C 
BRANCH  19  20
ATOM     20  N   UNL     1       6.903   6.527  18.016  0.00  0.00    +0.000 N 
ATOM     21  C   UNL     1       5.992   6.274  17.018  0.00  0.00    +0.000 C 
ATOM     22  O   UNL     1       6.104   6.676  15.868  0.00  0.00    +0.000 OA
ATOM     23  H   UNL     1       6.867   5.996  18.875  0.00  0.00    +0.000 HD
BRANCH  21  24
ATOM     24  C   UNL     1       4.830   5.446  17.421  0.00  0.00    +0.000 A 
ATOM     25  C   UNL     1       4.464   4.308  16.695  0.00  0.00    +0.000 A 
ATOM     26  C   UNL     1       3.379   3.538  17.112  0.00  0.00    +0.000 A 
ATOM     27  C   UNL     1       2.664   3.885  18.266  0.00  0.00    +0.000 A 
ATOM     28  C   UNL     1       1.588   3.104  18.709  0.00  0.00    +0.000 A 
ATOM     29  C   UNL     1       0.893   3.450  19.869  0.00  0.00    +0.000 A 
ATOM     30  C   UNL     1       1.259   4.583  20.592  0.00  0.00    +0.000 A 
ATOM     31  C   UNL     1       2.325   5.371  20.163  0.00  0.00    +0.000 A 
ATOM     32  C   UNL     1       3.040   5.031  19.005  0.00  0.00    +0.000 A 
ATOM     33  C   UNL     1       4.126   5.804  18.574  0.00  0.00    +0.000 A 
ENDBRANCH  21  24
ENDBRANCH  19  20
ENDBRANCH  18  19
ENDBRANCH   1  18
TORSDOF 11
ENDMDL
MODEL 4
REMARK VINA RESULT:      -7.2      3.819      6.900
REMARK  Name = 
REMARK  12 active torsions:
REMARK  status: ('A' for Active; 'I' for Inactive)
REMARK    1  A    between atoms: C_1  and  C_2
REMARK    2  A    between atoms: C_2  and  C_3
REMARK    3  A    between atoms: C_3  and  N_4
REMARK    4  A    between atoms: N_4  and  C_5
REMARK    5  A    between atoms: N_4  and  C_22
REMARK    6  A    between atoms: C_5  and  C_6
REMARK    7  A    between atoms: C_6  and  C_7
REMARK    8  A    between atoms: C_7  and  C_8
REMARK    9  A    between atoms: C_8  and  N_9
REMARK   10  A    between atoms: C_10  and  C_12
REMARK   11  A    between atoms: C_22  and  C_23
REMARK   12  A    between atoms: C_25  and  C_26
REMARK                            x       y       z     vdW  Elec       q    Type
REMARK                         _______ _______ _______ _____ _____    ______ ____
ROOT
ATOM      1  C   UNL     1       0.843   9.856  21.447  0.00  0.00    +0.000 C 
ENDROOT
BRANCH   1   2
ATOM      2  C   UNL     1       0.137   9.345  20.176  0.00  0.00    +0.000 C 
BRANCH   2   3
ATOM      3  N   UNL     1       0.468  10.054  18.925  0.00  0.00    +0.000 NA
BRANCH   3   4
ATOM      4  C   UNL     1      -0.528   9.842  17.858  0.00  0.00    +0.000 C 
BRANCH   4   6
ATOM      5  C   UNL     1      -3.086  10.027  17.702  0.00  0.00    +0.000 C 
ATOM      6  C   UNL     1      -1.765  10.762  17.880  0.00  0.00    +0.000 C 
ENDBRANCH   4   6
ENDBRANCH   3   4
BRANCH   3   7
ATOM      7  C   UNL     1       1.832   9.699  18.500  0.00  0.00    +0.000 C 
BRANCH   7   8
ATOM      8  C   UNL     1       1.985   8.289  18.020  0.00  0.00    +0.000 C 
ATOM      9  C   UNL     1       3.270   7.744  17.460  0.00  0.00    +0.000 C 
ATOM     10  C   UNL     1       2.831   7.335  18.845  0.00  0.00    +0.000 C 
BRANCH  10  11
ATOM     11  C   UNL     1       2.336   5.941  19.144  0.00  0.00    +0.000 A 
ATOM     12  C   UNL     1       1.722   5.633  20.372  0.00  0.00    +0.000 A 
ATOM     13  C   UNL     1       1.166   4.372  20.620  0.00  0.00    +0.000 A 
ATOM     14  C   UNL     1       1.215   3.387  19.639  0.00  0.00    +0.000 A 
ATOM     15  C   UNL     1       1.830   3.670  18.428  0.00  0.00    +0.000 A 
ATOM     16  F   UNL     1       1.875   2.729  17.475  0.00  0.00    +0.000 F 
ATOM     17  C   UNL     1       2.383   4.923  18.176  0.00  0.00    +0.000 A 
ENDBRANCH  10  11
ENDBRANCH   7   8
ENDBRANCH   3   7
ENDBRANCH   2   3
ENDBRANCH   1   2
BRANCH   1  18
ATOM     18  C   UNL     1      -0.075   9.908  22.667  0.00  0.00    +0.000 C 
BRANCH  18  19
ATOM     19  C   UNL     1      -0.977  11.133  22.645  0.00  0.00    +0.000 C 
BRANCH  19  20
ATOM     20  N   UNL     1      -0.396  12.199  21.876  0.00  0.00    +0.000 N 
ATOM     21  C   UNL     1      -1.135  12.906  20.957  0.00  0.00    +0.000 C 
ATOM     22  O   UNL     1      -2.334  12.748  20.772  0.00  0.00    +0.000 OA
ATOM     23  H   UNL     1       0.527  12.520  22.131  0.00  0.00    +0.000 HD
BRANCH  21  24
ATOM     24  C   UNL     1      -0.375  13.915  20.181  0.00  0.00    +0.000 A 
ATOM     25  C   UNL     1      -0.880  15.203  19.976  0.00  0.00    +0.000 A 
ATOM     26  C   UNL     1      -0.132  16.136  19.260  0.00  0.00    +0.000 A 
ATOM     27  C   UNL     1       1.133  15.799  18.760  0.00  0.00    +0.000 A 
ATOM     28  C   UNL     1       1.905  16.738  18.062  0.00  0.00    +0.000 A 
ATOM     29  C   UNL     1       3.170  16.396  17.582  0.00  0.00    +0.000 A 
ATOM     30  C   UNL     1       3.674  15.114  17.788  0.00  0.00    +0.000 A 
ATOM     31  C   UNL     1       2.917  14.169  18.479  0.00  0.00    +0.000 A 
ATOM     32  C   UNL     1       1.648  14.500  18.975  0.00  0.00    +0.000 A 
ATOM     33  C   UNL     1       0.885  13.565  19.688  0.00  0.00    +0.000 A 
ENDBRANCH  21  24
ENDBRANCH  19  20
ENDBRANCH  18  19
ENDBRANCH   1  18
TORSDOF 11
ENDMDL
MODEL 5
REMARK VINA RESULT:      -7.1      3.274      4.516
REMARK  Name = 
REMARK  12 active torsions:
REMARK  status: ('A' for Active; 'I' for Inactive)
REMARK    1  A    between atoms: C_1  and  C_2
REMARK    2  A    between atoms: C_2  and  C_3
REMARK    3  A    between atoms: C_3  and  N_4
REMARK    4  A    between atoms: N_4  and  C_5
REMARK    5  A    between atoms: N_4  and  C_22
REMARK    6  A    between atoms: C_5  and  C_6
REMARK    7  A    between atoms: C_6  and  C_7
REMARK    8  A    between atoms: C_7  and  C_8
REMARK    9  A    between atoms: C_8  and  N_9
REMARK   10  A    between atoms: C_10  and  C_12
REMARK   11  A    between atoms: C_22  and  C_23
REMARK   12  A    between atoms: C_25  and  C_26
REMARK                            x       y       z     vdW  Elec       q    Type
REMARK                         _______ _______ _______ _____ _____    ______ ____
ROOT
ATOM      1  C   UNL     1       2.914   5.936  18.781  0.00  0.00    +0.000 C 
ENDROOT
BRANCH   1   2
ATOM      2  C   UNL     1       2.028   4.933  18.019  0.00  0.00    +0.000 C 
BRANCH   2   3
ATOM      3  N   UNL     1       2.616   3.599  17.787  0.00  0.00    +0.000 NA
BRANCH   3   4
ATOM      4  C   UNL     1       2.260   2.620  18.832  0.00  0.00    +0.000 C 
BRANCH   4   6
ATOM      5  C   UNL     1       1.516   2.811  21.284  0.00  0.00    +0.000 C 
ATOM      6  C   UNL     1       1.157   3.043  19.823  0.00  0.00    +0.000 C 
ENDBRANCH   4   6
ENDBRANCH   3   4
BRANCH   3   7
ATOM      7  C   UNL     1       4.072   3.725  17.606  0.00  0.00    +0.000 C 
BRANCH   7   8
ATOM      8  C   UNL     1       4.481   4.569  16.439  0.00  0.00    +0.000 C 
ATOM      9  C   UNL     1       5.354   5.787  16.569  0.00  0.00    +0.000 C 
ATOM     10  C   UNL     1       5.930   4.519  15.986  0.00  0.00    +0.000 C 
BRANCH  10  11
ATOM     11  C   UNL     1       6.266   4.398  14.520  0.00  0.00    +0.000 A 
ATOM     12  C   UNL     1       7.339   5.113  13.956  0.00  0.00    +0.000 A 
ATOM     13  C   UNL     1       7.725   4.929  12.623  0.00  0.00    +0.000 A 
ATOM     14  C   UNL     1       7.041   4.021  11.822  0.00  0.00    +0.000 A 
ATOM     15  C   UNL     1       5.972   3.318  12.358  0.00  0.00    +0.000 A 
ATOM     16  F   UNL     1       5.314   2.436  11.594  0.00  0.00    +0.000 F 
ATOM     17  C   UNL     1       5.586   3.497  13.684  0.00  0.00    +0.000 A 
ENDBRANCH  10  11
ENDBRANCH   7   8
ENDBRANCH   3   7
ENDBRANCH   2   3
ENDBRANCH   1   2
BRANCH   1  18
ATOM     18  C   UNL     1       2.113   6.960  19.584  0.00  0.00    +0.000 C 
BRANCH  18  19
ATOM     19  C   UNL     1       2.403   8.384  19.136  0.00  0.00    +0.000 C 
BRANCH  19  20
ATOM     20  N   UNL     1       1.192   9.109  18.871  0.00  0.00    +0.000 N 
ATOM     21  C   UNL     1       0.559   9.834  19.853  0.00  0.00    +0.000 C 
ATOM     22  O   UNL     1       0.999   9.986  20.985  0.00  0.00    +0.000 OA
ATOM     23  H   UNL     1       0.892   9.199  17.910  0.00  0.00    +0.000 HD
BRANCH  21  24
ATOM     24  C   UNL     1      -0.725  10.454  19.450  0.00  0.00    +0.000 A 
ATOM     25  C   UNL     1      -1.282  11.509  20.181  0.00  0.00    +0.000 A 
ATOM     26  C   UNL     1      -2.481  12.085  19.764  0.00  0.00    +0.000 A 
ATOM     27  C   UNL     1      -3.123  11.629  18.604  0.00  0.00    +0.000 A 
ATOM     28  C   UNL     1      -4.315  12.218  18.161  0.00  0.00    +0.000 A 
ATOM     29  C   UNL     1      -4.937  11.766  16.996  0.00  0.00    +0.000 A 
ATOM     30  C   UNL     1      -4.381  10.717  16.268  0.00  0.00    +0.000 A 
ATOM     31  C   UNL     1      -3.197  10.119  16.697  0.00  0.00    +0.000 A 
ATOM     32  C   UNL     1      -2.555  10.569  17.860  0.00  0.00    +0.000 A 
ATOM     33  C   UNL     1      -1.354   9.989  18.292  0.00  0.00    +0.000 A 
ENDBRANCH  21  24
ENDBRANCH  19  20
ENDBRANCH  18  19
ENDBRANCH   1  18
TORSDOF 11
ENDMDL
MODEL 6
REMARK VINA RESULT:      -7.1      3.479      9.524
REMARK  Name = 
REMARK  12 active torsions:
REMARK  status: ('A' for Active; 'I' for Inactive)
REMARK    1  A    between atoms: C_1  and  C_2
REMARK    2  A    between atoms: C_2  and  C_3
REMARK    3  A    between atoms: C_3  and  N_4
REMARK    4  A    between atoms: N_4  and  C_5
REMARK    5  A    between atoms: N_4  and  C_22
REMARK    6  A    between atoms: C_5  and  C_6
REMARK    7  A    between atoms: C_6  and  C_7
REMARK    8  A    between atoms: C_7  and  C_8
REMARK    9  A    between atoms: C_8  and  N_9
REMARK   10  A    between atoms: C_10  and  C_12
REMARK   11  A    between atoms: C_22  and  C_23
REMARK   12  A    between atoms: C_25  and  C_26
REMARK                            x       y       z     vdW  Elec       q    Type
REMARK                         _______ _______ _______ _____ _____    ______ ____
ROOT
ATOM      1  C   UNL     1       3.132   6.123  19.368  0.00  0.00    +0.000 C 
ENDROOT
BRANCH   1   2
ATOM      2  C   UNL     1       2.015   7.084  18.914  0.00  0.00    +0.000 C 
BRANCH   2   3
ATOM      3  N   UNL     1       1.875   8.326  19.698  0.00  0.00    +0.000 NA
BRANCH   3   4
ATOM      4  C   UNL     1       0.994   8.174  20.872  0.00  0.00    +0.000 C 
BRANCH   4   6
ATOM      5  C   UNL     1       0.214   9.433  22.971  0.00  0.00    +0.000 C 
ATOM      6  C   UNL     1       1.396   8.957  22.138  0.00  0.00    +0.000 C 
ENDBRANCH   4   6
ENDBRANCH   3   4
BRANCH   3   7
ATOM      7  C   UNL     1       1.450   9.424  18.814  0.00  0.00    +0.000 C 
BRANCH   7   8
ATOM      8  C   UNL     1       0.165  10.081  19.214  0.00  0.00    +0.000 C 
ATOM      9  C   UNL     1       0.078  11.512  19.666  0.00  0.00    +0.000 C 
ATOM     10  C   UNL     1      -0.422  11.135  18.293  0.00  0.00    +0.000 C 
BRANCH  10  11
ATOM     11  C   UNL     1      -1.894  11.120  17.957  0.00  0.00    +0.000 A 
ATOM     12  C   UNL     1      -2.848  11.667  18.836  0.00  0.00    +0.000 A 
ATOM     13  C   UNL     1      -4.202  11.753  18.489  0.00  0.00    +0.000 A 
ATOM     14  C   UNL     1      -4.631  11.289  17.250  0.00  0.00    +0.000 A 
ATOM     15  C   UNL     1      -3.705  10.735  16.378  0.00  0.00    +0.000 A 
ATOM     16  F   UNL     1      -4.110  10.294  15.179  0.00  0.00    +0.000 F 
ATOM     17  C   UNL     1      -2.357  10.649  16.718  0.00  0.00    +0.000 A 
ENDBRANCH  10  11
ENDBRANCH   7   8
ENDBRANCH   3   7
ENDBRANCH   2   3
ENDBRANCH   1   2
BRANCH   1  18
ATOM     18  C   UNL     1       2.608   4.907  20.129  0.00  0.00    +0.000 C 
BRANCH  18  19
ATOM     19  C   UNL     1       3.121   3.604  19.536  0.00  0.00    +0.000 C 
BRANCH  19  20
ATOM     20  N   UNL     1       3.879   3.834  18.338  0.00  0.00    +0.000 N 
ATOM     21  C   UNL     1       5.229   4.092  18.381  0.00  0.00    +0.000 C 
ATOM     22  O   UNL     1       5.899   4.073  19.404  0.00  0.00    +0.000 OA
ATOM     23  H   UNL     1       3.431   3.654  17.450  0.00  0.00    +0.000 HD
BRANCH  21  24
ATOM     24  C   UNL     1       5.854   4.396  17.072  0.00  0.00    +0.000 A 
ATOM     25  C   UNL     1       6.977   5.224  16.979  0.00  0.00    +0.000 A 
ATOM     26  C   UNL     1       7.555   5.473  15.735  0.00  0.00    +0.000 A 
ATOM     27  C   UNL     1       7.032   4.882  14.577  0.00  0.00    +0.000 A 
ATOM     28  C   UNL     1       7.621   5.104  13.325  0.00  0.00    +0.000 A 
ATOM     29  C   UNL     1       7.100   4.497  12.181  0.00  0.00    +0.000 A 
ATOM     30  C   UNL     1       5.983   3.670  12.274  0.00  0.00    +0.000 A 
ATOM     31  C   UNL     1       5.385   3.441  13.512  0.00  0.00    +0.000 A 
ATOM     32  C   UNL     1       5.902   4.036  14.672  0.00  0.00    +0.000 A 
ATOM     33  C   UNL     1       5.322   3.799  15.926  0.00  0.00    +0.000 A 
ENDBRANCH  21  24
ENDBRANCH  19  20
ENDBRANCH  18  19
ENDBRANCH   1  18
TORSDOF 11
ENDMDL
MODEL 7
REMARK VINA RESULT:      -7.0      3.959     10.537
REMARK  Name = 
REMARK  12 active torsions:
REMARK  status: ('A' for Active; 'I' for Inactive)
REMARK    1  A    between atoms: C_1  and  C_2
REMARK    2  A    between atoms: C_2  and  C_3
REMARK    3  A    between atoms: C_3  and  N_4
REMARK    4  A    between atoms: N_4  and  C_5
REMARK    5  A    between atoms: N_4  and  C_22
REMARK    6  A    between atoms: C_5  and  C_6
REMARK    7  A    between atoms: C_6  and  C_7
REMARK    8  A    between atoms: C_7  and  C_8
REMARK    9  A    between atoms: C_8  and  N_9
REMARK   10  A    between atoms: C_10  and  C_12
REMARK   11  A    between atoms: C_22  and  C_23
REMARK   12  A    between atoms: C_25  and  C_26
REMARK                            x       y       z     vdW  Elec       q    Type
REMARK                         _______ _______ _______ _____ _____    ______ ____
ROOT
ATOM      1  C   UNL     1       0.861   9.838  19.664  0.00  0.00    +0.000 C 
ENDROOT
BRANCH   1   2
ATOM      2  C   UNL     1      -0.266  10.284  18.713  0.00  0.00    +0.000 C 
BRANCH   2   3
ATOM      3  N   UNL     1      -1.403  10.982  19.344  0.00  0.00    +0.000 NA
BRANCH   3   4
ATOM      4  C   UNL     1      -2.395  11.473  18.368  0.00  0.00    +0.000 C 
BRANCH   4   6
ATOM      5  C   UNL     1      -4.832  11.015  17.696  0.00  0.00    +0.000 C 
ATOM      6  C   UNL     1      -3.431  10.446  17.866  0.00  0.00    +0.000 C 
ENDBRANCH   4   6
ENDBRANCH   3   4
BRANCH   3   7
ATOM      7  C   UNL     1      -0.901  12.052  20.223  0.00  0.00    +0.000 C 
BRANCH   7   8
ATOM      8  C   UNL     1      -1.495  12.054  21.598  0.00  0.00    +0.000 C 
ATOM      9  C   UNL     1      -1.079  13.020  22.673  0.00  0.00    +0.000 C 
ATOM     10  C   UNL     1      -2.411  13.200  21.986  0.00  0.00    +0.000 C 
BRANCH  10  11
ATOM     11  C   UNL     1      -3.716  12.928  22.694  0.00  0.00    +0.000 A 
ATOM     12  C   UNL     1      -3.745  12.547  24.048  0.00  0.00    +0.000 A 
ATOM     13  C   UNL     1      -4.951  12.393  24.743  0.00  0.00    +0.000 A 
ATOM     14  C   UNL     1      -6.160  12.618  24.091  0.00  0.00    +0.000 A 
ATOM     15  C   UNL     1      -6.149  12.981  22.752  0.00  0.00    +0.000 A 
ATOM     16  F   UNL     1      -7.309  13.206  22.121  0.00  0.00    +0.000 F 
ATOM     17  C   UNL     1      -4.951  13.136  22.058  0.00  0.00    +0.000 A 
ENDBRANCH  10  11
ENDBRANCH   7   8
ENDBRANCH   3   7
ENDBRANCH   2   3
ENDBRANCH   1   2
BRANCH   1  18
ATOM     18  C   UNL     1       0.361   9.006  20.843  0.00  0.00    +0.000 C 
BRANCH  18  19
ATOM     19  C   UNL     1       1.446   8.092  21.392  0.00  0.00    +0.000 C 
BRANCH  19  20
ATOM     20  N   UNL     1       2.118   7.383  20.338  0.00  0.00    +0.000 N 
ATOM     21  C   UNL     1       1.978   6.024  20.183  0.00  0.00    +0.000 C 
ATOM     22  O   UNL     1       1.231   5.330  20.858  0.00  0.00    +0.000 OA
ATOM     23  H   UNL     1       2.579   7.925  19.620  0.00  0.00    +0.000 HD
BRANCH  21  24
ATOM     24  C   UNL     1       2.803   5.425  19.107  0.00  0.00    +0.000 A 
ATOM     25  C   UNL     1       2.873   4.039  18.934  0.00  0.00    +0.000 A 
ATOM     26  C   UNL     1       3.640   3.506  17.899  0.00  0.00    +0.000 A 
ATOM     27  C   UNL     1       4.327   4.351  17.016  0.00  0.00    +0.000 A 
ATOM     28  C   UNL     1       5.080   3.828  15.956  0.00  0.00    +0.000 A 
ATOM     29  C   UNL     1       5.746   4.680  15.074  0.00  0.00    +0.000 A 
ATOM     30  C   UNL     1       5.674   6.060  15.245  0.00  0.00    +0.000 A 
ATOM     31  C   UNL     1       4.931   6.596  16.296  0.00  0.00    +0.000 A 
ATOM     32  C   UNL     1       4.248   5.753  17.185  0.00  0.00    +0.000 A 
ATOM     33  C   UNL     1       3.481   6.280  18.234  0.00  0.00    +0.000 A 
ENDBRANCH  21  24
ENDBRANCH  19  20
ENDBRANCH  18  19
ENDBRANCH   1  18
TORSDOF 11
ENDMDL
MODEL 8
REMARK VINA RESULT:      -7.0      2.375      3.615
REMARK  Name = 
REMARK  12 active torsions:
REMARK  status: ('A' for Active; 'I' for Inactive)
REMARK    1  A    between atoms: C_1  and  C_2
REMARK    2  A    between atoms: C_2  and  C_3
REMARK    3  A    between atoms: C_3  and  N_4
REMARK    4  A    between atoms: N_4  and  C_5
REMARK    5  A    between atoms: N_4  and  C_22
REMARK    6  A    between atoms: C_5  and  C_6
REMARK    7  A    between atoms: C_6  and  C_7
REMARK    8  A    between atoms: C_7  and  C_8
REMARK    9  A    between atoms: C_8  and  N_9
REMARK   10  A    between atoms: C_10  and  C_12
REMARK   11  A    between atoms: C_22  and  C_23
REMARK   12  A    between atoms: C_25  and  C_26
REMARK                            x       y       z     vdW  Elec       q    Type
REMARK                         _______ _______ _______ _____ _____    ______ ____
ROOT
ATOM      1  C   UNL     1       3.362   3.100  21.031  0.00  0.00    +0.000 C 
ENDROOT
BRANCH   1   2
ATOM      2  C   UNL     1       3.879   2.669  19.645  0.00  0.00    +0.000 C 
BRANCH   2   3
ATOM      3  N   UNL     1       3.672   3.637  18.550  0.00  0.00    +0.000 NA
BRANCH   3   4
ATOM      4  C   UNL     1       2.722   3.161  17.527  0.00  0.00    +0.000 C 
BRANCH   4   6
ATOM      5  C   UNL     1       0.523   2.447  18.649  0.00  0.00    +0.000 C 
ATOM      6  C   UNL     1       1.232   3.473  17.776  0.00  0.00    +0.000 C 
ENDBRANCH   4   6
ENDBRANCH   3   4
BRANCH   3   7
ATOM      7  C   UNL     1       4.973   4.020  17.975  0.00  0.00    +0.000 C 
BRANCH   7   8
ATOM      8  C   UNL     1       4.891   4.645  16.617  0.00  0.00    +0.000 C 
ATOM      9  C   UNL     1       5.141   6.106  16.366  0.00  0.00    +0.000 C 
ATOM     10  C   UNL     1       6.180   5.093  15.951  0.00  0.00    +0.000 C 
BRANCH  10  11
ATOM     11  C   UNL     1       6.441   4.770  14.500  0.00  0.00    +0.000 A 
ATOM     12  C   UNL     1       7.486   5.391  13.791  0.00  0.00    +0.000 A 
ATOM     13  C   UNL     1       7.804   5.023  12.478  0.00  0.00    +0.000 A 
ATOM     14  C   UNL     1       7.077   4.021  11.844  0.00  0.00    +0.000 A 
ATOM     15  C   UNL     1       6.035   3.408  12.524  0.00  0.00    +0.000 A 
ATOM     16  F   UNL     1       5.336   2.436  11.922  0.00  0.00    +0.000 F 
ATOM     17  C   UNL     1       5.717   3.770  13.831  0.00  0.00    +0.000 A 
ENDBRANCH  10  11
ENDBRANCH   7   8
ENDBRANCH   3   7
ENDBRANCH   2   3
ENDBRANCH   1   2
BRANCH   1  18
ATOM     18  C   UNL     1       2.235   4.129  20.960  0.00  0.00    +0.000 C 
BRANCH  18  19
ATOM     19  C   UNL     1       2.744   5.500  20.543  0.00  0.00    +0.000 C 
BRANCH  19  20
ATOM     20  N   UNL     1       1.893   6.549  21.032  0.00  0.00    +0.000 N 
ATOM     21  C   UNL     1       1.711   7.715  20.326  0.00  0.00    +0.000 C 
ATOM     22  O   UNL     1       2.181   7.925  19.215  0.00  0.00    +0.000 OA
ATOM     23  H   UNL     1       1.312   6.353  21.835  0.00  0.00    +0.000 HD
BRANCH  21  24
ATOM     24  C   UNL     1       0.876   8.736  21.001  0.00  0.00    +0.000 A 
ATOM     25  C   UNL     1       0.771   8.781  22.394  0.00  0.00    +0.000 A 
ATOM     26  C   UNL     1      -0.005   9.768  23.001  0.00  0.00    +0.000 A 
ATOM     27  C   UNL     1      -0.666  10.729  22.223  0.00  0.00    +0.000 A 
ATOM     28  C   UNL     1      -1.428  11.741  22.823  0.00  0.00    +0.000 A 
ATOM     29  C   UNL     1      -2.069  12.702  22.039  0.00  0.00    +0.000 A 
ATOM     30  C   UNL     1      -1.962  12.658  20.652  0.00  0.00    +0.000 A 
ATOM     31  C   UNL     1      -1.210  11.657  20.040  0.00  0.00    +0.000 A 
ATOM     32  C   UNL     1      -0.552  10.689  20.814  0.00  0.00    +0.000 A 
ATOM     33  C   UNL     1       0.223   9.688  20.213  0.00  0.00    +0.000 A 
ENDBRANCH  21  24
ENDBRANCH  19  20
ENDBRANCH  18  19
ENDBRANCH   1  18
TORSDOF 11
ENDMDL
MODEL 9
REMARK VINA RESULT:      -7.0      3.612      4.842
REMARK  Name = 
REMARK  12 active torsions:
REMARK  status: ('A' for Active; 'I' for Inactive)
REMARK    1  A    between atoms: C_1  and  C_2
REMARK    2  A    between atoms: C_2  and  C_3
REMARK    3  A    between atoms: C_3  and  N_4
REMARK    4  A    between atoms: N_4  and  C_5
REMARK    5  A    between atoms: N_4  and  C_22
REMARK    6  A    between atoms: C_5  and  C_6
REMARK    7  A    between atoms: C_6  and  C_7
REMARK    8  A    between atoms: C_7  and  C_8
REMARK    9  A    between atoms: C_8  and  N_9
REMARK   10  A    between atoms: C_10  and  C_12
REMARK   11  A    between atoms: C_22  and  C_23
REMARK   12  A    between atoms: C_25  and  C_26
REMARK                            x       y       z     vdW  Elec       q    Type
REMARK                         _______ _______ _______ _____ _____    ______ ____
ROOT
ATOM      1  C   UNL     1       2.056   7.036  18.239  0.00  0.00    +0.000 C 
ENDROOT
BRANCH   1   2
ATOM      2  C   UNL     1       3.194   6.172  18.815  0.00  0.00    +0.000 C 
BRANCH   2   3
ATOM      3  N   UNL     1       4.078   5.527  17.825  0.00  0.00    +0.000 NA
BRANCH   3   4
ATOM      4  C   UNL     1       3.688   4.139  17.517  0.00  0.00    +0.000 C 
BRANCH   4   6
ATOM      5  C   UNL     1       2.030   2.240  18.019  0.00  0.00    +0.000 C 
ATOM      6  C   UNL     1       2.821   3.419  18.570  0.00  0.00    +0.000 C 
ENDBRANCH   4   6
ENDBRANCH   3   4
BRANCH   3   7
ATOM      7  C   UNL     1       5.478   5.632  18.270  0.00  0.00    +0.000 C 
BRANCH   7   8
ATOM      8  C   UNL     1       6.489   5.516  17.171  0.00  0.00    +0.000 C 
ATOM      9  C   UNL     1       7.663   4.578  17.228  0.00  0.00    +0.000 C 
ATOM     10  C   UNL     1       6.495   4.253  16.328  0.00  0.00    +0.000 C 
BRANCH  10  11
ATOM     11  C   UNL     1       6.599   4.340  14.825  0.00  0.00    +0.000 A 
ATOM     12  C   UNL     1       7.590   5.125  14.207  0.00  0.00    +0.000 A 
ATOM     13  C   UNL     1       7.761   5.131  12.817  0.00  0.00    +0.000 A 
ATOM     14  C   UNL     1       6.939   4.347  12.014  0.00  0.00    +0.000 A 
ATOM     15  C   UNL     1       5.949   3.578  12.607  0.00  0.00    +0.000 A 
ATOM     16  F   UNL     1       5.158   2.815  11.840  0.00  0.00    +0.000 F 
ATOM     17  C   UNL     1       5.775   3.568  13.989  0.00  0.00    +0.000 A 
ENDBRANCH  10  11
ENDBRANCH   7   8
ENDBRANCH   3   7
ENDBRANCH   2   3
ENDBRANCH   1   2
BRANCH   1  18
ATOM     18  C   UNL     1       2.556   8.238  17.440  0.00  0.00    +0.000 C 
BRANCH  18  19
ATOM     19  C   UNL     1       2.245   9.552  18.139  0.00  0.00    +0.000 C 
BRANCH  19  20
ATOM     20  N   UNL     1       0.923  10.016  17.823  0.00  0.00    +0.000 N 
ATOM     21  C   UNL     1      -0.071  10.054  18.772  0.00  0.00    +0.000 C 
ATOM     22  O   UNL     1       0.096   9.778  19.952  0.00  0.00    +0.000 OA
ATOM     23  H   UNL     1       0.776  10.456  16.925  0.00  0.00    +0.000 HD
BRANCH  21  24
ATOM     24  C   UNL     1      -1.403  10.472  18.273  0.00  0.00    +0.000 A 
ATOM     25  C   UNL     1      -1.860  10.080  17.011  0.00  0.00    +0.000 A 
ATOM     26  C   UNL     1      -3.126  10.472  16.578  0.00  0.00    +0.000 A 
ATOM     27  C   UNL     1      -3.954  11.240  17.409  0.00  0.00    +0.000 A 
ATOM     28  C   UNL     1      -5.239  11.618  16.995  0.00  0.00    +0.000 A 
ATOM     29  C   UNL     1      -6.060  12.369  17.837  0.00  0.00    +0.000 A 
ATOM     30  C   UNL     1      -5.606  12.757  19.095  0.00  0.00    +0.000 A 
ATOM     31  C   UNL     1      -4.329  12.391  19.519  0.00  0.00    +0.000 A 
ATOM     32  C   UNL     1      -3.495  11.628  18.689  0.00  0.00    +0.000 A 
ATOM     33  C   UNL     1      -2.218  11.237  19.112  0.00  0.00    +0.000 A 
ENDBRANCH  21  24
ENDBRANCH  19  20
ENDBRANCH  18  19
ENDBRANCH   1  18
TORSDOF 11
ENDMDL
