MODEL 1
REMARK VINA RESULT:      -8.5      0.000      0.000
REMARK  Name = 
REMARK  7 active torsions:
REMARK  status: ('A' for Active; 'I' for Inactive)
REMARK    1  A    between atoms: C_2  and  O_3
REMARK    2  A    between atoms: C_2  and  C_11
REMARK    3  A    between atoms: O_3  and  C_4
REMARK    4  A    between atoms: C_4  and  C_5
REMARK    5  A    between atoms: C_14  and  N_15
REMARK    6  A    between atoms: N_15  and  C_16
REMARK    7  A    between atoms: C_19  and  N_20
REMARK                            x       y       z     vdW  Elec       q    Type
REMARK                         _______ _______ _______ _____ _____    ______ ____
ROOT
ATOM      1  C   UNL     1       2.939   5.025  18.211  0.00  0.00    +0.000 A 
ATOM      2  C   UNL     1       2.379   4.675  19.446  0.00  0.00    +0.000 A 
ATOM      3  C   UNL     1       1.989   5.667  20.356  0.00  0.00    +0.000 A 
ATOM      4  C   UNL     1       2.161   7.025  20.054  0.00  0.00    +0.000 A 
ATOM      5  C   UNL     1       2.717   7.363  18.814  0.00  0.00    +0.000 A 
ATOM      6  C   UNL     1       3.103   6.378  17.899  0.00  0.00    +0.000 A 
ENDROOT
BRANCH   1   8
ATOM      7  O   UNL     1       2.917   2.794  17.350  0.00  0.00    +0.000 OA
ATOM      8  C   UNL     1       3.331   3.939  17.268  0.00  0.00    +0.000 C 
BRANCH   8   9
ATOM      9  O   UNL     1       4.187   4.419  16.336  0.00  0.00    +0.000 OA
BRANCH   9  10
ATOM     10  C   UNL     1       5.545   3.967  16.409  0.00  0.00    +0.000 C 
BRANCH  10  11
ATOM     11  C   UNL     1       6.350   5.008  17.143  0.00  0.00    +0.000 A 
ATOM     12  C   UNL     1       6.604   6.259  16.563  0.00  0.00    +0.000 A 
ATOM     13  C   UNL     1       7.387   7.204  17.228  0.00  0.00    +0.000 A 
ATOM     14  C   UNL     1       7.929   6.905  18.476  0.00  0.00    +0.000 A 
ATOM     15  C   UNL     1       7.686   5.665  19.063  0.00  0.00    +0.000 A 
ATOM     16  C   UNL     1       6.902   4.718  18.399  0.00  0.00    +0.000 A 
ENDBRANCH  10  11
ENDBRANCH   9  10
ENDBRANCH   8   9
ENDBRANCH   1   8
BRANCH   4  17
ATOM     17  N   UNL     1       1.767   8.014  20.976  0.00  0.00    +0.000 N 
ATOM     18  H   UNL     1       2.472   8.214  21.681  0.00  0.00    +0.000 HD
BRANCH  17  19
ATOM     19  C   UNL     1       0.903   9.115  20.759  0.00  0.00    +0.000 A 
ATOM     20  C   UNL     1       0.621   9.504  19.424  0.00  0.00    +0.000 A 
ATOM     21  C   UNL     1      -0.213  10.597  19.074  0.00  0.00    +0.000 A 
ATOM     22  C   UNL     1      -0.851  11.393  20.049  0.00  0.00    +0.000 A 
ATOM     23  C   UNL     1      -0.613  11.055  21.394  0.00  0.00    +0.000 A 
ATOM     24  N   UNL     1      -1.052  11.589  22.542  0.00  0.00    +0.000 NA
ATOM     25  O   UNL     1      -0.511  10.838  23.561  0.00  0.00    +0.000 OA
ATOM     26  N   UNL     1       0.275   9.818  23.077  0.00  0.00    +0.000 NA
ATOM     27  C   UNL     1       0.257   9.923  21.741  0.00  0.00    +0.000 A 
BRANCH  22  28
ATOM     28  N   UNL     1      -1.718  12.496  19.681  0.00  0.00    +0.000 N 
ATOM     29  O   UNL     1      -1.273  13.638  19.864  0.00  0.00    +0.000 OA
ATOM     30  O   UNL     1      -2.833  12.254  19.207  0.00  0.00    +0.000 OA
ENDBRANCH  22  28
ENDBRANCH  17  19
ENDBRANCH   4  17
TORSDOF 7
ENDMDL
MODEL 2
REMARK VINA RESULT:      -8.4      0.600      1.219
REMARK  Name = 
REMARK  7 active torsions:
REMARK  status: ('A' for Active; 'I' for Inactive)
REMARK    1  A    between atoms: C_2  and  O_3
REMARK    2  A    between atoms: C_2  and  C_11
REMARK    3  A    between atoms: O_3  and  C_4
REMARK    4  A    between atoms: C_4  and  C_5
REMARK    5  A    between atoms: C_14  and  N_15
REMARK    6  A    between atoms: N_15  and  C_16
REMARK    7  A    between atoms: C_19  and  N_20
REMARK                            x       y       z     vdW  Elec       q    Type
REMARK                         _______ _______ _______ _____ _____    ______ ____
ROOT
ATOM      1  C   UNL     1       3.385   4.785  18.172  0.00  0.00    +0.000 A 
ATOM      2  C   UNL     1       2.736   4.334  19.327  0.00  0.00    +0.000 A 
ATOM      3  C   UNL     1       2.205   5.250  20.247  0.00  0.00    +0.000 A 
ATOM      4  C   UNL     1       2.322   6.630  20.034  0.00  0.00    +0.000 A 
ATOM      5  C   UNL     1       2.969   7.069  18.872  0.00  0.00    +0.000 A 
ATOM      6  C   UNL     1       3.496   6.160  17.948  0.00  0.00    +0.000 A 
ENDROOT
BRANCH   1   8
ATOM      7  O   UNL     1       3.753   2.576  17.333  0.00  0.00    +0.000 OA
ATOM      8  C   UNL     1       3.927   3.778  17.215  0.00  0.00    +0.000 C 
BRANCH   8   9
ATOM      9  O   UNL     1       4.614   4.397  16.228  0.00  0.00    +0.000 OA
BRANCH   9  10
ATOM     10  C   UNL     1       6.017   4.118  16.140  0.00  0.00    +0.000 C 
BRANCH  10  11
ATOM     11  C   UNL     1       6.753   5.124  16.988  0.00  0.00    +0.000 A 
ATOM     12  C   UNL     1       7.295   4.757  18.228  0.00  0.00    +0.000 A 
ATOM     13  C   UNL     1       7.936   5.703  19.029  0.00  0.00    +0.000 A 
ATOM     14  C   UNL     1       8.037   7.025  18.602  0.00  0.00    +0.000 A 
ATOM     15  C   UNL     1       7.501   7.403  17.373  0.00  0.00    +0.000 A 
ATOM     16  C   UNL     1       6.859   6.458  16.569  0.00  0.00    +0.000 A 
ENDBRANCH  10  11
ENDBRANCH   9  10
ENDBRANCH   8   9
ENDBRANCH   1   8
BRANCH   4  17
ATOM     17  N   UNL     1       1.786   7.541  20.964  0.00  0.00    +0.000 N 
ATOM     18  H   UNL     1       2.262   7.530  21.862  0.00  0.00    +0.000 HD
BRANCH  17  19
ATOM     19  C   UNL     1       1.164   8.787  20.706  0.00  0.00    +0.000 A 
ATOM     20  C   UNL     1       1.091   9.246  19.366  0.00  0.00    +0.000 A 
ATOM     21  C   UNL     1       0.510  10.481  18.979  0.00  0.00    +0.000 A 
ATOM     22  C   UNL     1      -0.065  11.363  19.917  0.00  0.00    +0.000 A 
ATOM     23  C   UNL     1      -0.029  10.963  21.265  0.00  0.00    +0.000 A 
ATOM     24  N   UNL     1      -0.475  11.548  22.386  0.00  0.00    +0.000 NA
ATOM     25  O   UNL     1      -0.183  10.691  23.423  0.00  0.00    +0.000 OA
ATOM     26  N   UNL     1       0.447   9.553  22.979  0.00  0.00    +0.000 NA
ATOM     27  C   UNL     1       0.582   9.683  21.652  0.00  0.00    +0.000 A 
BRANCH  22  28
ATOM     28  N   UNL     1      -0.676  12.614  19.509  0.00  0.00    +0.000 N 
ATOM     29  O   UNL     1      -1.805  12.542  19.002  0.00  0.00    +0.000 OA
ATOM     30  O   UNL     1      -0.061  13.671  19.686  0.00  0.00    +0.000 OA
ENDBRANCH  22  28
ENDBRANCH  17  19
ENDBRANCH   4  17
TORSDOF 7
ENDMDL
MODEL 3
REMARK VINA RESULT:      -8.4      2.313      4.138
REMARK  Name = 
REMARK  7 active torsions:
REMARK  status: ('A' for Active; 'I' for Inactive)
REMARK    1  A    between atoms: C_2  and  O_3
REMARK    2  A    between atoms: C_2  and  C_11
REMARK    3  A    between atoms: O_3  and  C_4
REMARK    4  A    between atoms: C_4  and  C_5
REMARK    5  A    between atoms: C_14  and  N_15
REMARK    6  A    between atoms: N_15  and  C_16
REMARK    7  A    between atoms: C_19  and  N_20
REMARK                            x       y       z     vdW  Elec       q    Type
REMARK                         _______ _______ _______ _____ _____    ______ ____
ROOT
ATOM      1  C   UNL     1       3.209   6.740  18.369  0.00  0.00    +0.000 A 
ATOM      2  C   UNL     1       3.095   7.825  17.492  0.00  0.00    +0.000 A 
ATOM      3  C   UNL     1       2.327   8.944  17.842  0.00  0.00    +0.000 A 
ATOM      4  C   UNL     1       1.650   8.995  19.068  0.00  0.00    +0.000 A 
ATOM      5  C   UNL     1       1.776   7.906  19.940  0.00  0.00    +0.000 A 
ATOM      6  C   UNL     1       2.545   6.789  19.599  0.00  0.00    +0.000 A 
ENDROOT
BRANCH   1   8
ATOM      7  O   UNL     1       5.233   5.475  18.218  0.00  0.00    +0.000 OA
ATOM      8  C   UNL     1       4.043   5.572  17.963  0.00  0.00    +0.000 C 
BRANCH   8   9
ATOM      9  O   UNL     1       3.288   4.670  17.296  0.00  0.00    +0.000 OA
BRANCH   9  10
ATOM     10  C   UNL     1       3.401   3.301  17.705  0.00  0.00    +0.000 C 
BRANCH  10  11
ATOM     11  C   UNL     1       2.704   3.145  19.031  0.00  0.00    +0.000 A 
ATOM     12  C   UNL     1       3.422   2.783  20.180  0.00  0.00    +0.000 A 
ATOM     13  C   UNL     1       2.764   2.596  21.397  0.00  0.00    +0.000 A 
ATOM     14  C   UNL     1       1.383   2.763  21.477  0.00  0.00    +0.000 A 
ATOM     15  C   UNL     1       0.659   3.120  20.342  0.00  0.00    +0.000 A 
ATOM     16  C   UNL     1       1.314   3.308  19.123  0.00  0.00    +0.000 A 
ENDBRANCH  10  11
ENDBRANCH   9  10
ENDBRANCH   8   9
ENDBRANCH   1   8
BRANCH   4  17
ATOM     17  N   UNL     1       0.881  10.123  19.409  0.00  0.00    +0.000 N 
ATOM     18  H   UNL     1       1.438  10.955  19.586  0.00  0.00    +0.000 HD
BRANCH  17  19
ATOM     19  C   UNL     1      -0.434  10.442  18.991  0.00  0.00    +0.000 A 
ATOM     20  C   UNL     1      -0.961   9.788  17.847  0.00  0.00    +0.000 A 
ATOM     21  C   UNL     1      -2.255  10.030  17.318  0.00  0.00    +0.000 A 
ATOM     22  C   UNL     1      -3.143  10.952  17.909  0.00  0.00    +0.000 A 
ATOM     23  C   UNL     1      -2.681  11.632  19.051  0.00  0.00    +0.000 A 
ATOM     24  N   UNL     1      -3.255  12.552  19.840  0.00  0.00    +0.000 NA
ATOM     25  O   UNL     1      -2.343  12.853  20.826  0.00  0.00    +0.000 OA
ATOM     26  N   UNL     1      -1.181  12.131  20.680  0.00  0.00    +0.000 NA
ATOM     27  C   UNL     1      -1.336  11.374  19.584  0.00  0.00    +0.000 A 
BRANCH  22  28
ATOM     28  N   UNL     1      -4.472  11.178  17.373  0.00  0.00    +0.000 N 
ATOM     29  O   UNL     1      -4.538  11.718  16.259  0.00  0.00    +0.000 OA
ATOM     30  O   UNL     1      -5.456  10.825  18.032  0.00  0.00    +0.000 OA
ENDBRANCH  22  28
ENDBRANCH  17  19
ENDBRANCH   4  17
TORSDOF 7
ENDMDL
MODEL 4
REMARK VINA RESULT:      -8.3      3.360      9.224
REMARK  Name = 
REMARK  7 active torsions:
REMARK  status: ('A' for Active; 'I' for Inactive)
REMARK    1  A    between atoms: C_2  and  O_3
REMARK    2  A    between atoms: C_2  and  C_11
REMARK    3  A    between atoms: O_3  and  C_4
REMARK    4  A    between atoms: C_4  and  C_5
REMARK    5  A    between atoms: C_14  and  N_15
REMARK    6  A    between atoms: N_15  and  C_16
REMARK    7  A    between atoms: C_19  and  N_20
REMARK                            x       y       z     vdW  Elec       q    Type
REMARK                         _______ _______ _______ _____ _____    ______ ____
ROOT
ATOM      1  C   UNL     1       1.104   9.202  20.174  0.00  0.00    +0.000 A 
ATOM      2  C   UNL     1       1.647   8.894  18.921  0.00  0.00    +0.000 A 
ATOM      3  C   UNL     1       2.310   7.677  18.713  0.00  0.00    +0.000 A 
ATOM      4  C   UNL     1       2.454   6.752  19.756  0.00  0.00    +0.000 A 
ATOM      5  C   UNL     1       1.903   7.069  21.004  0.00  0.00    +0.000 A 
ATOM      6  C   UNL     1       1.235   8.279  21.215  0.00  0.00    +0.000 A 
ENDROOT
BRANCH   1   8
ATOM      7  O   UNL     1       0.407  11.138  21.393  0.00  0.00    +0.000 OA
ATOM      8  C   UNL     1       0.397  10.504  20.350  0.00  0.00    +0.000 C 
BRANCH   8   9
ATOM      9  O   UNL     1      -0.227  10.853  19.202  0.00  0.00    +0.000 OA
BRANCH   9  10
ATOM     10  C   UNL     1      -1.572  11.335  19.316  0.00  0.00    +0.000 C 
BRANCH  10  11
ATOM     11  C   UNL     1      -2.310  10.981  18.051  0.00  0.00    +0.000 A 
ATOM     12  C   UNL     1      -1.748  10.099  17.117  0.00  0.00    +0.000 A 
ATOM     13  C   UNL     1      -2.416   9.809  15.925  0.00  0.00    +0.000 A 
ATOM     14  C   UNL     1      -3.647  10.402  15.654  0.00  0.00    +0.000 A 
ATOM     15  C   UNL     1      -4.214  11.282  16.573  0.00  0.00    +0.000 A 
ATOM     16  C   UNL     1      -3.548  11.573  17.766  0.00  0.00    +0.000 A 
ENDBRANCH  10  11
ENDBRANCH   9  10
ENDBRANCH   8   9
ENDBRANCH   1   8
BRANCH   4  17
ATOM     17  N   UNL     1       3.124   5.533  19.538  0.00  0.00    +0.000 N 
ATOM     18  H   UNL     1       2.581   4.718  19.811  0.00  0.00    +0.000 HD
BRANCH  17  19
ATOM     19  C   UNL     1       4.075   5.227  18.534  0.00  0.00    +0.000 A 
ATOM     20  C   UNL     1       3.624   5.047  17.202  0.00  0.00    +0.000 A 
ATOM     21  C   UNL     1       4.471   4.722  16.111  0.00  0.00    +0.000 A 
ATOM     22  C   UNL     1       5.863   4.560  16.270  0.00  0.00    +0.000 A 
ATOM     23  C   UNL     1       6.375   4.729  17.569  0.00  0.00    +0.000 A 
ATOM     24  N   UNL     1       7.621   4.649  18.059  0.00  0.00    +0.000 NA
ATOM     25  O   UNL     1       7.536   4.928  19.404  0.00  0.00    +0.000 OA
ATOM     26  N   UNL     1       6.241   5.190  19.788  0.00  0.00    +0.000 NA
ATOM     27  C   UNL     1       5.484   5.061  18.689  0.00  0.00    +0.000 A 
BRANCH  22  28
ATOM     28  N   UNL     1       6.725   4.247  15.145  0.00  0.00    +0.000 N 
ATOM     29  O   UNL     1       7.864   4.736  15.165  0.00  0.00    +0.000 OA
ATOM     30  O   UNL     1       6.298   3.521  14.242  0.00  0.00    +0.000 OA
ENDBRANCH  22  28
ENDBRANCH  17  19
ENDBRANCH   4  17
TORSDOF 7
ENDMDL
MODEL 5
REMARK VINA RESULT:      -8.2      0.739      1.255
REMARK  Name = 
REMARK  7 active torsions:
REMARK  status: ('A' for Active; 'I' for Inactive)
REMARK    1  A    between atoms: C_2  and  O_3
REMARK    2  A    between atoms: C_2  and  C_11
REMARK    3  A    between atoms: O_3  and  C_4
REMARK    4  A    between atoms: C_4  and  C_5
REMARK    5  A    between atoms: C_14  and  N_15
REMARK    6  A    between atoms: N_15  and  C_16
REMARK    7  A    between atoms: C_19  and  N_20
REMARK                            x       y       z     vdW  Elec       q    Type
REMARK                         _______ _______ _______ _____ _____    ______ ____
ROOT
ATOM      1  C   UNL     1       3.236   4.525  18.421  0.00  0.00    +0.000 A 
ATOM      2  C   UNL     1       3.733   5.831  18.497  0.00  0.00    +0.000 A 
ATOM      3  C   UNL     1       3.170   6.755  19.388  0.00  0.00    +0.000 A 
ATOM      4  C   UNL     1       2.094   6.395  20.211  0.00  0.00    +0.000 A 
ATOM      5  C   UNL     1       1.609   5.083  20.130  0.00  0.00    +0.000 A 
ATOM      6  C   UNL     1       2.170   4.155  19.247  0.00  0.00    +0.000 A 
ENDROOT
BRANCH   1   8
ATOM      7  O   UNL     1       3.842   2.359  17.610  0.00  0.00    +0.000 OA
ATOM      8  C   UNL     1       3.868   3.570  17.466  0.00  0.00    +0.000 C 
BRANCH   8   9
ATOM      9  O   UNL     1       4.449   4.247  16.448  0.00  0.00    +0.000 OA
BRANCH   9  10
ATOM     10  C   UNL     1       5.855   4.047  16.256  0.00  0.00    +0.000 C 
BRANCH  10  11
ATOM     11  C   UNL     1       6.594   5.080  17.067  0.00  0.00    +0.000 A 
ATOM     12  C   UNL     1       6.703   6.403  16.614  0.00  0.00    +0.000 A 
ATOM     13  C   UNL     1       7.427   7.345  17.348  0.00  0.00    +0.000 A 
ATOM     14  C   UNL     1       8.053   6.973  18.536  0.00  0.00    +0.000 A 
ATOM     15  C   UNL     1       7.953   5.661  18.994  0.00  0.00    +0.000 A 
ATOM     16  C   UNL     1       7.230   4.717  18.262  0.00  0.00    +0.000 A 
ENDBRANCH  10  11
ENDBRANCH   9  10
ENDBRANCH   8   9
ENDBRANCH   1   8
BRANCH   4  17
ATOM     17  N   UNL     1       1.535   7.330  21.102  0.00  0.00    +0.000 N 
ATOM     18  H   UNL     1       1.917   7.272  22.042  0.00  0.00    +0.000 HD
BRANCH  17  19
ATOM     19  C   UNL     1       1.033   8.622  20.811  0.00  0.00    +0.000 A 
ATOM     20  C   UNL     1       1.024   9.059  19.461  0.00  0.00    +0.000 A 
ATOM     21  C   UNL     1       0.564  10.333  19.040  0.00  0.00    +0.000 A 
ATOM     22  C   UNL     1       0.058  11.282  19.951  0.00  0.00    +0.000 A 
ATOM     23  C   UNL     1       0.036  10.908  21.307  0.00  0.00    +0.000 A 
ATOM     24  N   UNL     1      -0.372  11.555  22.409  0.00  0.00    +0.000 NA
ATOM     25  O   UNL     1      -0.177  10.696  23.467  0.00  0.00    +0.000 OA
ATOM     26  N   UNL     1       0.354   9.496  23.056  0.00  0.00    +0.000 NA
ATOM     27  C   UNL     1       0.521   9.586  21.728  0.00  0.00    +0.000 A 
BRANCH  22  28
ATOM     28  N   UNL     1      -0.429  12.575  19.509  0.00  0.00    +0.000 N 
ATOM     29  O   UNL     1      -1.558  12.599  18.997  0.00  0.00    +0.000 OA
ATOM     30  O   UNL     1       0.282  13.573  19.664  0.00  0.00    +0.000 OA
ENDBRANCH  22  28
ENDBRANCH  17  19
ENDBRANCH   4  17
TORSDOF 7
ENDMDL
MODEL 6
REMARK VINA RESULT:      -8.2      2.175      3.450
REMARK  Name = 
REMARK  7 active torsions:
REMARK  status: ('A' for Active; 'I' for Inactive)
REMARK    1  A    between atoms: C_2  and  O_3
REMARK    2  A    between atoms: C_2  and  C_11
REMARK    3  A    between atoms: O_3  and  C_4
REMARK    4  A    between atoms: C_4  and  C_5
REMARK    5  A    between atoms: C_14  and  N_15
REMARK    6  A    between atoms: N_15  and  C_16
REMARK    7  A    between atoms: C_19  and  N_20
REMARK                            x       y       z     vdW  Elec       q    Type
REMARK                         _______ _______ _______ _____ _____    ______ ____
ROOT
ATOM      1  C   UNL     1       2.466   6.843  19.424  0.00  0.00    +0.000 A 
ATOM      2  C   UNL     1       2.561   7.395  18.141  0.00  0.00    +0.000 A 
ATOM      3  C   UNL     1       1.931   8.611  17.842  0.00  0.00    +0.000 A 
ATOM      4  C   UNL     1       1.187   9.292  18.816  0.00  0.00    +0.000 A 
ATOM      5  C   UNL     1       1.104   8.732  20.097  0.00  0.00    +0.000 A 
ATOM      6  C   UNL     1       1.735   7.522  20.403  0.00  0.00    +0.000 A 
ENDROOT
BRANCH   1   8
ATOM      7  O   UNL     1       2.578   4.542  20.066  0.00  0.00    +0.000 OA
ATOM      8  C   UNL     1       3.159   5.552  19.703  0.00  0.00    +0.000 C 
BRANCH   8   9
ATOM      9  O   UNL     1       4.489   5.682  19.489  0.00  0.00    +0.000 OA
BRANCH   9  10
ATOM     10  C   UNL     1       5.223   4.479  19.228  0.00  0.00    +0.000 C 
BRANCH  10  11
ATOM     11  C   UNL     1       5.631   4.480  17.777  0.00  0.00    +0.000 A 
ATOM     12  C   UNL     1       6.947   4.788  17.403  0.00  0.00    +0.000 A 
ATOM     13  C   UNL     1       7.309   4.832  16.055  0.00  0.00    +0.000 A 
ATOM     14  C   UNL     1       6.359   4.573  15.069  0.00  0.00    +0.000 A 
ATOM     15  C   UNL     1       5.048   4.268  15.429  0.00  0.00    +0.000 A 
ATOM     16  C   UNL     1       4.684   4.223  16.776  0.00  0.00    +0.000 A 
ENDBRANCH  10  11
ENDBRANCH   9  10
ENDBRANCH   8   9
ENDBRANCH   1   8
BRANCH   4  17
ATOM     17  N   UNL     1       0.557  10.512  18.505  0.00  0.00    +0.000 N 
ATOM     18  H   UNL     1       1.104  11.104  17.886  0.00  0.00    +0.000 HD
BRANCH  17  19
ATOM     19  C   UNL     1      -0.830  10.779  18.409  0.00  0.00    +0.000 A 
ATOM     20  C   UNL     1      -1.584  10.109  17.411  0.00  0.00    +0.000 A 
ATOM     21  C   UNL     1      -2.973  10.301  17.200  0.00  0.00    +0.000 A 
ATOM     22  C   UNL     1      -3.734  11.184  17.993  0.00  0.00    +0.000 A 
ATOM     23  C   UNL     1      -3.045  11.877  19.005  0.00  0.00    +0.000 A 
ATOM     24  N   UNL     1      -3.455  12.770  19.918  0.00  0.00    +0.000 NA
ATOM     25  O   UNL     1      -2.350  13.104  20.668  0.00  0.00    +0.000 OA
ATOM     26  N   UNL     1      -1.227  12.430  20.247  0.00  0.00    +0.000 NA
ATOM     27  C   UNL     1      -1.604  11.672  19.208  0.00  0.00    +0.000 A 
BRANCH  22  28
ATOM     28  N   UNL     1      -5.159  11.358  17.784  0.00  0.00    +0.000 N 
ATOM     29  O   UNL     1      -5.910  10.605  18.420  0.00  0.00    +0.000 OA
ATOM     30  O   UNL     1      -5.551  12.232  17.004  0.00  0.00    +0.000 OA
ENDBRANCH  22  28
ENDBRANCH  17  19
ENDBRANCH   4  17
TORSDOF 7
ENDMDL
MODEL 7
REMARK VINA RESULT:      -8.2      2.318      3.953
REMARK  Name = 
REMARK  7 active torsions:
REMARK  status: ('A' for Active; 'I' for Inactive)
REMARK    1  A    between atoms: C_2  and  O_3
REMARK    2  A    between atoms: C_2  and  C_11
REMARK    3  A    between atoms: O_3  and  C_4
REMARK    4  A    between atoms: C_4  and  C_5
REMARK    5  A    between atoms: C_14  and  N_15
REMARK    6  A    between atoms: N_15  and  C_16
REMARK    7  A    between atoms: C_19  and  N_20
REMARK                            x       y       z     vdW  Elec       q    Type
REMARK                         _______ _______ _______ _____ _____    ______ ____
ROOT
ATOM      1  C   UNL     1       3.101   6.931  18.241  0.00  0.00    +0.000 A 
ATOM      2  C   UNL     1       2.507   6.862  19.507  0.00  0.00    +0.000 A 
ATOM      3  C   UNL     1       1.724   7.922  19.983  0.00  0.00    +0.000 A 
ATOM      4  C   UNL     1       1.529   9.075  19.209  0.00  0.00    +0.000 A 
ATOM      5  C   UNL     1       2.124   9.130  17.942  0.00  0.00    +0.000 A 
ATOM      6  C   UNL     1       2.902   8.073  17.459  0.00  0.00    +0.000 A 
ENDROOT
BRANCH   1   8
ATOM      7  O   UNL     1       5.138   5.749  17.824  0.00  0.00    +0.000 OA
ATOM      8  C   UNL     1       3.919   5.777  17.768  0.00  0.00    +0.000 C 
BRANCH   8   9
ATOM      9  O   UNL     1       3.114   4.800  17.291  0.00  0.00    +0.000 OA
BRANCH   9  10
ATOM     10  C   UNL     1       3.402   3.460  17.709  0.00  0.00    +0.000 C 
BRANCH  10  11
ATOM     11  C   UNL     1       2.692   3.210  19.015  0.00  0.00    +0.000 A 
ATOM     12  C   UNL     1       1.315   3.446  19.139  0.00  0.00    +0.000 A 
ATOM     13  C   UNL     1       0.671   3.255  20.362  0.00  0.00    +0.000 A 
ATOM     14  C   UNL     1       1.396   2.832  21.474  0.00  0.00    +0.000 A 
ATOM     15  C   UNL     1       2.765   2.595  21.363  0.00  0.00    +0.000 A 
ATOM     16  C   UNL     1       3.412   2.785  20.140  0.00  0.00    +0.000 A 
ENDBRANCH  10  11
ENDBRANCH   9  10
ENDBRANCH   8   9
ENDBRANCH   1   8
BRANCH   4  17
ATOM     17  N   UNL     1       0.742  10.135  19.697  0.00  0.00    +0.000 N 
ATOM     18  H   UNL     1       1.288  10.915  20.051  0.00  0.00    +0.000 HD
BRANCH  17  19
ATOM     19  C   UNL     1      -0.545  10.538  19.263  0.00  0.00    +0.000 A 
ATOM     20  C   UNL     1      -1.096   9.924  18.110  0.00  0.00    +0.000 A 
ATOM     21  C   UNL     1      -2.365  10.250  17.564  0.00  0.00    +0.000 A 
ATOM     22  C   UNL     1      -3.200  11.225  18.148  0.00  0.00    +0.000 A 
ATOM     23  C   UNL     1      -2.711  11.869  19.299  0.00  0.00    +0.000 A 
ATOM     24  N   UNL     1      -3.237  12.820  20.085  0.00  0.00    +0.000 NA
ATOM     25  O   UNL     1      -2.320  13.058  21.084  0.00  0.00    +0.000 OA
ATOM     26  N   UNL     1      -1.205  12.264  20.951  0.00  0.00    +0.000 NA
ATOM     27  C   UNL     1      -1.393  11.524  19.849  0.00  0.00    +0.000 A 
BRANCH  22  28
ATOM     28  N   UNL     1      -4.505  11.537  17.595  0.00  0.00    +0.000 N 
ATOM     29  O   UNL     1      -5.468  11.475  18.374  0.00  0.00    +0.000 OA
ATOM     30  O   UNL     1      -4.596  11.849  16.403  0.00  0.00    +0.000 OA
ENDBRANCH  22  28
ENDBRANCH  17  19
ENDBRANCH   4  17
TORSDOF 7
ENDMDL
MODEL 8
REMARK VINA RESULT:      -8.2      2.090      2.985
REMARK  Name = 
REMARK  7 active torsions:
REMARK  status: ('A' for Active; 'I' for Inactive)
REMARK    1  A    between atoms: C_2  and  O_3
REMARK    2  A    between atoms: C_2  and  C_11
REMARK    3  A    between atoms: O_3  and  C_4
REMARK    4  A    between atoms: C_4  and  C_5
REMARK    5  A    between atoms: C_14  and  N_15
REMARK    6  A    between atoms: N_15  and  C_16
REMARK    7  A    between atoms: C_19  and  N_20
REMARK                            x       y       z     vdW  Elec       q    Type
REMARK                         _______ _______ _______ _____ _____    ______ ____
ROOT
ATOM      1  C   UNL     1       2.451   7.048  19.081  0.00  0.00    +0.000 A 
ATOM      2  C   UNL     1       1.843   7.515  20.252  0.00  0.00    +0.000 A 
ATOM      3  C   UNL     1       1.160   8.739  20.259  0.00  0.00    +0.000 A 
ATOM      4  C   UNL     1       1.081   9.524  19.100  0.00  0.00    +0.000 A 
ATOM      5  C   UNL     1       1.689   9.043  17.932  0.00  0.00    +0.000 A 
ATOM      6  C   UNL     1       2.367   7.821  17.918  0.00  0.00    +0.000 A 
ENDROOT
BRANCH   1   8
ATOM      7  O   UNL     1       3.370   5.112  20.141  0.00  0.00    +0.000 OA
ATOM      8  C   UNL     1       3.160   5.737  19.114  0.00  0.00    +0.000 C 
BRANCH   8   9
ATOM      9  O   UNL     1       3.512   5.367  17.861  0.00  0.00    +0.000 OA
BRANCH   9  10
ATOM     10  C   UNL     1       4.734   4.631  17.722  0.00  0.00    +0.000 C 
BRANCH  10  11
ATOM     11  C   UNL     1       5.884   5.579  17.940  0.00  0.00    +0.000 A 
ATOM     12  C   UNL     1       6.026   6.729  17.149  0.00  0.00    +0.000 A 
ATOM     13  C   UNL     1       7.118   7.581  17.326  0.00  0.00    +0.000 A 
ATOM     14  C   UNL     1       8.081   7.290  18.290  0.00  0.00    +0.000 A 
ATOM     15  C   UNL     1       7.952   6.150  19.080  0.00  0.00    +0.000 A 
ATOM     16  C   UNL     1       6.860   5.296  18.906  0.00  0.00    +0.000 A 
ENDBRANCH  10  11
ENDBRANCH   9  10
ENDBRANCH   8   9
ENDBRANCH   1   8
BRANCH   4  17
ATOM     17  N   UNL     1       0.394  10.752  19.117  0.00  0.00    +0.000 N 
ATOM     18  H   UNL     1       0.973  11.544  18.850  0.00  0.00    +0.000 HD
BRANCH  17  19
ATOM     19  C   UNL     1      -0.980  10.987  18.866  0.00  0.00    +0.000 A 
ATOM     20  C   UNL     1      -1.592  10.331  17.767  0.00  0.00    +0.000 A 
ATOM     21  C   UNL     1      -2.952  10.495  17.400  0.00  0.00    +0.000 A 
ATOM     22  C   UNL     1      -3.825  11.334  18.123  0.00  0.00    +0.000 A 
ATOM     23  C   UNL     1      -3.279  12.011  19.228  0.00  0.00    +0.000 A 
ATOM     24  N   UNL     1      -3.818  12.864  20.111  0.00  0.00    +0.000 NA
ATOM     25  O   UNL     1      -2.819  13.201  20.996  0.00  0.00    +0.000 OA
ATOM     26  N   UNL     1      -1.636  12.569  20.691  0.00  0.00    +0.000 NA
ATOM     27  C   UNL     1      -1.867  11.836  19.593  0.00  0.00    +0.000 A 
BRANCH  22  28
ATOM     28  N   UNL     1      -5.220  11.479  17.752  0.00  0.00    +0.000 N 
ATOM     29  O   UNL     1      -5.478  12.321  16.879  0.00  0.00    +0.000 OA
ATOM     30  O   UNL     1      -6.068  10.770  18.304  0.00  0.00    +0.000 OA
ENDBRANCH  22  28
ENDBRANCH  17  19
ENDBRANCH   4  17
TORSDOF 7
ENDMDL
MODEL 9
REMARK VINA RESULT:      -8.2      3.067      9.192
REMARK  Name = 
REMARK  7 active torsions:
REMARK  status: ('A' for Active; 'I' for Inactive)
REMARK    1  A    between atoms: C_2  and  O_3
REMARK    2  A    between atoms: C_2  and  C_11
REMARK    3  A    between atoms: O_3  and  C_4
REMARK    4  A    between atoms: C_4  and  C_5
REMARK    5  A    between atoms: C_14  and  N_15
REMARK    6  A    between atoms: N_15  and  C_16
REMARK    7  A    between atoms: C_19  and  N_20
REMARK                            x       y       z     vdW  Elec       q    Type
REMARK                         _______ _______ _______ _____ _____    ______ ____
ROOT
ATOM      1  C   UNL     1       0.899  10.422  19.779  0.00  0.00    +0.000 A 
ATOM      2  C   UNL     1       1.401  10.696  18.501  0.00  0.00    +0.000 A 
ATOM      3  C   UNL     1       2.067   9.702  17.771  0.00  0.00    +0.000 A 
ATOM      4  C   UNL     1       2.254   8.421  18.308  0.00  0.00    +0.000 A 
ATOM      5  C   UNL     1       1.743   8.157  19.585  0.00  0.00    +0.000 A 
ATOM      6  C   UNL     1       1.073   9.143  20.316  0.00  0.00    +0.000 A 
ENDROOT
BRANCH   1   8
ATOM      7  O   UNL     1       0.476  11.843  21.655  0.00  0.00    +0.000 OA
ATOM      8  C   UNL     1       0.189  11.504  20.518  0.00  0.00    +0.000 C 
BRANCH   8   9
ATOM      9  O   UNL     1      -0.787  12.033  19.745  0.00  0.00    +0.000 OA
BRANCH   9  10
ATOM     10  C   UNL     1      -2.091  11.449  19.857  0.00  0.00    +0.000 C 
BRANCH  10  11
ATOM     11  C   UNL     1      -2.597  11.154  18.469  0.00  0.00    +0.000 A 
ATOM     12  C   UNL     1      -3.749  11.785  17.976  0.00  0.00    +0.000 A 
ATOM     13  C   UNL     1      -4.239  11.474  16.706  0.00  0.00    +0.000 A 
ATOM     14  C   UNL     1      -3.588  10.527  15.920  0.00  0.00    +0.000 A 
ATOM     15  C   UNL     1      -2.444   9.892  16.399  0.00  0.00    +0.000 A 
ATOM     16  C   UNL     1      -1.951  10.201  17.669  0.00  0.00    +0.000 A 
ENDBRANCH  10  11
ENDBRANCH   9  10
ENDBRANCH   8   9
ENDBRANCH   1   8
BRANCH   4  17
ATOM     17  N   UNL     1       2.925   7.430  17.566  0.00  0.00    +0.000 N 
ATOM     18  H   UNL     1       3.541   7.807  16.851  0.00  0.00    +0.000 HD
BRANCH  17  19
ATOM     19  C   UNL     1       3.334   6.144  17.997  0.00  0.00    +0.000 A 
ATOM     20  C   UNL     1       2.340   5.165  18.251  0.00  0.00    +0.000 A 
ATOM     21  C   UNL     1       2.617   3.849  18.702  0.00  0.00    +0.000 A 
ATOM     22  C   UNL     1       3.934   3.398  18.927  0.00  0.00    +0.000 A 
ATOM     23  C   UNL     1       4.968   4.322  18.689  0.00  0.00    +0.000 A 
ATOM     24  N   UNL     1       6.300   4.224  18.799  0.00  0.00    +0.000 NA
ATOM     25  O   UNL     1       6.820   5.440  18.417  0.00  0.00    +0.000 OA
ATOM     26  N   UNL     1       5.830   6.325  18.057  0.00  0.00    +0.000 NA
ATOM     27  C   UNL     1       4.665   5.684  18.227  0.00  0.00    +0.000 A 
BRANCH  22  28
ATOM     28  N   UNL     1       4.209   2.043  19.368  0.00  0.00    +0.000 N 
ATOM     29  O   UNL     1       4.851   1.922  20.422  0.00  0.00    +0.000 OA
ATOM     30  O   UNL     1       3.795   1.094  18.695  0.00  0.00    +0.000 OA
ENDBRANCH  22  28
ENDBRANCH  17  19
ENDBRANCH   4  17
TORSDOF 7
ENDMDL
