MODEL 1
REMARK VINA RESULT:      -8.4      0.000      0.000
REMARK  Name = 
REMARK  6 active torsions:
REMARK  status: ('A' for Active; 'I' for Inactive)
REMARK    1  A    between atoms: C_1  and  C_2
REMARK    2  A    between atoms: C_5  and  O_6
REMARK    3  A    between atoms: O_6  and  C_7
REMARK    4  A    between atoms: N_14  and  C_15
REMARK    5  A    between atoms: C_15  and  C_16
REMARK    6  A    between atoms: N_18  and  C_19
REMARK                            x       y       z     vdW  Elec       q    Type
REMARK                         _______ _______ _______ _____ _____    ______ ____
ROOT
ATOM      1  C   UNL     1       1.888   5.507  20.427  0.00  0.00    +0.000 A 
ATOM      2  N   UNL     1       0.855   4.707  20.442  0.00  0.00    +0.000 NA
ATOM      3  C   UNL     1       0.965   3.536  19.721  0.00  0.00    +0.000 A 
ATOM      4  C   UNL     1       2.044   3.169  19.015  0.00  0.00    +0.000 A 
ATOM      5  N   UNL     1       3.105   4.023  18.973  0.00  0.00    +0.000 N 
ATOM      6  C   UNL     1       4.310   3.937  18.324  0.00  0.00    +0.000 A 
ATOM      7  O   UNL     1       4.749   3.023  17.647  0.00  0.00    +0.000 OA
ATOM      8  N   UNL     1       4.965   5.143  18.616  0.00  0.00    +0.000 N 
ATOM      9  N   UNL     1       4.180   5.945  19.434  0.00  0.00    +0.000 NA
ATOM     10  C   UNL     1       3.114   5.220  19.608  0.00  0.00    +0.000 A 
ENDROOT
BRANCH   1  11
ATOM     11  O   UNL     1       2.044   6.637  21.192  0.00  0.00    +0.000 OA
BRANCH  11  16
ATOM     12  C   UNL     1      -0.723  11.180  19.142  0.00  0.00    +0.000 C 
ATOM     13  C   UNL     1       0.034  10.013  19.703  0.00  0.00    +0.000 A 
ATOM     14  C   UNL     1      -0.311   9.491  20.952  0.00  0.00    +0.000 A 
ATOM     15  C   UNL     1       0.371   8.393  21.466  0.00  0.00    +0.000 A 
ATOM     16  C   UNL     1       1.370   7.774  20.709  0.00  0.00    +0.000 A 
ATOM     17  C   UNL     1       1.765   8.313  19.488  0.00  0.00    +0.000 A 
ATOM     18  C   UNL     1       1.094   9.436  18.987  0.00  0.00    +0.000 A 
ENDBRANCH  11  16
ENDBRANCH   1  11
BRANCH   8  19
ATOM     19  C   UNL     1       6.215   5.591  18.046  0.00  0.00    +0.000 C 
BRANCH  19  20
ATOM     20  C   UNL     1       6.199   5.658  16.520  0.00  0.00    +0.000 C 
ATOM     21  O   UNL     1       5.491   6.482  15.939  0.00  0.00    +0.000 OA
ATOM     22  N   UNL     1       6.843   4.608  15.874  0.00  0.00    +0.000 N 
ATOM     23  H   UNL     1       6.953   3.752  16.409  0.00  0.00    +0.000 HD
BRANCH  22  24
ATOM     24  C   UNL     1       6.879   4.503  14.466  0.00  0.00    +0.000 A 
ATOM     25  C   UNL     1       7.757   5.326  13.755  0.00  0.00    +0.000 A 
ATOM     26  C   UNL     1       7.850   5.218  12.364  0.00  0.00    +0.000 A 
ATOM     27  C   UNL     1       7.020   4.335  11.674  0.00  0.00    +0.000 A 
ATOM     28  C   UNL     1       6.112   3.548  12.380  0.00  0.00    +0.000 A 
ATOM     29 CL   UNL     1       5.046   2.504  11.520  0.00  0.00    +0.000 Cl
ATOM     30  C   UNL     1       6.052   3.612  13.773  0.00  0.00    +0.000 A 
ENDBRANCH  22  24
ENDBRANCH  19  20
ENDBRANCH   8  19
TORSDOF 5
ENDMDL
MODEL 2
REMARK VINA RESULT:      -8.2      4.485      5.620
REMARK  Name = 
REMARK  6 active torsions:
REMARK  status: ('A' for Active; 'I' for Inactive)
REMARK    1  A    between atoms: C_1  and  C_2
REMARK    2  A    between atoms: C_5  and  O_6
REMARK    3  A    between atoms: O_6  and  C_7
REMARK    4  A    between atoms: N_14  and  C_15
REMARK    5  A    between atoms: C_15  and  C_16
REMARK    6  A    between atoms: N_18  and  C_19
REMARK                            x       y       z     vdW  Elec       q    Type
REMARK                         _______ _______ _______ _____ _____    ______ ____
ROOT
ATOM      1  C   UNL     1       3.498   4.996  18.634  0.00  0.00    +0.000 A 
ATOM      2  N   UNL     1       2.823   4.211  17.837  0.00  0.00    +0.000 NA
ATOM      3  C   UNL     1       3.545   3.527  16.881  0.00  0.00    +0.000 A 
ATOM      4  C   UNL     1       4.873   3.614  16.717  0.00  0.00    +0.000 A 
ATOM      5  N   UNL     1       5.567   4.461  17.527  0.00  0.00    +0.000 N 
ATOM      6  C   UNL     1       6.900   4.778  17.575  0.00  0.00    +0.000 A 
ATOM      7  O   UNL     1       7.817   4.322  16.911  0.00  0.00    +0.000 OA
ATOM      8  N   UNL     1       7.006   5.749  18.582  0.00  0.00    +0.000 N 
ATOM      9  N   UNL     1       5.764   6.013  19.143  0.00  0.00    +0.000 NA
ATOM     10  C   UNL     1       4.975   5.216  18.483  0.00  0.00    +0.000 A 
ENDROOT
BRANCH   1  11
ATOM     11  O   UNL     1       3.000   5.642  19.740  0.00  0.00    +0.000 OA
BRANCH  11  16
ATOM     12  C   UNL     1       0.753  10.792  18.774  0.00  0.00    +0.000 C 
ATOM     13  C   UNL     1       1.305   9.418  19.014  0.00  0.00    +0.000 A 
ATOM     14  C   UNL     1       1.969   8.743  17.987  0.00  0.00    +0.000 A 
ATOM     15  C   UNL     1       2.506   7.479  18.210  0.00  0.00    +0.000 A 
ATOM     16  C   UNL     1       2.428   6.902  19.480  0.00  0.00    +0.000 A 
ATOM     17  C   UNL     1       1.723   7.534  20.501  0.00  0.00    +0.000 A 
ATOM     18  C   UNL     1       1.160   8.794  20.263  0.00  0.00    +0.000 A 
ENDBRANCH  11  16
ENDBRANCH   1  11
BRANCH   8  19
ATOM     19  C   UNL     1       8.194   6.501  18.916  0.00  0.00    +0.000 C 
BRANCH  19  20
ATOM     20  C   UNL     1       8.220   7.901  18.307  0.00  0.00    +0.000 C 
ATOM     21  O   UNL     1       7.851   8.082  17.145  0.00  0.00    +0.000 OA
ATOM     22  N   UNL     1       8.879   8.864  19.063  0.00  0.00    +0.000 N 
ATOM     23  H   UNL     1       9.556   8.519  19.736  0.00  0.00    +0.000 HD
BRANCH  22  24
ATOM     24  C   UNL     1       9.026  10.196  18.616  0.00  0.00    +0.000 A 
ATOM     25  C   UNL     1       8.007  10.760  17.844  0.00  0.00    +0.000 A 
ATOM     26  C   UNL     1       8.099  12.090  17.422  0.00  0.00    +0.000 A 
ATOM     27  C   UNL     1       9.239  12.839  17.715  0.00  0.00    +0.000 A 
ATOM     28  C   UNL     1      10.275  12.260  18.446  0.00  0.00    +0.000 A 
ATOM     29 CL   UNL     1      11.706  13.168  18.752  0.00  0.00    +0.000 Cl
ATOM     30  C   UNL     1      10.166  10.951  18.916  0.00  0.00    +0.000 A 
ENDBRANCH  22  24
ENDBRANCH  19  20
ENDBRANCH   8  19
TORSDOF 5
ENDMDL
MODEL 3
REMARK VINA RESULT:      -8.0      4.519      5.722
REMARK  Name = 
REMARK  6 active torsions:
REMARK  status: ('A' for Active; 'I' for Inactive)
REMARK    1  A    between atoms: C_1  and  C_2
REMARK    2  A    between atoms: C_5  and  O_6
REMARK    3  A    between atoms: O_6  and  C_7
REMARK    4  A    between atoms: N_14  and  C_15
REMARK    5  A    between atoms: C_15  and  C_16
REMARK    6  A    between atoms: N_18  and  C_19
REMARK                            x       y       z     vdW  Elec       q    Type
REMARK                         _______ _______ _______ _____ _____    ______ ____
ROOT
ATOM      1  C   UNL     1       3.242   5.477  18.777  0.00  0.00    +0.000 A 
ATOM      2  N   UNL     1       2.383   4.736  18.129  0.00  0.00    +0.000 NA
ATOM      3  C   UNL     1       2.892   3.903  17.154  0.00  0.00    +0.000 A 
ATOM      4  C   UNL     1       4.190   3.805  16.831  0.00  0.00    +0.000 A 
ATOM      5  N   UNL     1       5.076   4.607  17.484  0.00  0.00    +0.000 N 
ATOM      6  C   UNL     1       6.434   4.750  17.352  0.00  0.00    +0.000 A 
ATOM      7  O   UNL     1       7.199   4.137  16.626  0.00  0.00    +0.000 OA
ATOM      8  N   UNL     1       6.781   5.762  18.259  0.00  0.00    +0.000 N 
ATOM      9  N   UNL     1       5.660   6.222  18.937  0.00  0.00    +0.000 NA
ATOM     10  C   UNL     1       4.705   5.493  18.438  0.00  0.00    +0.000 A 
ENDROOT
BRANCH   1  11
ATOM     11  O   UNL     1       2.968   6.254  19.876  0.00  0.00    +0.000 OA
BRANCH  11  16
ATOM     12  C   UNL     1       0.225  11.143  18.841  0.00  0.00    +0.000 C 
ATOM     13  C   UNL     1       0.910   9.834  19.099  0.00  0.00    +0.000 A 
ATOM     14  C   UNL     1       1.658   9.226  18.087  0.00  0.00    +0.000 A 
ATOM     15  C   UNL     1       2.316   8.024  18.328  0.00  0.00    +0.000 A 
ATOM     16  C   UNL     1       2.275   7.447  19.599  0.00  0.00    +0.000 A 
ATOM     17  C   UNL     1       1.491   8.009  20.604  0.00  0.00    +0.000 A 
ATOM     18  C   UNL     1       0.807   9.204  20.349  0.00  0.00    +0.000 A 
ENDBRANCH  11  16
ENDBRANCH   1  11
BRANCH   8  19
ATOM     19  C   UNL     1       8.084   6.374  18.391  0.00  0.00    +0.000 C 
BRANCH  19  20
ATOM     20  C   UNL     1       8.058   7.896  18.268  0.00  0.00    +0.000 C 
ATOM     21  O   UNL     1       7.461   8.436  17.335  0.00  0.00    +0.000 OA
ATOM     22  N   UNL     1       8.915   8.575  19.127  0.00  0.00    +0.000 N 
ATOM     23  H   UNL     1       9.700   8.043  19.490  0.00  0.00    +0.000 HD
BRANCH  22  24
ATOM     24  C   UNL     1       9.038   9.982  19.106  0.00  0.00    +0.000 A 
ATOM     25  C   UNL     1       8.931  10.645  17.880  0.00  0.00    +0.000 A 
ATOM     26  C   UNL     1       9.004  12.041  17.827  0.00  0.00    +0.000 A 
ATOM     27  C   UNL     1       9.249  12.772  18.990  0.00  0.00    +0.000 A 
ATOM     28  C   UNL     1       9.401  12.106  20.204  0.00  0.00    +0.000 A 
ATOM     29 CL   UNL     1       9.763  13.007  21.626  0.00  0.00    +0.000 Cl
ATOM     30  C   UNL     1       9.276  10.718  20.272  0.00  0.00    +0.000 A 
ENDBRANCH  22  24
ENDBRANCH  19  20
ENDBRANCH   8  19
TORSDOF 5
ENDMDL
MODEL 4
REMARK VINA RESULT:      -7.9      3.564      7.588
REMARK  Name = 
REMARK  6 active torsions:
REMARK  status: ('A' for Active; 'I' for Inactive)
REMARK    1  A    between atoms: C_1  and  C_2
REMARK    2  A    between atoms: C_5  and  O_6
REMARK    3  A    between atoms: O_6  and  C_7
REMARK    4  A    between atoms: N_14  and  C_15
REMARK    5  A    between atoms: C_15  and  C_16
REMARK    6  A    between atoms: N_18  and  C_19
REMARK                            x       y       z     vdW  Elec       q    Type
REMARK                         _______ _______ _______ _____ _____    ______ ____
ROOT
ATOM      1  C   UNL     1       7.177   5.012  17.569  0.00  0.00    +0.000 A 
ATOM      2  N   UNL     1       7.637   4.827  16.360  0.00  0.00    +0.000 NA
ATOM      3  C   UNL     1       6.765   4.284  15.440  0.00  0.00    +0.000 A 
ATOM      4  C   UNL     1       5.496   3.938  15.698  0.00  0.00    +0.000 A 
ATOM      5  N   UNL     1       5.032   4.100  16.968  0.00  0.00    +0.000 N 
ATOM      6  C   UNL     1       3.813   3.814  17.530  0.00  0.00    +0.000 A 
ATOM      7  O   UNL     1       2.809   3.376  16.993  0.00  0.00    +0.000 OA
ATOM      8  N   UNL     1       3.951   4.150  18.885  0.00  0.00    +0.000 N 
ATOM      9  N   UNL     1       5.225   4.640  19.143  0.00  0.00    +0.000 NA
ATOM     10  C   UNL     1       5.794   4.590  17.975  0.00  0.00    +0.000 A 
ENDROOT
BRANCH   1  11
ATOM     11  O   UNL     1       7.823   5.674  18.585  0.00  0.00    +0.000 OA
BRANCH  11  16
ATOM     12  C   UNL     1       8.435  11.289  17.812  0.00  0.00    +0.000 C 
ATOM     13  C   UNL     1       8.240   9.820  18.045  0.00  0.00    +0.000 A 
ATOM     14  C   UNL     1       7.327   9.104  17.266  0.00  0.00    +0.000 A 
ATOM     15  C   UNL     1       7.160   7.737  17.461  0.00  0.00    +0.000 A 
ATOM     16  C   UNL     1       7.945   7.064  18.401  0.00  0.00    +0.000 A 
ATOM     17  C   UNL     1       8.820   7.769  19.223  0.00  0.00    +0.000 A 
ATOM     18  C   UNL     1       8.963   9.150  19.043  0.00  0.00    +0.000 A 
ENDBRANCH  11  16
ENDBRANCH   1  11
BRANCH   8  19
ATOM     19  C   UNL     1       2.982   3.899  19.926  0.00  0.00    +0.000 C 
BRANCH  19  20
ATOM     20  C   UNL     1       2.098   5.104  20.240  0.00  0.00    +0.000 C 
ATOM     21  O   UNL     1       0.927   4.945  20.590  0.00  0.00    +0.000 OA
ATOM     22  N   UNL     1       2.635   6.339  19.892  0.00  0.00    +0.000 N 
ATOM     23  H   UNL     1       3.358   6.329  19.179  0.00  0.00    +0.000 HD
BRANCH  22  24
ATOM     24  C   UNL     1       1.923   7.545  20.079  0.00  0.00    +0.000 A 
ATOM     25  C   UNL     1       1.812   8.430  19.004  0.00  0.00    +0.000 A 
ATOM     26  C   UNL     1       1.078   9.613  19.140  0.00  0.00    +0.000 A 
ATOM     27  C   UNL     1       0.508   9.944  20.370  0.00  0.00    +0.000 A 
ATOM     28  C   UNL     1       0.659   9.081  21.454  0.00  0.00    +0.000 A 
ATOM     29 CL   UNL     1       0.007   9.523  22.985  0.00  0.00    +0.000 Cl
ATOM     30  C   UNL     1       1.344   7.875  21.309  0.00  0.00    +0.000 A 
ENDBRANCH  22  24
ENDBRANCH  19  20
ENDBRANCH   8  19
TORSDOF 5
ENDMDL
MODEL 5
REMARK VINA RESULT:      -7.9      4.679      5.886
REMARK  Name = 
REMARK  6 active torsions:
REMARK  status: ('A' for Active; 'I' for Inactive)
REMARK    1  A    between atoms: C_1  and  C_2
REMARK    2  A    between atoms: C_5  and  O_6
REMARK    3  A    between atoms: O_6  and  C_7
REMARK    4  A    between atoms: N_14  and  C_15
REMARK    5  A    between atoms: C_15  and  C_16
REMARK    6  A    between atoms: N_18  and  C_19
REMARK                            x       y       z     vdW  Elec       q    Type
REMARK                         _______ _______ _______ _____ _____    ______ ____
ROOT
ATOM      1  C   UNL     1       3.603   5.089  18.448  0.00  0.00    +0.000 A 
ATOM      2  N   UNL     1       2.911   4.346  17.625  0.00  0.00    +0.000 NA
ATOM      3  C   UNL     1       3.616   3.695  16.634  0.00  0.00    +0.000 A 
ATOM      4  C   UNL     1       4.943   3.773  16.459  0.00  0.00    +0.000 A 
ATOM      5  N   UNL     1       5.655   4.578  17.297  0.00  0.00    +0.000 N 
ATOM      6  C   UNL     1       6.992   4.876  17.344  0.00  0.00    +0.000 A 
ATOM      7  O   UNL     1       7.897   4.439  16.652  0.00  0.00    +0.000 OA
ATOM      8  N   UNL     1       7.119   5.802  18.391  0.00  0.00    +0.000 N 
ATOM      9  N   UNL     1       5.886   6.057  18.976  0.00  0.00    +0.000 NA
ATOM     10  C   UNL     1       5.082   5.298  18.290  0.00  0.00    +0.000 A 
ENDROOT
BRANCH   1  11
ATOM     11  O   UNL     1       3.125   5.693  19.585  0.00  0.00    +0.000 OA
BRANCH  11  16
ATOM     12  C   UNL     1       0.491  10.662  18.647  0.00  0.00    +0.000 C 
ATOM     13  C   UNL     1       1.222   9.378  18.906  0.00  0.00    +0.000 A 
ATOM     14  C   UNL     1       1.215   8.815  20.184  0.00  0.00    +0.000 A 
ATOM     15  C   UNL     1       1.870   7.611  20.424  0.00  0.00    +0.000 A 
ATOM     16  C   UNL     1       2.492   6.933  19.373  0.00  0.00    +0.000 A 
ATOM     17  C   UNL     1       2.556   7.504  18.105  0.00  0.00    +0.000 A 
ATOM     18  C   UNL     1       1.920   8.729  17.875  0.00  0.00    +0.000 A 
ENDBRANCH  11  16
ENDBRANCH   1  11
BRANCH   8  19
ATOM     19  C   UNL     1       8.319   6.526  18.744  0.00  0.00    +0.000 C 
BRANCH  19  20
ATOM     20  C   UNL     1       8.200   8.036  18.549  0.00  0.00    +0.000 C 
ATOM     21  O   UNL     1       7.485   8.495  17.657  0.00  0.00    +0.000 OA
ATOM     22  N   UNL     1       9.102   8.801  19.280  0.00  0.00    +0.000 N 
ATOM     23  H   UNL     1       9.947   8.328  19.586  0.00  0.00    +0.000 HD
BRANCH  22  24
ATOM     24  C   UNL     1       9.147  10.209  19.177  0.00  0.00    +0.000 A 
ATOM     25  C   UNL     1       9.056  10.791  17.909  0.00  0.00    +0.000 A 
ATOM     26  C   UNL     1       9.054  12.183  17.773  0.00  0.00    +0.000 A 
ATOM     27  C   UNL     1       9.206  12.995  18.897  0.00  0.00    +0.000 A 
ATOM     28  C   UNL     1       9.342  12.412  20.156  0.00  0.00    +0.000 A 
ATOM     29 CL   UNL     1       9.592  13.416  21.532  0.00  0.00    +0.000 Cl
ATOM     30  C   UNL     1       9.292  11.026  20.304  0.00  0.00    +0.000 A 
ENDBRANCH  22  24
ENDBRANCH  19  20
ENDBRANCH   8  19
TORSDOF 5
ENDMDL
MODEL 6
REMARK VINA RESULT:      -7.9      1.142      1.558
REMARK  Name = 
REMARK  6 active torsions:
REMARK  status: ('A' for Active; 'I' for Inactive)
REMARK    1  A    between atoms: C_1  and  C_2
REMARK    2  A    between atoms: C_5  and  O_6
REMARK    3  A    between atoms: O_6  and  C_7
REMARK    4  A    between atoms: N_14  and  C_15
REMARK    5  A    between atoms: C_15  and  C_16
REMARK    6  A    between atoms: N_18  and  C_19
REMARK                            x       y       z     vdW  Elec       q    Type
REMARK                         _______ _______ _______ _____ _____    ______ ____
ROOT
ATOM      1  C   UNL     1       2.024   6.563  19.949  0.00  0.00    +0.000 A 
ATOM      2  N   UNL     1       1.056   5.934  20.561  0.00  0.00    +0.000 NA
ATOM      3  C   UNL     1       1.263   4.599  20.842  0.00  0.00    +0.000 A 
ATOM      4  C   UNL     1       2.373   3.914  20.532  0.00  0.00    +0.000 A 
ATOM      5  N   UNL     1       3.364   4.565  19.861  0.00  0.00    +0.000 N 
ATOM      6  C   UNL     1       4.577   4.130  19.393  0.00  0.00    +0.000 A 
ATOM      7  O   UNL     1       5.091   3.030  19.512  0.00  0.00    +0.000 OA
ATOM      8  N   UNL     1       5.133   5.241  18.741  0.00  0.00    +0.000 N 
ATOM      9  N   UNL     1       4.281   6.334  18.818  0.00  0.00    +0.000 NA
ATOM     10  C   UNL     1       3.274   5.866  19.495  0.00  0.00    +0.000 A 
ENDROOT
BRANCH   1  11
ATOM     11  O   UNL     1       2.085   7.915  19.715  0.00  0.00    +0.000 OA
BRANCH  11  16
ATOM     12  C   UNL     1      -1.263  11.124  23.032  0.00  0.00    +0.000 C 
ATOM     13  C   UNL     1      -0.414  10.247  22.161  0.00  0.00    +0.000 A 
ATOM     14  C   UNL     1      -0.576  10.271  20.774  0.00  0.00    +0.000 A 
ATOM     15  C   UNL     1       0.226   9.478  19.960  0.00  0.00    +0.000 A 
ATOM     16  C   UNL     1       1.234   8.693  20.523  0.00  0.00    +0.000 A 
ATOM     17  C   UNL     1       1.376   8.614  21.906  0.00  0.00    +0.000 A 
ATOM     18  C   UNL     1       0.547   9.392  22.724  0.00  0.00    +0.000 A 
ENDBRANCH  11  16
ENDBRANCH   1  11
BRANCH   8  19
ATOM     19  C   UNL     1       6.348   5.246  17.959  0.00  0.00    +0.000 C 
BRANCH  19  20
ATOM     20  C   UNL     1       6.107   5.107  16.457  0.00  0.00    +0.000 C 
ATOM     21  O   UNL     1       4.961   5.006  16.016  0.00  0.00    +0.000 OA
ATOM     22  N   UNL     1       7.247   4.884  15.692  0.00  0.00    +0.000 N 
ATOM     23  H   UNL     1       8.047   4.496  16.183  0.00  0.00    +0.000 HD
BRANCH  22  24
ATOM     24  C   UNL     1       7.185   4.691  14.294  0.00  0.00    +0.000 A 
ATOM     25  C   UNL     1       7.903   5.558  13.467  0.00  0.00    +0.000 A 
ATOM     26  C   UNL     1       7.900   5.371  12.080  0.00  0.00    +0.000 A 
ATOM     27  C   UNL     1       7.128   4.356  11.515  0.00  0.00    +0.000 A 
ATOM     28  C   UNL     1       6.376   3.521  12.339  0.00  0.00    +0.000 A 
ATOM     29 CL   UNL     1       5.377   2.309  11.632  0.00  0.00    +0.000 Cl
ATOM     30  C   UNL     1       6.418   3.669  13.725  0.00  0.00    +0.000 A 
ENDBRANCH  22  24
ENDBRANCH  19  20
ENDBRANCH   8  19
TORSDOF 5
ENDMDL
MODEL 7
REMARK VINA RESULT:      -7.8      4.214      5.260
REMARK  Name = 
REMARK  6 active torsions:
REMARK  status: ('A' for Active; 'I' for Inactive)
REMARK    1  A    between atoms: C_1  and  C_2
REMARK    2  A    between atoms: C_5  and  O_6
REMARK    3  A    between atoms: O_6  and  C_7
REMARK    4  A    between atoms: N_14  and  C_15
REMARK    5  A    between atoms: C_15  and  C_16
REMARK    6  A    between atoms: N_18  and  C_19
REMARK                            x       y       z     vdW  Elec       q    Type
REMARK                         _______ _______ _______ _____ _____    ______ ____
ROOT
ATOM      1  C   UNL     1       2.884   5.476  19.019  0.00  0.00    +0.000 A 
ATOM      2  N   UNL     1       1.908   4.793  18.484  0.00  0.00    +0.000 NA
ATOM      3  C   UNL     1       2.246   3.907  17.482  0.00  0.00    +0.000 A 
ATOM      4  C   UNL     1       3.491   3.704  17.026  0.00  0.00    +0.000 A 
ATOM      5  N   UNL     1       4.500   4.446  17.563  0.00  0.00    +0.000 N 
ATOM      6  C   UNL     1       5.843   4.482  17.285  0.00  0.00    +0.000 A 
ATOM      7  O   UNL     1       6.478   3.800  16.498  0.00  0.00    +0.000 OA
ATOM      8  N   UNL     1       6.360   5.480  18.125  0.00  0.00    +0.000 N 
ATOM      9  N   UNL     1       5.355   6.035  18.906  0.00  0.00    +0.000 NA
ATOM     10  C   UNL     1       4.300   5.374  18.529  0.00  0.00    +0.000 A 
ENDROOT
BRANCH   1  11
ATOM     11  O   UNL     1       2.788   6.289  20.122  0.00  0.00    +0.000 OA
BRANCH  11  16
ATOM     12  C   UNL     1      -0.175  11.070  19.196  0.00  0.00    +0.000 C 
ATOM     13  C   UNL     1       0.639   9.838  19.456  0.00  0.00    +0.000 A 
ATOM     14  C   UNL     1       0.575   9.208  20.701  0.00  0.00    +0.000 A 
ATOM     15  C   UNL     1       1.309   8.050  20.939  0.00  0.00    +0.000 A 
ATOM     16  C   UNL     1       2.072   7.483  19.916  0.00  0.00    +0.000 A 
ATOM     17  C   UNL     1       2.191   8.126  18.686  0.00  0.00    +0.000 A 
ATOM     18  C   UNL     1       1.473   9.306  18.460  0.00  0.00    +0.000 A 
ENDBRANCH  11  16
ENDBRANCH   1  11
BRANCH   8  19
ATOM     19  C   UNL     1       7.711   5.991  18.106  0.00  0.00    +0.000 C 
BRANCH  19  20
ATOM     20  C   UNL     1       7.786   7.505  17.921  0.00  0.00    +0.000 C 
ATOM     21  O   UNL     1       7.307   8.036  16.917  0.00  0.00    +0.000 OA
ATOM     22  N   UNL     1       8.604   8.173  18.826  0.00  0.00    +0.000 N 
ATOM     23  H   UNL     1       9.321   7.614  19.280  0.00  0.00    +0.000 HD
BRANCH  22  24
ATOM     24  C   UNL     1       8.812   9.569  18.761  0.00  0.00    +0.000 A 
ATOM     25  C   UNL     1       8.218  10.286  17.720  0.00  0.00    +0.000 A 
ATOM     26  C   UNL     1       8.366  11.675  17.649  0.00  0.00    +0.000 A 
ATOM     27  C   UNL     1       9.162  12.341  18.581  0.00  0.00    +0.000 A 
ATOM     28  C   UNL     1       9.791  11.618  19.593  0.00  0.00    +0.000 A 
ATOM     29 CL   UNL     1      10.821  12.436  20.704  0.00  0.00    +0.000 Cl
ATOM     30  C   UNL     1       9.603  10.240  19.700  0.00  0.00    +0.000 A 
ENDBRANCH  22  24
ENDBRANCH  19  20
ENDBRANCH   8  19
TORSDOF 5
ENDMDL
MODEL 8
REMARK VINA RESULT:      -7.6      4.855      6.245
REMARK  Name = 
REMARK  6 active torsions:
REMARK  status: ('A' for Active; 'I' for Inactive)
REMARK    1  A    between atoms: C_1  and  C_2
REMARK    2  A    between atoms: C_5  and  O_6
REMARK    3  A    between atoms: O_6  and  C_7
REMARK    4  A    between atoms: N_14  and  C_15
REMARK    5  A    between atoms: C_15  and  C_16
REMARK    6  A    between atoms: N_18  and  C_19
REMARK                            x       y       z     vdW  Elec       q    Type
REMARK                         _______ _______ _______ _____ _____    ______ ____
ROOT
ATOM      1  C   UNL     1       3.588   5.770  18.094  0.00  0.00    +0.000 A 
ATOM      2  N   UNL     1       3.068   4.696  18.627  0.00  0.00    +0.000 NA
ATOM      3  C   UNL     1       3.930   3.859  19.305  0.00  0.00    +0.000 A 
ATOM      4  C   UNL     1       5.246   4.069  19.451  0.00  0.00    +0.000 A 
ATOM      5  N   UNL     1       5.789   5.171  18.862  0.00  0.00    +0.000 N 
ATOM      6  C   UNL     1       7.082   5.626  18.813  0.00  0.00    +0.000 A 
ATOM      7  O   UNL     1       8.076   5.158  19.343  0.00  0.00    +0.000 OA
ATOM      8  N   UNL     1       7.030   6.781  18.019  0.00  0.00    +0.000 N 
ATOM      9  N   UNL     1       5.730   7.032  17.600  0.00  0.00    +0.000 NA
ATOM     10  C   UNL     1       5.061   6.056  18.140  0.00  0.00    +0.000 A 
ENDROOT
BRANCH   1  11
ATOM     11  O   UNL     1       2.890   6.801  17.515  0.00  0.00    +0.000 OA
BRANCH  11  16
ATOM     12  C   UNL     1       0.184  10.283  21.129  0.00  0.00    +0.000 C 
ATOM     13  C   UNL     1       0.936   9.387  20.189  0.00  0.00    +0.000 A 
ATOM     14  C   UNL     1       1.468   8.181  20.650  0.00  0.00    +0.000 A 
ATOM     15  C   UNL     1       2.144   7.334  19.778  0.00  0.00    +0.000 A 
ATOM     16  C   UNL     1       2.247   7.663  18.424  0.00  0.00    +0.000 A 
ATOM     17  C   UNL     1       1.771   8.885  17.957  0.00  0.00    +0.000 A 
ATOM     18  C   UNL     1       1.116   9.748  18.845  0.00  0.00    +0.000 A 
ENDBRANCH  11  16
ENDBRANCH   1  11
BRANCH   8  19
ATOM     19  C   UNL     1       8.165   7.546  17.555  0.00  0.00    +0.000 C 
BRANCH  19  20
ATOM     20  C   UNL     1       8.186   8.982  18.074  0.00  0.00    +0.000 C 
ATOM     21  O   UNL     1       7.483   9.846  17.547  0.00  0.00    +0.000 OA
ATOM     22  N   UNL     1       9.188   9.264  18.997  0.00  0.00    +0.000 N 
ATOM     23  H   UNL     1       9.994   8.646  18.986  0.00  0.00    +0.000 HD
BRANCH  22  24
ATOM     24  C   UNL     1       9.366  10.557  19.538  0.00  0.00    +0.000 A 
ATOM     25  C   UNL     1       9.092  10.759  20.893  0.00  0.00    +0.000 A 
ATOM     26  C   UNL     1       9.299  12.015  21.472  0.00  0.00    +0.000 A 
ATOM     27  C   UNL     1       9.718  13.087  20.684  0.00  0.00    +0.000 A 
ATOM     28  C   UNL     1       9.946  12.894  19.323  0.00  0.00    +0.000 A 
ATOM     29 CL   UNL     1      10.404  14.234  18.343  0.00  0.00    +0.000 Cl
ATOM     30  C   UNL     1       9.793  11.631  18.751  0.00  0.00    +0.000 A 
ENDBRANCH  22  24
ENDBRANCH  19  20
ENDBRANCH   8  19
TORSDOF 5
ENDMDL
MODEL 9
REMARK VINA RESULT:      -7.6      1.350      1.657
REMARK  Name = 
REMARK  6 active torsions:
REMARK  status: ('A' for Active; 'I' for Inactive)
REMARK    1  A    between atoms: C_1  and  C_2
REMARK    2  A    between atoms: C_5  and  O_6
REMARK    3  A    between atoms: O_6  and  C_7
REMARK    4  A    between atoms: N_14  and  C_15
REMARK    5  A    between atoms: C_15  and  C_16
REMARK    6  A    between atoms: N_18  and  C_19
REMARK                            x       y       z     vdW  Elec       q    Type
REMARK                         _______ _______ _______ _____ _____    ______ ____
ROOT
ATOM      1  C   UNL     1       2.244   6.392  18.777  0.00  0.00    +0.000 A 
ATOM      2  N   UNL     1       1.139   5.764  19.080  0.00  0.00    +0.000 NA
ATOM      3  C   UNL     1       1.265   4.463  19.523  0.00  0.00    +0.000 A 
ATOM      4  C   UNL     1       2.428   3.810  19.660  0.00  0.00    +0.000 A 
ATOM      5  N   UNL     1       3.574   4.457  19.308  0.00  0.00    +0.000 N 
ATOM      6  C   UNL     1       4.882   4.045  19.310  0.00  0.00    +0.000 A 
ATOM      7  O   UNL     1       5.347   2.982  19.685  0.00  0.00    +0.000 OA
ATOM      8  N   UNL     1       5.604   5.131  18.792  0.00  0.00    +0.000 N 
ATOM      9  N   UNL     1       4.754   6.187  18.489  0.00  0.00    +0.000 NA
ATOM     10  C   UNL     1       3.587   5.723  18.827  0.00  0.00    +0.000 A 
ENDROOT
BRANCH   1  11
ATOM     11  O   UNL     1       2.353   7.725  18.466  0.00  0.00    +0.000 OA
BRANCH  11  16
ATOM     12  C   UNL     1      -0.373  11.262  22.010  0.00  0.00    +0.000 C 
ATOM     13  C   UNL     1       0.306  10.307  21.074  0.00  0.00    +0.000 A 
ATOM     14  C   UNL     1       0.253  10.523  19.695  0.00  0.00    +0.000 A 
ATOM     15  C   UNL     1       0.901   9.655  18.823  0.00  0.00    +0.000 A 
ATOM     16  C   UNL     1       1.655   8.591  19.328  0.00  0.00    +0.000 A 
ATOM     17  C   UNL     1       1.674   8.328  20.695  0.00  0.00    +0.000 A 
ATOM     18  C   UNL     1       0.996   9.189  21.567  0.00  0.00    +0.000 A 
ENDBRANCH  11  16
ENDBRANCH   1  11
BRANCH   8  19
ATOM     19  C   UNL     1       7.011   5.138  18.464  0.00  0.00    +0.000 C 
BRANCH  19  20
ATOM     20  C   UNL     1       7.307   4.670  17.041  0.00  0.00    +0.000 C 
ATOM     21  O   UNL     1       8.344   4.054  16.789  0.00  0.00    +0.000 OA
ATOM     22  N   UNL     1       6.458   5.175  16.062  0.00  0.00    +0.000 N 
ATOM     23  H   UNL     1       5.969   6.035  16.293  0.00  0.00    +0.000 HD
BRANCH  22  24
ATOM     24  C   UNL     1       6.627   4.871  14.693  0.00  0.00    +0.000 A 
ATOM     25  C   UNL     1       7.717   5.421  14.014  0.00  0.00    +0.000 A 
ATOM     26  C   UNL     1       7.940   5.107  12.670  0.00  0.00    +0.000 A 
ATOM     27  C   UNL     1       7.038   4.293  11.984  0.00  0.00    +0.000 A 
ATOM     28  C   UNL     1       5.926   3.782  12.650  0.00  0.00    +0.000 A 
ATOM     29 CL   UNL     1       4.783   2.829  11.784  0.00  0.00    +0.000 Cl
ATOM     30  C   UNL     1       5.727   4.049  14.005  0.00  0.00    +0.000 A 
ENDBRANCH  22  24
ENDBRANCH  19  20
ENDBRANCH   8  19
TORSDOF 5
ENDMDL
