MODEL 1
REMARK VINA RESULT:      -8.8      0.000      0.000
REMARK  Name = 
REMARK  4 active torsions:
REMARK  status: ('A' for Active; 'I' for Inactive)
REMARK    1  A    between atoms: C_2  and  O_3
REMARK    2  A    between atoms: C_2  and  C_4
REMARK    3  A    between atoms: C_11  and  N_12
REMARK    4  A    between atoms: N_12  and  C_13
REMARK                            x       y       z     vdW  Elec       q    Type
REMARK                         _______ _______ _______ _____ _____    ______ ____
ROOT
ATOM      1  C   UNL     1       5.949   5.376  16.644  0.00  0.00    +0.000 A 
ATOM      2  C   UNL     1       5.472   4.114  16.285  0.00  0.00    +0.000 A 
ATOM      3  C   UNL     1       4.364   3.582  16.940  0.00  0.00    +0.000 A 
ATOM      4  C   UNL     1       3.726   4.325  17.959  0.00  0.00    +0.000 A 
ATOM      5  C   UNL     1       4.201   5.595  18.316  0.00  0.00    +0.000 A 
ATOM      6  C   UNL     1       5.298   6.110  17.645  0.00  0.00    +0.000 A 
ATOM      7  N   UNL     1       3.645   6.333  19.278  0.00  0.00    +0.000 NA
ATOM      8  C   UNL     1       2.548   5.916  19.964  0.00  0.00    +0.000 A 
ATOM      9  C   UNL     1       1.983   4.649  19.665  0.00  0.00    +0.000 A 
ATOM     10  C   UNL     1       0.855   3.964  20.249  0.00  0.00    +0.000 A 
ATOM     11  C   UNL     1       0.631   2.723  19.707  0.00  0.00    +0.000 A 
ATOM     12  S   UNL     1       1.757   2.352  18.492  0.00  0.00    +0.000 S 
ATOM     13  C   UNL     1       2.587   3.863  18.673  0.00  0.00    +0.000 A 
ENDROOT
BRANCH   1  15
ATOM     14  O   UNL     1       7.535   5.425  14.880  0.00  0.00    +0.000 OA
ATOM     15  C   UNL     1       7.119   5.919  15.914  0.00  0.00    +0.000 C 
BRANCH  15  16
ATOM     16  O   UNL     1       7.710   6.965  16.524  0.00  0.00    +0.000 OA
ATOM     17  H   UNL     1       7.983   6.818  17.448  0.00  0.00    +0.000 HD
ENDBRANCH  15  16
ENDBRANCH   1  15
BRANCH   8  18
ATOM     18  N   UNL     1       2.002   6.774  20.931  0.00  0.00    +0.000 N 
ATOM     19  H   UNL     1       2.291   6.588  21.881  0.00  0.00    +0.000 HD
BRANCH  18  20
ATOM     20  C   UNL     1       1.474   8.061  20.727  0.00  0.00    +0.000 A 
ATOM     21  C   UNL     1       0.962   8.779  21.813  0.00  0.00    +0.000 A 
ATOM     22  C   UNL     1       0.413  10.046  21.623  0.00  0.00    +0.000 A 
ATOM     23  F   UNL     1      -0.078  10.713  22.675  0.00  0.00    +0.000 F 
ATOM     24  C   UNL     1       0.365  10.628  20.367  0.00  0.00    +0.000 A 
ATOM     25  C   UNL     1       0.865   9.918  19.288  0.00  0.00    +0.000 A 
ATOM     26  F   UNL     1       0.836  10.464  18.065  0.00  0.00    +0.000 F 
ATOM     27  C   UNL     1       1.404   8.645  19.454  0.00  0.00    +0.000 A 
ENDBRANCH  18  20
ENDBRANCH   8  18
TORSDOF 4
ENDMDL
MODEL 2
REMARK VINA RESULT:      -8.8      0.313      1.642
REMARK  Name = 
REMARK  4 active torsions:
REMARK  status: ('A' for Active; 'I' for Inactive)
REMARK    1  A    between atoms: C_2  and  O_3
REMARK    2  A    between atoms: C_2  and  C_4
REMARK    3  A    between atoms: C_11  and  N_12
REMARK    4  A    between atoms: N_12  and  C_13
REMARK                            x       y       z     vdW  Elec       q    Type
REMARK                         _______ _______ _______ _____ _____    ______ ____
ROOT
ATOM      1  C   UNL     1       5.898   5.225  16.518  0.00  0.00    +0.000 A 
ATOM      2  C   UNL     1       5.394   3.963  16.198  0.00  0.00    +0.000 A 
ATOM      3  C   UNL     1       4.294   3.463  16.889  0.00  0.00    +0.000 A 
ATOM      4  C   UNL     1       3.690   4.238  17.905  0.00  0.00    +0.000 A 
ATOM      5  C   UNL     1       4.192   5.508  18.224  0.00  0.00    +0.000 A 
ATOM      6  C   UNL     1       5.281   5.991  17.517  0.00  0.00    +0.000 A 
ATOM      7  N   UNL     1       3.669   6.275  19.181  0.00  0.00    +0.000 NA
ATOM      8  C   UNL     1       2.582   5.890  19.900  0.00  0.00    +0.000 A 
ATOM      9  C   UNL     1       1.990   4.627  19.641  0.00  0.00    +0.000 A 
ATOM     10  C   UNL     1       0.866   3.972  20.265  0.00  0.00    +0.000 A 
ATOM     11  C   UNL     1       0.611   2.723  19.756  0.00  0.00    +0.000 A 
ATOM     12  S   UNL     1       1.704   2.308  18.525  0.00  0.00    +0.000 S 
ATOM     13  C   UNL     1       2.560   3.810  18.654  0.00  0.00    +0.000 A 
ENDROOT
BRANCH   1  15
ATOM     14  O   UNL     1       7.420   5.236  14.698  0.00  0.00    +0.000 OA
ATOM     15  C   UNL     1       7.061   5.734  15.751  0.00  0.00    +0.000 C 
BRANCH  15  16
ATOM     16  O   UNL     1       7.711   6.751  16.349  0.00  0.00    +0.000 OA
ATOM     17  H   UNL     1       8.194   6.525  17.164  0.00  0.00    +0.000 HD
ENDBRANCH  15  16
ENDBRANCH   1  15
BRANCH   8  18
ATOM     18  N   UNL     1       2.070   6.778  20.860  0.00  0.00    +0.000 N 
ATOM     19  H   UNL     1       2.494   6.711  21.775  0.00  0.00    +0.000 HD
BRANCH  18  20
ATOM     20  C   UNL     1       1.385   7.983  20.625  0.00  0.00    +0.000 A 
ATOM     21  C   UNL     1       1.556   8.650  19.408  0.00  0.00    +0.000 A 
ATOM     22  C   UNL     1       0.902   9.858  19.170  0.00  0.00    +0.000 A 
ATOM     23  F   UNL     1       1.086  10.483  18.000  0.00  0.00    +0.000 F 
ATOM     24  C   UNL     1       0.069  10.425  20.120  0.00  0.00    +0.000 A 
ATOM     25  C   UNL     1      -0.097   9.771  21.329  0.00  0.00    +0.000 A 
ATOM     26  F   UNL     1      -0.904  10.296  22.260  0.00  0.00    +0.000 F 
ATOM     27  C   UNL     1       0.558   8.571  21.592  0.00  0.00    +0.000 A 
ENDBRANCH  18  20
ENDBRANCH   8  18
TORSDOF 4
ENDMDL
MODEL 3
REMARK VINA RESULT:      -8.1      1.843      2.797
REMARK  Name = 
REMARK  4 active torsions:
REMARK  status: ('A' for Active; 'I' for Inactive)
REMARK    1  A    between atoms: C_2  and  O_3
REMARK    2  A    between atoms: C_2  and  C_4
REMARK    3  A    between atoms: C_11  and  N_12
REMARK    4  A    between atoms: N_12  and  C_13
REMARK                            x       y       z     vdW  Elec       q    Type
REMARK                         _______ _______ _______ _____ _____    ______ ____
ROOT
ATOM      1  C   UNL     1       5.773   4.853  15.499  0.00  0.00    +0.000 A 
ATOM      2  C   UNL     1       5.430   3.731  16.255  0.00  0.00    +0.000 A 
ATOM      3  C   UNL     1       4.572   3.867  17.343  0.00  0.00    +0.000 A 
ATOM      4  C   UNL     1       4.050   5.139  17.672  0.00  0.00    +0.000 A 
ATOM      5  C   UNL     1       4.389   6.265  16.909  0.00  0.00    +0.000 A 
ATOM      6  C   UNL     1       5.235   6.106  15.824  0.00  0.00    +0.000 A 
ATOM      7  N   UNL     1       3.935   7.489  17.182  0.00  0.00    +0.000 NA
ATOM      8  C   UNL     1       3.076   7.727  18.208  0.00  0.00    +0.000 A 
ATOM      9  C   UNL     1       2.660   6.648  19.030  0.00  0.00    +0.000 A 
ATOM     10  C   UNL     1       1.792   6.628  20.182  0.00  0.00    +0.000 A 
ATOM     11  C   UNL     1       1.654   5.380  20.738  0.00  0.00    +0.000 A 
ATOM     12  S   UNL     1       2.552   4.211  19.897  0.00  0.00    +0.000 S 
ATOM     13  C   UNL     1       3.162   5.367  18.759  0.00  0.00    +0.000 A 
ENDROOT
BRANCH   1  15
ATOM     14  O   UNL     1       7.591   5.434  14.089  0.00  0.00    +0.000 OA
ATOM     15  C   UNL     1       6.675   4.668  14.337  0.00  0.00    +0.000 C 
BRANCH  15  16
ATOM     16  O   UNL     1       6.357   3.617  13.556  0.00  0.00    +0.000 OA
ATOM     17  H   UNL     1       6.700   3.647  12.644  0.00  0.00    +0.000 HD
ENDBRANCH  15  16
ENDBRANCH   1  15
BRANCH   8  18
ATOM     18  N   UNL     1       2.614   9.039  18.398  0.00  0.00    +0.000 N 
ATOM     19  H   UNL     1       3.230   9.764  18.058  0.00  0.00    +0.000 HD
BRANCH  18  20
ATOM     20  C   UNL     1       1.285   9.453  18.595  0.00  0.00    +0.000 A 
ATOM     21  C   UNL     1       0.368   9.358  17.542  0.00  0.00    +0.000 A 
ATOM     22  C   UNL     1      -0.948   9.787  17.714  0.00  0.00    +0.000 A 
ATOM     23  F   UNL     1      -1.807   9.692  16.691  0.00  0.00    +0.000 F 
ATOM     24  C   UNL     1      -1.382  10.310  18.921  0.00  0.00    +0.000 A 
ATOM     25  C   UNL     1      -0.475  10.412  19.963  0.00  0.00    +0.000 A 
ATOM     26  F   UNL     1      -0.874  10.908  21.141  0.00  0.00    +0.000 F 
ATOM     27  C   UNL     1       0.846  10.003  19.807  0.00  0.00    +0.000 A 
ENDBRANCH  18  20
ENDBRANCH   8  18
TORSDOF 4
ENDMDL
MODEL 4
REMARK VINA RESULT:      -8.1      1.815      2.286
REMARK  Name = 
REMARK  4 active torsions:
REMARK  status: ('A' for Active; 'I' for Inactive)
REMARK    1  A    between atoms: C_2  and  O_3
REMARK    2  A    between atoms: C_2  and  C_4
REMARK    3  A    between atoms: C_11  and  N_12
REMARK    4  A    between atoms: N_12  and  C_13
REMARK                            x       y       z     vdW  Elec       q    Type
REMARK                         _______ _______ _______ _____ _____    ______ ____
ROOT
ATOM      1  C   UNL     1       5.723   4.788  15.560  0.00  0.00    +0.000 A 
ATOM      2  C   UNL     1       5.354   3.658  16.293  0.00  0.00    +0.000 A 
ATOM      3  C   UNL     1       4.490   3.790  17.377  0.00  0.00    +0.000 A 
ATOM      4  C   UNL     1       3.988   5.064  17.726  0.00  0.00    +0.000 A 
ATOM      5  C   UNL     1       4.354   6.198  16.988  0.00  0.00    +0.000 A 
ATOM      6  C   UNL     1       5.206   6.044  15.906  0.00  0.00    +0.000 A 
ATOM      7  N   UNL     1       3.921   7.425  17.280  0.00  0.00    +0.000 NA
ATOM      8  C   UNL     1       3.059   7.660  18.304  0.00  0.00    +0.000 A 
ATOM      9  C   UNL     1       2.617   6.573  19.102  0.00  0.00    +0.000 A 
ATOM     10  C   UNL     1       1.739   6.547  20.247  0.00  0.00    +0.000 A 
ATOM     11  C   UNL     1       1.573   5.292  20.778  0.00  0.00    +0.000 A 
ATOM     12  S   UNL     1       2.457   4.122  19.921  0.00  0.00    +0.000 S 
ATOM     13  C   UNL     1       3.097   5.289  18.810  0.00  0.00    +0.000 A 
ENDROOT
BRANCH   1  15
ATOM     14  O   UNL     1       7.519   5.400  14.136  0.00  0.00    +0.000 OA
ATOM     15  C   UNL     1       6.631   4.608  14.402  0.00  0.00    +0.000 C 
BRANCH  15  16
ATOM     16  O   UNL     1       6.349   3.529  13.645  0.00  0.00    +0.000 OA
ATOM     17  H   UNL     1       5.837   3.702  12.834  0.00  0.00    +0.000 HD
ENDBRANCH  15  16
ENDBRANCH   1  15
BRANCH   8  18
ATOM     18  N   UNL     1       2.620   8.976  18.516  0.00  0.00    +0.000 N 
ATOM     19  H   UNL     1       3.287   9.695  18.274  0.00  0.00    +0.000 HD
BRANCH  18  20
ATOM     20  C   UNL     1       1.291   9.426  18.607  0.00  0.00    +0.000 A 
ATOM     21  C   UNL     1       0.837  10.005  19.796  0.00  0.00    +0.000 A 
ATOM     22  C   UNL     1      -0.485  10.434  19.911  0.00  0.00    +0.000 A 
ATOM     23  F   UNL     1      -0.901  10.979  21.061  0.00  0.00    +0.000 F 
ATOM     24  C   UNL     1      -1.376  10.305  18.858  0.00  0.00    +0.000 A 
ATOM     25  C   UNL     1      -0.932   9.727  17.681  0.00  0.00    +0.000 A 
ATOM     26  F   UNL     1      -1.774   9.599  16.647  0.00  0.00    +0.000 F 
ATOM     27  C   UNL     1       0.379   9.278  17.552  0.00  0.00    +0.000 A 
ENDBRANCH  18  20
ENDBRANCH   8  18
TORSDOF 4
ENDMDL
MODEL 5
REMARK VINA RESULT:      -7.8      4.391      7.078
REMARK  Name = 
REMARK  4 active torsions:
REMARK  status: ('A' for Active; 'I' for Inactive)
REMARK    1  A    between atoms: C_2  and  O_3
REMARK    2  A    between atoms: C_2  and  C_4
REMARK    3  A    between atoms: C_11  and  N_12
REMARK    4  A    between atoms: N_12  and  C_13
REMARK                            x       y       z     vdW  Elec       q    Type
REMARK                         _______ _______ _______ _____ _____    ______ ____
ROOT
ATOM      1  C   UNL     1       2.219   8.517  18.283  0.00  0.00    +0.000 A 
ATOM      2  C   UNL     1       1.642   8.048  19.465  0.00  0.00    +0.000 A 
ATOM      3  C   UNL     1       1.973   6.783  19.941  0.00  0.00    +0.000 A 
ATOM      4  C   UNL     1       2.895   5.982  19.229  0.00  0.00    +0.000 A 
ATOM      5  C   UNL     1       3.480   6.454  18.045  0.00  0.00    +0.000 A 
ATOM      6  C   UNL     1       3.145   7.721  17.594  0.00  0.00    +0.000 A 
ATOM      7  N   UNL     1       4.345   5.737  17.328  0.00  0.00    +0.000 NA
ATOM      8  C   UNL     1       4.752   4.499  17.715  0.00  0.00    +0.000 A 
ATOM      9  C   UNL     1       4.228   3.939  18.909  0.00  0.00    +0.000 A 
ATOM     10  C   UNL     1       4.465   2.656  19.525  0.00  0.00    +0.000 A 
ATOM     11  C   UNL     1       3.740   2.462  20.675  0.00  0.00    +0.000 A 
ATOM     12  S   UNL     1       2.767   3.804  21.043  0.00  0.00    +0.000 S 
ATOM     13  C   UNL     1       3.296   4.684  19.646  0.00  0.00    +0.000 A 
ENDROOT
BRANCH   1  15
ATOM     14  O   UNL     1       2.683  10.759  17.662  0.00  0.00    +0.000 OA
ATOM     15  C   UNL     1       1.857   9.876  17.815  0.00  0.00    +0.000 C 
BRANCH  15  16
ATOM     16  O   UNL     1       0.535  10.059  17.628  0.00  0.00    +0.000 OA
ATOM     17  H   UNL     1       0.282  10.873  17.156  0.00  0.00    +0.000 HD
ENDBRANCH  15  16
ENDBRANCH   1  15
BRANCH   8  18
ATOM     18  N   UNL     1       5.698   3.831  16.923  0.00  0.00    +0.000 N 
ATOM     19  H   UNL     1       5.945   2.904  17.240  0.00  0.00    +0.000 HD
BRANCH  18  20
ATOM     20  C   UNL     1       6.015   4.086  15.577  0.00  0.00    +0.000 A 
ATOM     21  C   UNL     1       5.193   3.580  14.565  0.00  0.00    +0.000 A 
ATOM     22  C   UNL     1       5.507   3.804  13.225  0.00  0.00    +0.000 A 
ATOM     23  F   UNL     1       4.710   3.303  12.273  0.00  0.00    +0.000 F 
ATOM     24  C   UNL     1       6.627   4.532  12.861  0.00  0.00    +0.000 A 
ATOM     25  C   UNL     1       7.447   5.029  13.860  0.00  0.00    +0.000 A 
ATOM     26  F   UNL     1       8.532   5.742  13.532  0.00  0.00    +0.000 F 
ATOM     27  C   UNL     1       7.160   4.804  15.203  0.00  0.00    +0.000 A 
ENDBRANCH  18  20
ENDBRANCH   8  18
TORSDOF 4
ENDMDL
MODEL 6
REMARK VINA RESULT:      -7.8      4.102      6.819
REMARK  Name = 
REMARK  4 active torsions:
REMARK  status: ('A' for Active; 'I' for Inactive)
REMARK    1  A    between atoms: C_2  and  O_3
REMARK    2  A    between atoms: C_2  and  C_4
REMARK    3  A    between atoms: C_11  and  N_12
REMARK    4  A    between atoms: N_12  and  C_13
REMARK                            x       y       z     vdW  Elec       q    Type
REMARK                         _______ _______ _______ _____ _____    ______ ____
ROOT
ATOM      1  C   UNL     1       1.342   9.053  19.710  0.00  0.00    +0.000 A 
ATOM      2  C   UNL     1       1.072   8.462  20.946  0.00  0.00    +0.000 A 
ATOM      3  C   UNL     1       1.350   7.112  21.141  0.00  0.00    +0.000 A 
ATOM      4  C   UNL     1       1.909   6.350  20.091  0.00  0.00    +0.000 A 
ATOM      5  C   UNL     1       2.186   6.944  18.851  0.00  0.00    +0.000 A 
ATOM      6  C   UNL     1       1.912   8.291  18.681  0.00  0.00    +0.000 A 
ATOM      7  N   UNL     1       2.701   6.269  17.823  0.00  0.00    +0.000 NA
ATOM      8  C   UNL     1       3.029   4.954  17.915  0.00  0.00    +0.000 A 
ATOM      9  C   UNL     1       2.800   4.265  19.135  0.00  0.00    +0.000 A 
ATOM     10  C   UNL     1       3.027   2.885  19.489  0.00  0.00    +0.000 A 
ATOM     11  C   UNL     1       2.645   2.582  20.773  0.00  0.00    +0.000 A 
ATOM     12  S   UNL     1       2.012   3.936  21.579  0.00  0.00    +0.000 S 
ATOM     13  C   UNL     1       2.231   4.970  20.205  0.00  0.00    +0.000 A 
ENDROOT
BRANCH   1  15
ATOM     14  O   UNL     1       0.770  11.223  20.481  0.00  0.00    +0.000 OA
ATOM     15  C   UNL     1       1.050  10.497  19.543  0.00  0.00    +0.000 C 
BRANCH  15  16
ATOM     16  O   UNL     1       1.067  10.916  18.262  0.00  0.00    +0.000 OA
ATOM     17  H   UNL     1       1.766  11.556  18.035  0.00  0.00    +0.000 HD
ENDBRANCH  15  16
ENDBRANCH   1  15
BRANCH   8  18
ATOM     18  N   UNL     1       3.606   4.331  16.797  0.00  0.00    +0.000 N 
ATOM     19  H   UNL     1       2.953   4.046  16.080  0.00  0.00    +0.000 HD
BRANCH  18  20
ATOM     20  C   UNL     1       4.939   4.431  16.361  0.00  0.00    +0.000 A 
ATOM     21  C   UNL     1       5.975   4.432  17.301  0.00  0.00    +0.000 A 
ATOM     22  C   UNL     1       7.301   4.555  16.886  0.00  0.00    +0.000 A 
ATOM     23  F   UNL     1       8.277   4.561  17.803  0.00  0.00    +0.000 F 
ATOM     24  C   UNL     1       7.627   4.672  15.545  0.00  0.00    +0.000 A 
ATOM     25  C   UNL     1       6.603   4.678  14.612  0.00  0.00    +0.000 A 
ATOM     26  F   UNL     1       6.895   4.783  13.309  0.00  0.00    +0.000 F 
ATOM     27  C   UNL     1       5.272   4.572  15.007  0.00  0.00    +0.000 A 
ENDBRANCH  18  20
ENDBRANCH   8  18
TORSDOF 4
ENDMDL
MODEL 7
REMARK VINA RESULT:      -7.7      4.247      7.017
REMARK  Name = 
REMARK  4 active torsions:
REMARK  status: ('A' for Active; 'I' for Inactive)
REMARK    1  A    between atoms: C_2  and  O_3
REMARK    2  A    between atoms: C_2  and  C_4
REMARK    3  A    between atoms: C_11  and  N_12
REMARK    4  A    between atoms: N_12  and  C_13
REMARK                            x       y       z     vdW  Elec       q    Type
REMARK                         _______ _______ _______ _____ _____    ______ ____
ROOT
ATOM      1  C   UNL     1       2.032   8.581  18.575  0.00  0.00    +0.000 A 
ATOM      2  C   UNL     1       1.365   7.975  19.642  0.00  0.00    +0.000 A 
ATOM      3  C   UNL     1       1.723   6.690  20.040  0.00  0.00    +0.000 A 
ATOM      4  C   UNL     1       2.762   6.009  19.366  0.00  0.00    +0.000 A 
ATOM      5  C   UNL     1       3.436   6.618  18.299  0.00  0.00    +0.000 A 
ATOM      6  C   UNL     1       3.072   7.902  17.925  0.00  0.00    +0.000 A 
ATOM      7  N   UNL     1       4.414   6.017  17.621  0.00  0.00    +0.000 NA
ATOM      8  C   UNL     1       4.854   4.771  17.942  0.00  0.00    +0.000 A 
ATOM      9  C   UNL     1       4.245   4.077  19.019  0.00  0.00    +0.000 A 
ATOM     10  C   UNL     1       4.495   2.756  19.544  0.00  0.00    +0.000 A 
ATOM     11  C   UNL     1       3.668   2.418  20.587  0.00  0.00    +0.000 A 
ATOM     12  S   UNL     1       2.581   3.668  20.960  0.00  0.00    +0.000 S 
ATOM     13  C   UNL     1       3.197   4.700  19.711  0.00  0.00    +0.000 A 
ENDROOT
BRANCH   1  15
ATOM     14  O   UNL     1       0.679  10.527  18.682  0.00  0.00    +0.000 OA
ATOM     15  C   UNL     1       1.637   9.957  18.189  0.00  0.00    +0.000 C 
BRANCH  15  16
ATOM     16  O   UNL     1       2.394  10.491  17.211  0.00  0.00    +0.000 OA
ATOM     17  H   UNL     1       2.663   9.880  16.501  0.00  0.00    +0.000 HD
ENDBRANCH  15  16
ENDBRANCH   1  15
BRANCH   8  18
ATOM     18  N   UNL     1       5.918   4.230  17.203  0.00  0.00    +0.000 N 
ATOM     19  H   UNL     1       6.407   3.468  17.652  0.00  0.00    +0.000 HD
BRANCH  18  20
ATOM     20  C   UNL     1       6.115   4.306  15.813  0.00  0.00    +0.000 A 
ATOM     21  C   UNL     1       7.265   4.925  15.311  0.00  0.00    +0.000 A 
ATOM     22  C   UNL     1       7.463   5.030  13.935  0.00  0.00    +0.000 A 
ATOM     23  F   UNL     1       8.568   5.632  13.476  0.00  0.00    +0.000 F 
ATOM     24  C   UNL     1       6.539   4.526  13.034  0.00  0.00    +0.000 A 
ATOM     25  C   UNL     1       5.396   3.919  13.528  0.00  0.00    +0.000 A 
ATOM     26  F   UNL     1       4.493   3.418  12.676  0.00  0.00    +0.000 F 
ATOM     27  C   UNL     1       5.172   3.817  14.898  0.00  0.00    +0.000 A 
ENDBRANCH  18  20
ENDBRANCH   8  18
TORSDOF 4
ENDMDL
MODEL 8
REMARK VINA RESULT:      -7.6      3.906      6.914
REMARK  Name = 
REMARK  4 active torsions:
REMARK  status: ('A' for Active; 'I' for Inactive)
REMARK    1  A    between atoms: C_2  and  O_3
REMARK    2  A    between atoms: C_2  and  C_4
REMARK    3  A    between atoms: C_11  and  N_12
REMARK    4  A    between atoms: N_12  and  C_13
REMARK                            x       y       z     vdW  Elec       q    Type
REMARK                         _______ _______ _______ _____ _____    ______ ____
ROOT
ATOM      1  C   UNL     1       1.407   8.959  19.576  0.00  0.00    +0.000 A 
ATOM      2  C   UNL     1       1.127   8.416  20.831  0.00  0.00    +0.000 A 
ATOM      3  C   UNL     1       1.417   7.078  21.086  0.00  0.00    +0.000 A 
ATOM      4  C   UNL     1       1.998   6.280  20.074  0.00  0.00    +0.000 A 
ATOM      5  C   UNL     1       2.285   6.825  18.815  0.00  0.00    +0.000 A 
ATOM      6  C   UNL     1       1.999   8.162  18.586  0.00  0.00    +0.000 A 
ATOM      7  N   UNL     1       2.821   6.115  17.822  0.00  0.00    +0.000 NA
ATOM      8  C   UNL     1       3.160   4.808  17.973  0.00  0.00    +0.000 A 
ATOM      9  C   UNL     1       2.924   4.168  19.217  0.00  0.00    +0.000 A 
ATOM     10  C   UNL     1       3.160   2.806  19.631  0.00  0.00    +0.000 A 
ATOM     11  C   UNL     1       2.765   2.552  20.921  0.00  0.00    +0.000 A 
ATOM     12  S   UNL     1       2.108   3.930  21.663  0.00  0.00    +0.000 S 
ATOM     13  C   UNL     1       2.333   4.910  20.250  0.00  0.00    +0.000 A 
ENDROOT
BRANCH   1  15
ATOM     14  O   UNL     1       1.088  11.212  20.246  0.00  0.00    +0.000 OA
ATOM     15  C   UNL     1       1.102  10.391  19.345  0.00  0.00    +0.000 C 
BRANCH  15  16
ATOM     16  O   UNL     1       0.789  10.687  18.068  0.00  0.00    +0.000 OA
ATOM     17  H   UNL     1       0.043  11.302  17.946  0.00  0.00    +0.000 HD
ENDBRANCH  15  16
ENDBRANCH   1  15
BRANCH   8  18
ATOM     18  N   UNL     1       3.759   4.146  16.889  0.00  0.00    +0.000 N 
ATOM     19  H   UNL     1       3.137   3.565  16.344  0.00  0.00    +0.000 HD
BRANCH  18  20
ATOM     20  C   UNL     1       4.949   4.499  16.228  0.00  0.00    +0.000 A 
ATOM     21  C   UNL     1       5.256   3.911  14.996  0.00  0.00    +0.000 A 
ATOM     22  C   UNL     1       6.443   4.233  14.340  0.00  0.00    +0.000 A 
ATOM     23  F   UNL     1       6.720   3.653  13.165  0.00  0.00    +0.000 F 
ATOM     24  C   UNL     1       7.342   5.137  14.880  0.00  0.00    +0.000 A 
ATOM     25  C   UNL     1       7.045   5.716  16.103  0.00  0.00    +0.000 A 
ATOM     26  F   UNL     1       7.895   6.599  16.641  0.00  0.00    +0.000 F 
ATOM     27  C   UNL     1       5.872   5.398  16.781  0.00  0.00    +0.000 A 
ENDBRANCH  18  20
ENDBRANCH   8  18
TORSDOF 4
ENDMDL
MODEL 9
REMARK VINA RESULT:      -7.5      1.040      1.141
REMARK  Name = 
REMARK  4 active torsions:
REMARK  status: ('A' for Active; 'I' for Inactive)
REMARK    1  A    between atoms: C_2  and  O_3
REMARK    2  A    between atoms: C_2  and  C_4
REMARK    3  A    between atoms: C_11  and  N_12
REMARK    4  A    between atoms: N_12  and  C_13
REMARK                            x       y       z     vdW  Elec       q    Type
REMARK                         _______ _______ _______ _____ _____    ______ ____
ROOT
ATOM      1  C   UNL     1       4.852   5.489  16.314  0.00  0.00    +0.000 A 
ATOM      2  C   UNL     1       4.759   4.097  16.361  0.00  0.00    +0.000 A 
ATOM      3  C   UNL     1       4.077   3.486  17.409  0.00  0.00    +0.000 A 
ATOM      4  C   UNL     1       3.477   4.277  18.415  0.00  0.00    +0.000 A 
ATOM      5  C   UNL     1       3.564   5.676  18.365  0.00  0.00    +0.000 A 
ATOM      6  C   UNL     1       4.239   6.265  17.308  0.00  0.00    +0.000 A 
ATOM      7  N   UNL     1       3.028   6.469  19.293  0.00  0.00    +0.000 NA
ATOM      8  C   UNL     1       2.324   5.975  20.345  0.00  0.00    +0.000 A 
ATOM      9  C   UNL     1       2.165   4.571  20.476  0.00  0.00    +0.000 A 
ATOM     10  C   UNL     1       1.499   3.794  21.493  0.00  0.00    +0.000 A 
ATOM     11  C   UNL     1       1.589   2.439  21.289  0.00  0.00    +0.000 A 
ATOM     12  S   UNL     1       2.465   2.069  19.882  0.00  0.00    +0.000 S 
ATOM     13  C   UNL     1       2.755   3.738  19.515  0.00  0.00    +0.000 A 
ENDROOT
BRANCH   1  15
ATOM     14  O   UNL     1       5.135   7.070  14.567  0.00  0.00    +0.000 OA
ATOM     15  C   UNL     1       5.572   6.108  15.175  0.00  0.00    +0.000 C 
BRANCH  15  16
ATOM     16  O   UNL     1       6.715   5.478  14.841  0.00  0.00    +0.000 OA
ATOM     17  H   UNL     1       7.397   5.439  15.536  0.00  0.00    +0.000 HD
ENDBRANCH  15  16
ENDBRANCH   1  15
BRANCH   8  18
ATOM     18  N   UNL     1       1.756   6.884  21.252  0.00  0.00    +0.000 N 
ATOM     19  H   UNL     1       1.972   6.710  22.224  0.00  0.00    +0.000 HD
BRANCH  18  20
ATOM     20  C   UNL     1       1.308   8.189  20.982  0.00  0.00    +0.000 A 
ATOM     21  C   UNL     1       0.732   8.947  22.007  0.00  0.00    +0.000 A 
ATOM     22  C   UNL     1       0.259  10.234  21.749  0.00  0.00    +0.000 A 
ATOM     23  F   UNL     1      -0.295  10.940  22.743  0.00  0.00    +0.000 F 
ATOM     24  C   UNL     1       0.351  10.794  20.486  0.00  0.00    +0.000 A 
ATOM     25  C   UNL     1       0.915  10.044  19.468  0.00  0.00    +0.000 A 
ATOM     26  F   UNL     1       1.021  10.568  18.240  0.00  0.00    +0.000 F 
ATOM     27  C   UNL     1       1.379   8.752  19.700  0.00  0.00    +0.000 A 
ENDBRANCH  18  20
ENDBRANCH   8  18
TORSDOF 4
ENDMDL
