MODEL 1
REMARK VINA RESULT:      -6.8      0.000      0.000
REMARK  Name = 
REMARK  4 active torsions:
REMARK  status: ('A' for Active; 'I' for Inactive)
REMARK    1  A    between atoms: C_1  and  N_2
REMARK    2  A    between atoms: N_2  and  C_3
REMARK    3  A    between atoms: N_2  and  C_4
REMARK    4  A    between atoms: C_4  and  C_5
REMARK                            x       y       z     vdW  Elec       q    Type
REMARK                         _______ _______ _______ _____ _____    ______ ____
ROOT
ATOM      1  C   UNL     1       3.872   4.519  18.151  0.00  0.00    +0.000 C 
ATOM      2  C   UNL     1       4.501   4.520  16.693  0.00  0.00    +0.000 C 
ATOM      3  C   UNL     1       5.748   5.432  16.567  0.00  0.00    +0.000 C 
ATOM      4  C   UNL     1       6.835   4.986  17.557  0.00  0.00    +0.000 C 
ATOM      5  C   UNL     1       6.303   5.059  18.987  0.00  0.00    +0.000 C 
ATOM      6  C   UNL     1       5.065   4.209  19.072  0.00  0.00    +0.000 C 
ATOM      7  O   UNL     1       5.048   3.272  19.855  0.00  0.00    +0.000 OA
ENDROOT
BRANCH   1   8
ATOM      8  C   UNL     1       3.247   5.902  18.557  0.00  0.00    +0.000 A 
ATOM      9  C   UNL     1       3.253   6.992  17.642  0.00  0.00    +0.000 A 
ATOM     10  C   UNL     1       2.613   8.200  17.936  0.00  0.00    +0.000 A 
ATOM     11  C   UNL     1       1.962   8.374  19.149  0.00  0.00    +0.000 A 
ATOM     12  C   UNL     1       1.929   7.334  20.068  0.00  0.00    +0.000 A 
ATOM     13  C   UNL     1       2.541   6.103  19.789  0.00  0.00    +0.000 A 
ATOM     14 CL   UNL     1       2.339   4.881  21.040  0.00  0.00    +0.000 Cl
ENDBRANCH   1   8
BRANCH   1  16
ATOM     15  C   UNL     1       3.153   2.113  17.783  0.00  0.00    +0.000 C 
ATOM     16  N   UNL     1       2.796   3.465  18.282  0.00  0.00    +0.000 NA
ATOM     17  C   UNL     1       1.509   3.843  17.653  0.00  0.00    +0.000 C 
ENDBRANCH   1  16
TORSDOF 2
ENDMDL
MODEL 2
REMARK VINA RESULT:      -6.4      1.771      4.322
REMARK  Name = 
REMARK  4 active torsions:
REMARK  status: ('A' for Active; 'I' for Inactive)
REMARK    1  A    between atoms: C_1  and  N_2
REMARK    2  A    between atoms: N_2  and  C_3
REMARK    3  A    between atoms: N_2  and  C_4
REMARK    4  A    between atoms: C_4  and  C_5
REMARK                            x       y       z     vdW  Elec       q    Type
REMARK                         _______ _______ _______ _____ _____    ______ ____
ROOT
ATOM      1  C   UNL     1       3.647   4.804  18.334  0.00  0.00    +0.000 C 
ATOM      2  C   UNL     1       2.289   4.319  17.666  0.00  0.00    +0.000 C 
ATOM      3  C   UNL     1       2.227   2.785  17.457  0.00  0.00    +0.000 C 
ATOM      4  C   UNL     1       2.387   2.057  18.801  0.00  0.00    +0.000 C 
ATOM      5  C   UNL     1       3.727   2.422  19.438  0.00  0.00    +0.000 C 
ATOM      6  C   UNL     1       3.786   3.918  19.584  0.00  0.00    +0.000 C 
ATOM      7  O   UNL     1       3.916   4.395  20.700  0.00  0.00    +0.000 OA
ENDROOT
BRANCH   1   8
ATOM      8  C   UNL     1       4.899   4.600  17.408  0.00  0.00    +0.000 A 
ATOM      9  C   UNL     1       4.735   4.217  16.048  0.00  0.00    +0.000 A 
ATOM     10  C   UNL     1       5.823   4.129  15.173  0.00  0.00    +0.000 A 
ATOM     11  C   UNL     1       7.108   4.399  15.622  0.00  0.00    +0.000 A 
ATOM     12  C   UNL     1       7.312   4.780  16.940  0.00  0.00    +0.000 A 
ATOM     13  C   UNL     1       6.235   4.902  17.832  0.00  0.00    +0.000 A 
ATOM     14 CL   UNL     1       6.674   5.461  19.443  0.00  0.00    +0.000 Cl
ENDBRANCH   1   8
BRANCH   1  16
ATOM     15  C   UNL     1       2.371   6.684  19.467  0.00  0.00    +0.000 C 
ATOM     16  N   UNL     1       3.578   6.267  18.709  0.00  0.00    +0.000 NA
ATOM     17  C   UNL     1       3.717   7.188  17.556  0.00  0.00    +0.000 C 
ENDBRANCH   1  16
TORSDOF 2
ENDMDL
MODEL 3
REMARK VINA RESULT:      -6.3      2.468      3.914
REMARK  Name = 
REMARK  4 active torsions:
REMARK  status: ('A' for Active; 'I' for Inactive)
REMARK    1  A    between atoms: C_1  and  N_2
REMARK    2  A    between atoms: N_2  and  C_3
REMARK    3  A    between atoms: N_2  and  C_4
REMARK    4  A    between atoms: C_4  and  C_5
REMARK                            x       y       z     vdW  Elec       q    Type
REMARK                         _______ _______ _______ _____ _____    ______ ____
ROOT
ATOM      1  C   UNL     1       5.613   5.135  17.232  0.00  0.00    +0.000 C 
ATOM      2  C   UNL     1       6.590   4.028  16.647  0.00  0.00    +0.000 C 
ATOM      3  C   UNL     1       6.255   3.630  15.187  0.00  0.00    +0.000 C 
ATOM      4  C   UNL     1       6.322   4.862  14.270  0.00  0.00    +0.000 C 
ATOM      5  C   UNL     1       5.327   5.921  14.742  0.00  0.00    +0.000 C 
ATOM      6  C   UNL     1       5.640   6.253  16.176  0.00  0.00    +0.000 C 
ATOM      7  O   UNL     1       5.934   7.403  16.462  0.00  0.00    +0.000 OA
ENDROOT
BRANCH   1   8
ATOM      8  C   UNL     1       4.139   4.626  17.416  0.00  0.00    +0.000 A 
ATOM      9  C   UNL     1       3.841   3.237  17.333  0.00  0.00    +0.000 A 
ATOM     10  C   UNL     1       2.558   2.744  17.594  0.00  0.00    +0.000 A 
ATOM     11  C   UNL     1       1.527   3.611  17.928  0.00  0.00    +0.000 A 
ATOM     12  C   UNL     1       1.776   4.973  18.023  0.00  0.00    +0.000 A 
ATOM     13  C   UNL     1       3.059   5.491  17.791  0.00  0.00    +0.000 A 
ATOM     14 CL   UNL     1       3.203   7.231  18.024  0.00  0.00    +0.000 Cl
ENDBRANCH   1   8
BRANCH   1  16
ATOM     15  C   UNL     1       7.575   5.697  18.743  0.00  0.00    +0.000 C 
ATOM     16  N   UNL     1       6.101   5.641  18.571  0.00  0.00    +0.000 NA
ATOM     17  C   UNL     1       5.548   4.899  19.729  0.00  0.00    +0.000 C 
ENDBRANCH   1  16
TORSDOF 2
ENDMDL
MODEL 4
REMARK VINA RESULT:      -6.1      2.182      3.624
REMARK  Name = 
REMARK  4 active torsions:
REMARK  status: ('A' for Active; 'I' for Inactive)
REMARK    1  A    between atoms: C_1  and  N_2
REMARK    2  A    between atoms: N_2  and  C_3
REMARK    3  A    between atoms: N_2  and  C_4
REMARK    4  A    between atoms: C_4  and  C_5
REMARK                            x       y       z     vdW  Elec       q    Type
REMARK                         _______ _______ _______ _____ _____    ______ ____
ROOT
ATOM      1  C   UNL     1       4.920   4.638  18.194  0.00  0.00    +0.000 C 
ATOM      2  C   UNL     1       4.864   3.557  19.356  0.00  0.00    +0.000 C 
ATOM      3  C   UNL     1       3.534   2.762  19.385  0.00  0.00    +0.000 C 
ATOM      4  C   UNL     1       3.316   2.038  18.047  0.00  0.00    +0.000 C 
ATOM      5  C   UNL     1       3.269   3.053  16.906  0.00  0.00    +0.000 C 
ATOM      6  C   UNL     1       4.547   3.846  16.929  0.00  0.00    +0.000 C 
ATOM      7  O   UNL     1       5.273   3.820  15.948  0.00  0.00    +0.000 OA
ENDROOT
BRANCH   1   8
ATOM      8  C   UNL     1       3.899   5.814  18.393  0.00  0.00    +0.000 A 
ATOM      9  C   UNL     1       3.102   5.885  19.570  0.00  0.00    +0.000 A 
ATOM     10  C   UNL     1       2.261   6.974  19.822  0.00  0.00    +0.000 A 
ATOM     11  C   UNL     1       2.169   8.017  18.912  0.00  0.00    +0.000 A 
ATOM     12  C   UNL     1       2.933   7.989  17.753  0.00  0.00    +0.000 A 
ATOM     13  C   UNL     1       3.803   6.922  17.487  0.00  0.00    +0.000 A 
ATOM     14 CL   UNL     1       4.741   7.088  16.006  0.00  0.00    +0.000 Cl
ENDBRANCH   1   8
BRANCH   1  16
ATOM     15  C   UNL     1       7.312   4.397  17.379  0.00  0.00    +0.000 C 
ATOM     16  N   UNL     1       6.303   5.237  18.072  0.00  0.00    +0.000 NA
ATOM     17  C   UNL     1       6.890   5.656  19.367  0.00  0.00    +0.000 C 
ENDBRANCH   1  16
TORSDOF 2
ENDMDL
MODEL 5
REMARK VINA RESULT:      -6.0      2.179      3.004
REMARK  Name = 
REMARK  4 active torsions:
REMARK  status: ('A' for Active; 'I' for Inactive)
REMARK    1  A    between atoms: C_1  and  N_2
REMARK    2  A    between atoms: N_2  and  C_3
REMARK    3  A    between atoms: N_2  and  C_4
REMARK    4  A    between atoms: C_4  and  C_5
REMARK                            x       y       z     vdW  Elec       q    Type
REMARK                         _______ _______ _______ _____ _____    ______ ____
ROOT
ATOM      1  C   UNL     1       6.285   5.629  17.217  0.00  0.00    +0.000 C 
ATOM      2  C   UNL     1       6.844   6.925  16.489  0.00  0.00    +0.000 C 
ATOM      3  C   UNL     1       7.256   8.048  17.474  0.00  0.00    +0.000 C 
ATOM      4  C   UNL     1       8.337   7.538  18.440  0.00  0.00    +0.000 C 
ATOM      5  C   UNL     1       7.809   6.344  19.233  0.00  0.00    +0.000 C 
ATOM      6  C   UNL     1       7.367   5.289  18.256  0.00  0.00    +0.000 C 
ATOM      7  O   UNL     1       7.901   4.191  18.295  0.00  0.00    +0.000 OA
ENDROOT
BRANCH   1   8
ATOM      8  C   UNL     1       4.917   5.871  17.949  0.00  0.00    +0.000 A 
ATOM      9  C   UNL     1       4.121   7.007  17.632  0.00  0.00    +0.000 A 
ATOM     10  C   UNL     1       2.852   7.194  18.191  0.00  0.00    +0.000 A 
ATOM     11  C   UNL     1       2.340   6.273  19.093  0.00  0.00    +0.000 A 
ATOM     12  C   UNL     1       3.082   5.149  19.427  0.00  0.00    +0.000 A 
ATOM     13  C   UNL     1       4.346   4.924  18.862  0.00  0.00    +0.000 A 
ATOM     14 CL   UNL     1       5.111   3.415  19.349  0.00  0.00    +0.000 Cl
ENDBRANCH   1   8
BRANCH   1  16
ATOM     15  C   UNL     1       6.945   4.537  15.022  0.00  0.00    +0.000 C 
ATOM     16  N   UNL     1       6.095   4.492  16.238  0.00  0.00    +0.000 NA
ATOM     17  C   UNL     1       4.693   4.315  15.792  0.00  0.00    +0.000 C 
ENDBRANCH   1  16
TORSDOF 2
ENDMDL
MODEL 6
REMARK VINA RESULT:      -6.0      2.523      3.628
REMARK  Name = 
REMARK  4 active torsions:
REMARK  status: ('A' for Active; 'I' for Inactive)
REMARK    1  A    between atoms: C_1  and  N_2
REMARK    2  A    between atoms: N_2  and  C_3
REMARK    3  A    between atoms: N_2  and  C_4
REMARK    4  A    between atoms: C_4  and  C_5
REMARK                            x       y       z     vdW  Elec       q    Type
REMARK                         _______ _______ _______ _____ _____    ______ ____
ROOT
ATOM      1  C   UNL     1       6.463   5.283  17.076  0.00  0.00    +0.000 C 
ATOM      2  C   UNL     1       6.726   6.769  16.581  0.00  0.00    +0.000 C 
ATOM      3  C   UNL     1       7.005   7.758  17.742  0.00  0.00    +0.000 C 
ATOM      4  C   UNL     1       8.229   7.298  18.550  0.00  0.00    +0.000 C 
ATOM      5  C   UNL     1       7.982   5.906  19.126  0.00  0.00    +0.000 C 
ATOM      6  C   UNL     1       7.663   4.975  17.988  0.00  0.00    +0.000 C 
ATOM      7  O   UNL     1       8.385   4.009  17.799  0.00  0.00    +0.000 OA
ENDROOT
BRANCH   1   8
ATOM      8  C   UNL     1       5.133   5.130  17.896  0.00  0.00    +0.000 A 
ATOM      9  C   UNL     1       5.038   4.173  18.945  0.00  0.00    +0.000 A 
ATOM     10  C   UNL     1       3.904   4.086  19.759  0.00  0.00    +0.000 A 
ATOM     11  C   UNL     1       2.823   4.930  19.551  0.00  0.00    +0.000 A 
ATOM     12  C   UNL     1       2.875   5.880  18.541  0.00  0.00    +0.000 A 
ATOM     13  C   UNL     1       4.010   6.007  17.726  0.00  0.00    +0.000 A 
ATOM     14 CL   UNL     1       3.926   7.310  16.545  0.00  0.00    +0.000 Cl
ENDBRANCH   1   8
BRANCH   1  16
ATOM     15  C   UNL     1       7.041   4.791  14.653  0.00  0.00    +0.000 C 
ATOM     16  N   UNL     1       6.405   4.322  15.910  0.00  0.00    +0.000 NA
ATOM     17  C   UNL     1       5.034   3.873  15.572  0.00  0.00    +0.000 C 
ENDBRANCH   1  16
TORSDOF 2
ENDMDL
MODEL 7
REMARK VINA RESULT:      -5.7      2.185      3.926
REMARK  Name = 
REMARK  4 active torsions:
REMARK  status: ('A' for Active; 'I' for Inactive)
REMARK    1  A    between atoms: C_1  and  N_2
REMARK    2  A    between atoms: N_2  and  C_3
REMARK    3  A    between atoms: N_2  and  C_4
REMARK    4  A    between atoms: C_4  and  C_5
REMARK                            x       y       z     vdW  Elec       q    Type
REMARK                         _______ _______ _______ _____ _____    ______ ____
ROOT
ATOM      1  C   UNL     1       3.310   3.700  19.249  0.00  0.00    +0.000 C 
ATOM      2  C   UNL     1       2.616   3.560  20.671  0.00  0.00    +0.000 C 
ATOM      3  C   UNL     1       1.078   3.743  20.618  0.00  0.00    +0.000 C 
ATOM      4  C   UNL     1       0.449   2.705  19.674  0.00  0.00    +0.000 C 
ATOM      5  C   UNL     1       1.021   2.865  18.267  0.00  0.00    +0.000 C 
ATOM      6  C   UNL     1       2.517   2.735  18.350  0.00  0.00    +0.000 C 
ATOM      7  O   UNL     1       3.066   1.845  17.719  0.00  0.00    +0.000 OA
ENDROOT
BRANCH   1   8
ATOM      8  C   UNL     1       3.224   5.152  18.658  0.00  0.00    +0.000 A 
ATOM      9  C   UNL     1       2.598   6.195  19.397  0.00  0.00    +0.000 A 
ATOM     10  C   UNL     1       2.598   7.518  18.944  0.00  0.00    +0.000 A 
ATOM     11  C   UNL     1       3.201   7.847  17.738  0.00  0.00    +0.000 A 
ATOM     12  C   UNL     1       3.825   6.861  16.988  0.00  0.00    +0.000 A 
ATOM     13  C   UNL     1       3.863   5.531  17.432  0.00  0.00    +0.000 A 
ATOM     14 CL   UNL     1       4.756   4.431  16.386  0.00  0.00    +0.000 Cl
ENDBRANCH   1   8
BRANCH   1  16
ATOM     15  C   UNL     1       5.097   2.184  20.225  0.00  0.00    +0.000 C 
ATOM     16  N   UNL     1       4.769   3.308  19.313  0.00  0.00    +0.000 NA
ATOM     17  C   UNL     1       5.675   4.431  19.651  0.00  0.00    +0.000 C 
ENDBRANCH   1  16
TORSDOF 2
ENDMDL
MODEL 8
REMARK VINA RESULT:      -5.6      1.993      4.220
REMARK  Name = 
REMARK  4 active torsions:
REMARK  status: ('A' for Active; 'I' for Inactive)
REMARK    1  A    between atoms: C_1  and  N_2
REMARK    2  A    between atoms: N_2  and  C_3
REMARK    3  A    between atoms: N_2  and  C_4
REMARK    4  A    between atoms: C_4  and  C_5
REMARK                            x       y       z     vdW  Elec       q    Type
REMARK                         _______ _______ _______ _____ _____    ______ ____
ROOT
ATOM      1  C   UNL     1       3.844   3.932  18.675  0.00  0.00    +0.000 C 
ATOM      2  C   UNL     1       3.764   5.104  19.745  0.00  0.00    +0.000 C 
ATOM      3  C   UNL     1       3.285   6.448  19.141  0.00  0.00    +0.000 C 
ATOM      4  C   UNL     1       1.895   6.283  18.508  0.00  0.00    +0.000 C 
ATOM      5  C   UNL     1       1.945   5.228  17.404  0.00  0.00    +0.000 C 
ATOM      6  C   UNL     1       2.460   3.947  18.002  0.00  0.00    +0.000 C 
ATOM      7  O   UNL     1       1.754   2.952  17.961  0.00  0.00    +0.000 OA
ENDROOT
BRANCH   1   8
ATOM      8  C   UNL     1       4.955   4.160  17.589  0.00  0.00    +0.000 A 
ATOM      9  C   UNL     1       4.689   3.887  16.218  0.00  0.00    +0.000 A 
ATOM     10  C   UNL     1       5.623   4.178  15.217  0.00  0.00    +0.000 A 
ATOM     11  C   UNL     1       6.852   4.731  15.543  0.00  0.00    +0.000 A 
ATOM     12  C   UNL     1       7.150   5.017  16.868  0.00  0.00    +0.000 A 
ATOM     13  C   UNL     1       6.223   4.759  17.888  0.00  0.00    +0.000 A 
ATOM     14 CL   UNL     1       6.745   5.248  19.498  0.00  0.00    +0.000 Cl
ENDBRANCH   1   8
BRANCH   1  16
ATOM     15  C   UNL     1       3.752   1.398  18.549  0.00  0.00    +0.000 C 
ATOM     16  N   UNL     1       4.110   2.602  19.342  0.00  0.00    +0.000 NA
ATOM     17  C   UNL     1       3.471   2.461  20.672  0.00  0.00    +0.000 C 
ENDBRANCH   1  16
TORSDOF 2
ENDMDL
MODEL 9
REMARK VINA RESULT:      -5.6      2.107      4.338
REMARK  Name = 
REMARK  4 active torsions:
REMARK  status: ('A' for Active; 'I' for Inactive)
REMARK    1  A    between atoms: C_1  and  N_2
REMARK    2  A    between atoms: N_2  and  C_3
REMARK    3  A    between atoms: N_2  and  C_4
REMARK    4  A    between atoms: C_4  and  C_5
REMARK                            x       y       z     vdW  Elec       q    Type
REMARK                         _______ _______ _______ _____ _____    ______ ____
ROOT
ATOM      1  C   UNL     1       3.486   4.179  18.882  0.00  0.00    +0.000 C 
ATOM      2  C   UNL     1       2.968   4.771  20.262  0.00  0.00    +0.000 C 
ATOM      3  C   UNL     1       2.785   6.309  20.235  0.00  0.00    +0.000 C 
ATOM      4  C   UNL     1       1.786   6.708  19.137  0.00  0.00    +0.000 C 
ATOM      5  C   UNL     1       2.292   6.240  17.774  0.00  0.00    +0.000 C 
ATOM      6  C   UNL     1       2.510   4.753  17.840  0.00  0.00    +0.000 C 
ATOM      7  O   UNL     1       1.884   4.032  17.078  0.00  0.00    +0.000 OA
ENDROOT
BRANCH   1   8
ATOM      8  C   UNL     1       4.949   4.625  18.528  0.00  0.00    +0.000 A 
ATOM      9  C   UNL     1       5.775   5.235  19.513  0.00  0.00    +0.000 A 
ATOM     10  C   UNL     1       7.114   5.548  19.257  0.00  0.00    +0.000 A 
ATOM     11  C   UNL     1       7.672   5.283  18.014  0.00  0.00    +0.000 A 
ATOM     12  C   UNL     1       6.902   4.685  17.026  0.00  0.00    +0.000 A 
ATOM     13  C   UNL     1       5.564   4.338  17.265  0.00  0.00    +0.000 A 
ATOM     14 CL   UNL     1       4.764   3.527  15.921  0.00  0.00    +0.000 Cl
ENDBRANCH   1   8
BRANCH   1  16
ATOM     15  C   UNL     1       2.128   2.055  19.187  0.00  0.00    +0.000 C 
ATOM     16  N   UNL     1       3.448   2.667  18.888  0.00  0.00    +0.000 NA
ATOM     17  C   UNL     1       4.440   2.047  19.797  0.00  0.00    +0.000 C 
ENDBRANCH   1  16
TORSDOF 2
ENDMDL
