MODEL 1
REMARK VINA RESULT:      -8.1      0.000      0.000
REMARK  Name = 
REMARK  5 active torsions:
REMARK  status: ('A' for Active; 'I' for Inactive)
REMARK    1  A    between atoms: N_9  and  C_10
REMARK    2  A    between atoms: C_10  and  C_11
REMARK    3  A    between atoms: C_14  and  P_15
REMARK    4  A    between atoms: P_15  and  O_17
REMARK    5  A    between atoms: P_15  and  O_18
REMARK                            x       y       z     vdW  Elec       q    Type
REMARK                         _______ _______ _______ _____ _____    ______ ____
ROOT
ATOM      1  N   UNL     1       8.439   5.235  20.455  0.00  0.00    +0.000 N 
ATOM      2  C   UNL     1       7.793   5.629  19.299  0.00  0.00    +0.000 A 
ATOM      3  N   UNL     1       8.122   6.855  18.859  0.00  0.00    +0.000 NA
ATOM      4  C   UNL     1       7.545   7.326  17.735  0.00  0.00    +0.000 A 
ATOM      5  N   UNL     1       7.902   8.591  17.284  0.00  0.00    +0.000 N 
ATOM      6  C   UNL     1       6.596   6.528  17.087  0.00  0.00    +0.000 A 
ATOM      7  N   UNL     1       5.796   6.763  15.991  0.00  0.00    +0.000 NA
ATOM      8  C   UNL     1       5.102   5.659  15.849  0.00  0.00    +0.000 A 
ATOM      9  N   UNL     1       5.480   4.690  16.746  0.00  0.00    +0.000 N 
ATOM     10  C   UNL     1       6.383   5.260  17.607  0.00  0.00    +0.000 A 
ATOM     11  N   UNL     1       6.967   4.741  18.704  0.00  0.00    +0.000 NA
ATOM     12  H   UNL     1       9.276   5.793  20.570  0.00  0.00    +0.000 HD
ATOM     13  H   UNL     1       8.544   4.235  20.503  0.00  0.00    +0.000 HD
ATOM     14  H   UNL     1       8.252   9.177  18.030  0.00  0.00    +0.000 HD
ATOM     15  H   UNL     1       7.211   8.991  16.656  0.00  0.00    +0.000 HD
ENDROOT
BRANCH   9  16
ATOM     16  C   UNL     1       4.958   3.331  16.757  0.00  0.00    +0.000 C 
BRANCH  16  17
ATOM     17  C   UNL     1       3.578   3.185  17.440  0.00  0.00    +0.000 C 
ATOM     18  C   UNL     1       2.652   4.372  17.241  0.00  0.00    +0.000 C 
ATOM     19  C   UNL     1       1.974   4.558  18.575  0.00  0.00    +0.000 C 
ATOM     20  C   UNL     1       2.915   3.922  19.585  0.00  0.00    +0.000 C 
ATOM     21  O   UNL     1       3.709   2.943  18.857  0.00  0.00    +0.000 OA
BRANCH  20  22
ATOM     22  P   UNL     1       2.162   3.076  21.023  0.00  0.00    +0.000 P 
ATOM     23  O   UNL     1       2.368   4.295  21.924  0.00  0.00    +0.000 OA
BRANCH  22  24
ATOM     24  O   UNL     1       0.649   3.173  20.399  0.00  0.00    +0.000 OA
ATOM     25  H   UNL     1       0.651   3.550  19.500  0.00  0.00    +0.000 HD
ENDBRANCH  22  24
BRANCH  22  26
ATOM     26  O   UNL     1       1.450   2.277  22.382  0.00  0.00    +0.000 OA
ATOM     27  H   UNL     1       0.569   2.015  22.035  0.00  0.00    +0.000 HD
ENDBRANCH  22  26
ENDBRANCH  20  22
ENDBRANCH  16  17
ENDBRANCH   9  16
TORSDOF 5
ENDMDL
MODEL 2
REMARK VINA RESULT:      -7.8      3.966      6.219
REMARK  Name = 
REMARK  5 active torsions:
REMARK  status: ('A' for Active; 'I' for Inactive)
REMARK    1  A    between atoms: N_9  and  C_10
REMARK    2  A    between atoms: C_10  and  C_11
REMARK    3  A    between atoms: C_14  and  P_15
REMARK    4  A    between atoms: P_15  and  O_17
REMARK    5  A    between atoms: P_15  and  O_18
REMARK                            x       y       z     vdW  Elec       q    Type
REMARK                         _______ _______ _______ _____ _____    ______ ____
ROOT
ATOM      1  N   UNL     1       3.944   0.574  18.510  0.00  0.00    +0.000 N 
ATOM      2  C   UNL     1       3.477   1.820  18.885  0.00  0.00    +0.000 A 
ATOM      3  N   UNL     1       2.181   1.854  19.235  0.00  0.00    +0.000 NA
ATOM      4  C   UNL     1       1.635   3.027  19.618  0.00  0.00    +0.000 A 
ATOM      5  N   UNL     1       0.296   3.047  19.988  0.00  0.00    +0.000 N 
ATOM      6  C   UNL     1       2.438   4.172  19.605  0.00  0.00    +0.000 A 
ATOM      7  N   UNL     1       2.151   5.494  19.860  0.00  0.00    +0.000 NA
ATOM      8  C   UNL     1       3.293   6.117  19.686  0.00  0.00    +0.000 A 
ATOM      9  N   UNL     1       4.322   5.248  19.418  0.00  0.00    +0.000 N 
ATOM     10  C   UNL     1       3.774   3.998  19.279  0.00  0.00    +0.000 A 
ATOM     11  N   UNL     1       4.363   2.839  18.927  0.00  0.00    +0.000 NA
ATOM     12  H   UNL     1       3.324  -0.134  18.883  0.00  0.00    +0.000 HD
ATOM     13  H   UNL     1       4.927   0.471  18.699  0.00  0.00    +0.000 HD
ATOM     14  H   UNL     1      -0.227   2.289  19.570  0.00  0.00    +0.000 HD
ATOM     15  H   UNL     1      -0.107   3.978  19.940  0.00  0.00    +0.000 HD
ENDROOT
BRANCH   9  16
ATOM     16  C   UNL     1       5.717   5.642  19.282  0.00  0.00    +0.000 C 
BRANCH  16  17
ATOM     17  C   UNL     1       6.157   5.932  17.828  0.00  0.00    +0.000 C 
ATOM     18  C   UNL     1       5.444   7.106  17.180  0.00  0.00    +0.000 C 
ATOM     19  C   UNL     1       5.186   6.663  15.762  0.00  0.00    +0.000 C 
ATOM     20  C   UNL     1       5.197   5.145  15.818  0.00  0.00    +0.000 C 
ATOM     21  O   UNL     1       5.989   4.775  16.982  0.00  0.00    +0.000 OA
BRANCH  20  22
ATOM     22  P   UNL     1       5.875   4.253  14.371  0.00  0.00    +0.000 P 
ATOM     23  O   UNL     1       7.072   5.200  14.272  0.00  0.00    +0.000 OA
BRANCH  22  24
ATOM     24  O   UNL     1       6.338   2.964  15.271  0.00  0.00    +0.000 OA
ATOM     25  H   UNL     1       5.961   2.131  14.931  0.00  0.00    +0.000 HD
ENDBRANCH  22  24
BRANCH  22  26
ATOM     26  O   UNL     1       6.517   3.411  13.002  0.00  0.00    +0.000 OA
ATOM     27  H   UNL     1       5.720   2.975  12.630  0.00  0.00    +0.000 HD
ENDBRANCH  22  26
ENDBRANCH  20  22
ENDBRANCH  16  17
ENDBRANCH   9  16
TORSDOF 5
ENDMDL
MODEL 3
REMARK VINA RESULT:      -7.4      4.071      5.866
REMARK  Name = 
REMARK  5 active torsions:
REMARK  status: ('A' for Active; 'I' for Inactive)
REMARK    1  A    between atoms: N_9  and  C_10
REMARK    2  A    between atoms: C_10  and  C_11
REMARK    3  A    between atoms: C_14  and  P_15
REMARK    4  A    between atoms: P_15  and  O_17
REMARK    5  A    between atoms: P_15  and  O_18
REMARK                            x       y       z     vdW  Elec       q    Type
REMARK                         _______ _______ _______ _____ _____    ______ ____
ROOT
ATOM      1  N   UNL     1       1.839   6.914  20.591  0.00  0.00    +0.000 N 
ATOM      2  C   UNL     1       2.157   5.604  20.285  0.00  0.00    +0.000 A 
ATOM      3  N   UNL     1       1.978   4.731  21.290  0.00  0.00    +0.000 NA
ATOM      4  C   UNL     1       2.260   3.428  21.086  0.00  0.00    +0.000 A 
ATOM      5  N   UNL     1       2.059   2.533  22.130  0.00  0.00    +0.000 N 
ATOM      6  C   UNL     1       2.762   3.042  19.839  0.00  0.00    +0.000 A 
ATOM      7  N   UNL     1       3.208   1.826  19.368  0.00  0.00    +0.000 NA
ATOM      8  C   UNL     1       3.567   2.067  18.129  0.00  0.00    +0.000 A 
ATOM      9  N   UNL     1       3.292   3.359  17.751  0.00  0.00    +0.000 N 
ATOM     10  C   UNL     1       2.850   4.025  18.866  0.00  0.00    +0.000 A 
ATOM     11  N   UNL     1       2.543   5.327  19.020  0.00  0.00    +0.000 NA
ATOM     12  H   UNL     1       1.221   6.922  21.393  0.00  0.00    +0.000 HD
ATOM     13  H   UNL     1       1.543   7.426  19.776  0.00  0.00    +0.000 HD
ATOM     14  H   UNL     1       2.097   2.986  23.033  0.00  0.00    +0.000 HD
ATOM     15  H   UNL     1       2.587   1.673  22.013  0.00  0.00    +0.000 HD
ENDROOT
BRANCH   9  16
ATOM     16  C   UNL     1       3.486   3.881  16.406  0.00  0.00    +0.000 C 
BRANCH  16  17
ATOM     17  C   UNL     1       4.797   4.680  16.217  0.00  0.00    +0.000 C 
ATOM     18  C   UNL     1       5.872   3.943  15.438  0.00  0.00    +0.000 C 
ATOM     19  C   UNL     1       7.159   4.278  16.150  0.00  0.00    +0.000 C 
ATOM     20  C   UNL     1       6.740   4.654  17.561  0.00  0.00    +0.000 C 
ATOM     21  O   UNL     1       5.354   5.093  17.482  0.00  0.00    +0.000 OA
BRANCH  20  22
ATOM     22  P   UNL     1       7.698   5.966  18.404  0.00  0.00    +0.000 P 
ATOM     23  O   UNL     1       6.772   7.064  17.877  0.00  0.00    +0.000 OA
BRANCH  22  24
ATOM     24  O   UNL     1       7.154   5.532  19.888  0.00  0.00    +0.000 OA
ATOM     25  H   UNL     1       6.452   4.858  19.834  0.00  0.00    +0.000 HD
ENDBRANCH  22  24
BRANCH  22  26
ATOM     26  O   UNL     1       8.603   7.207  19.200  0.00  0.00    +0.000 OA
ATOM     27  H   UNL     1       9.030   7.672  18.448  0.00  0.00    +0.000 HD
ENDBRANCH  22  26
ENDBRANCH  20  22
ENDBRANCH  16  17
ENDBRANCH   9  16
TORSDOF 5
ENDMDL
MODEL 4
REMARK VINA RESULT:      -7.3      5.519      6.755
REMARK  Name = 
REMARK  5 active torsions:
REMARK  status: ('A' for Active; 'I' for Inactive)
REMARK    1  A    between atoms: N_9  and  C_10
REMARK    2  A    between atoms: C_10  and  C_11
REMARK    3  A    between atoms: C_14  and  P_15
REMARK    4  A    between atoms: P_15  and  O_17
REMARK    5  A    between atoms: P_15  and  O_18
REMARK                            x       y       z     vdW  Elec       q    Type
REMARK                         _______ _______ _______ _____ _____    ______ ____
ROOT
ATOM      1  N   UNL     1      -0.397   8.884  22.881  0.00  0.00    +0.000 N 
ATOM      2  C   UNL     1       0.136   9.132  21.630  0.00  0.00    +0.000 A 
ATOM      3  N   UNL     1      -0.175  10.331  21.111  0.00  0.00    +0.000 NA
ATOM      4  C   UNL     1       0.302  10.664  19.895  0.00  0.00    +0.000 A 
ATOM      5  N   UNL     1      -0.018  11.912  19.374  0.00  0.00    +0.000 N 
ATOM      6  C   UNL     1       1.078   9.728  19.204  0.00  0.00    +0.000 A 
ATOM      7  N   UNL     1       1.626   9.747  17.940  0.00  0.00    +0.000 NA
ATOM      8  C   UNL     1       2.243   8.594  17.833  0.00  0.00    +0.000 A 
ATOM      9  N   UNL     1       2.195   7.870  19.000  0.00  0.00    +0.000 N 
ATOM     10  C   UNL     1       1.377   8.548  19.867  0.00  0.00    +0.000 A 
ATOM     11  N   UNL     1       0.951   8.196  21.096  0.00  0.00    +0.000 NA
ATOM     12  H   UNL     1      -0.641   9.767  23.314  0.00  0.00    +0.000 HD
ATOM     13  H   UNL     1       0.178   8.254  23.414  0.00  0.00    +0.000 HD
ATOM     14  H   UNL     1      -0.873  12.282  19.768  0.00  0.00    +0.000 HD
ATOM     15  H   UNL     1       0.090  11.953  18.365  0.00  0.00    +0.000 HD
ENDROOT
BRANCH   9  16
ATOM     16  C   UNL     1       2.878   6.602  19.209  0.00  0.00    +0.000 C 
BRANCH  16  17
ATOM     17  C   UNL     1       3.324   5.897  17.907  0.00  0.00    +0.000 C 
ATOM     18  C   UNL     1       3.082   4.398  17.892  0.00  0.00    +0.000 C 
ATOM     19  C   UNL     1       4.306   3.818  17.228  0.00  0.00    +0.000 C 
ATOM     20  C   UNL     1       5.393   4.859  17.433  0.00  0.00    +0.000 C 
ATOM     21  O   UNL     1       4.719   6.135  17.625  0.00  0.00    +0.000 OA
BRANCH  20  22
ATOM     22  P   UNL     1       6.622   5.070  16.093  0.00  0.00    +0.000 P 
ATOM     23  O   UNL     1       6.759   6.567  16.371  0.00  0.00    +0.000 OA
BRANCH  22  24
ATOM     24  O   UNL     1       7.801   4.302  16.933  0.00  0.00    +0.000 OA
ATOM     25  H   UNL     1       7.451   3.863  17.731  0.00  0.00    +0.000 HD
ENDBRANCH  22  24
BRANCH  22  26
ATOM     26  O   UNL     1       7.783   5.269  14.826  0.00  0.00    +0.000 OA
ATOM     27  H   UNL     1       7.485   4.611  14.161  0.00  0.00    +0.000 HD
ENDBRANCH  22  26
ENDBRANCH  20  22
ENDBRANCH  16  17
ENDBRANCH   9  16
TORSDOF 5
ENDMDL
MODEL 5
REMARK VINA RESULT:      -7.3      4.034      6.163
REMARK  Name = 
REMARK  5 active torsions:
REMARK  status: ('A' for Active; 'I' for Inactive)
REMARK    1  A    between atoms: N_9  and  C_10
REMARK    2  A    between atoms: C_10  and  C_11
REMARK    3  A    between atoms: C_14  and  P_15
REMARK    4  A    between atoms: P_15  and  O_17
REMARK    5  A    between atoms: P_15  and  O_18
REMARK                            x       y       z     vdW  Elec       q    Type
REMARK                         _______ _______ _______ _____ _____    ______ ____
ROOT
ATOM      1  N   UNL     1       2.546   1.518  17.773  0.00  0.00    +0.000 N 
ATOM      2  C   UNL     1       2.342   2.582  18.632  0.00  0.00    +0.000 A 
ATOM      3  N   UNL     1       2.037   2.237  19.894  0.00  0.00    +0.000 NA
ATOM      4  C   UNL     1       1.822   3.208  20.806  0.00  0.00    +0.000 A 
ATOM      5  N   UNL     1       1.519   2.838  22.111  0.00  0.00    +0.000 N 
ATOM      6  C   UNL     1       1.893   4.541  20.390  0.00  0.00    +0.000 A 
ATOM      7  N   UNL     1       1.649   5.722  21.056  0.00  0.00    +0.000 NA
ATOM      8  C   UNL     1       1.868   6.655  20.160  0.00  0.00    +0.000 A 
ATOM      9  N   UNL     1       2.327   6.136  18.973  0.00  0.00    +0.000 N 
ATOM     10  C   UNL     1       2.270   4.769  19.076  0.00  0.00    +0.000 A 
ATOM     11  N   UNL     1       2.529   3.829  18.147  0.00  0.00    +0.000 NA
ATOM     12  H   UNL     1       2.757   0.692  18.320  0.00  0.00    +0.000 HD
ATOM     13  H   UNL     1       3.183   1.754  17.031  0.00  0.00    +0.000 HD
ATOM     14  H   UNL     1       1.112   1.913  22.161  0.00  0.00    +0.000 HD
ATOM     15  H   UNL     1       1.062   3.581  22.630  0.00  0.00    +0.000 HD
ENDROOT
BRANCH   9  16
ATOM     16  C   UNL     1       2.752   6.938  17.835  0.00  0.00    +0.000 C 
BRANCH  16  17
ATOM     17  C   UNL     1       4.286   7.071  17.687  0.00  0.00    +0.000 C 
ATOM     18  C   UNL     1       4.820   6.671  16.323  0.00  0.00    +0.000 C 
ATOM     19  C   UNL     1       6.099   5.927  16.614  0.00  0.00    +0.000 C 
ATOM     20  C   UNL     1       5.943   5.424  18.040  0.00  0.00    +0.000 C 
ATOM     21  O   UNL     1       4.984   6.304  18.691  0.00  0.00    +0.000 OA
BRANCH  20  22
ATOM     22  P   UNL     1       7.447   5.363  19.081  0.00  0.00    +0.000 P 
ATOM     23  O   UNL     1       8.098   4.308  18.185  0.00  0.00    +0.000 OA
BRANCH  22  24
ATOM     24  O   UNL     1       7.965   6.832  18.572  0.00  0.00    +0.000 OA
ATOM     25  H   UNL     1       7.816   6.958  17.617  0.00  0.00    +0.000 HD
ENDBRANCH  22  24
BRANCH  22  26
ATOM     26  O   UNL     1       8.869   5.305  20.065  0.00  0.00    +0.000 OA
ATOM     27  H   UNL     1       8.616   5.863  20.833  0.00  0.00    +0.000 HD
ENDBRANCH  22  26
ENDBRANCH  20  22
ENDBRANCH  16  17
ENDBRANCH   9  16
TORSDOF 5
ENDMDL
MODEL 6
REMARK VINA RESULT:      -7.2      4.139      6.340
REMARK  Name = 
REMARK  5 active torsions:
REMARK  status: ('A' for Active; 'I' for Inactive)
REMARK    1  A    between atoms: N_9  and  C_10
REMARK    2  A    between atoms: C_10  and  C_11
REMARK    3  A    between atoms: C_14  and  P_15
REMARK    4  A    between atoms: P_15  and  O_17
REMARK    5  A    between atoms: P_15  and  O_18
REMARK                            x       y       z     vdW  Elec       q    Type
REMARK                         _______ _______ _______ _____ _____    ______ ____
ROOT
ATOM      1  N   UNL     1       5.164   1.432  19.974  0.00  0.00    +0.000 N 
ATOM      2  C   UNL     1       4.216   2.411  20.206  0.00  0.00    +0.000 A 
ATOM      3  N   UNL     1       3.293   2.094  21.129  0.00  0.00    +0.000 NA
ATOM      4  C   UNL     1       2.327   2.987  21.425  0.00  0.00    +0.000 A 
ATOM      5  N   UNL     1       1.384   2.652  22.389  0.00  0.00    +0.000 N 
ATOM      6  C   UNL     1       2.306   4.201  20.731  0.00  0.00    +0.000 A 
ATOM      7  N   UNL     1       1.419   5.255  20.755  0.00  0.00    +0.000 NA
ATOM      8  C   UNL     1       1.906   6.114  19.891  0.00  0.00    +0.000 A 
ATOM      9  N   UNL     1       3.112   5.704  19.376  0.00  0.00    +0.000 N 
ATOM     10  C   UNL     1       3.345   4.435  19.843  0.00  0.00    +0.000 A 
ATOM     11  N   UNL     1       4.347   3.584  19.549  0.00  0.00    +0.000 NA
ATOM     12  H   UNL     1       5.188   0.804  20.768  0.00  0.00    +0.000 HD
ATOM     13  H   UNL     1       6.040   1.825  19.672  0.00  0.00    +0.000 HD
ATOM     14  H   UNL     1       1.280   1.651  22.489  0.00  0.00    +0.000 HD
ATOM     15  H   UNL     1       0.537   3.208  22.316  0.00  0.00    +0.000 HD
ENDROOT
BRANCH   9  16
ATOM     16  C   UNL     1       3.935   6.498  18.476  0.00  0.00    +0.000 C 
BRANCH  16  17
ATOM     17  C   UNL     1       5.117   5.726  17.846  0.00  0.00    +0.000 C 
ATOM     18  C   UNL     1       6.431   6.487  17.840  0.00  0.00    +0.000 C 
ATOM     19  C   UNL     1       7.051   6.172  16.502  0.00  0.00    +0.000 C 
ATOM     20  C   UNL     1       5.883   5.781  15.611  0.00  0.00    +0.000 C 
ATOM     21  O   UNL     1       4.823   5.316  16.493  0.00  0.00    +0.000 OA
BRANCH  20  22
ATOM     22  P   UNL     1       6.179   4.482  14.356  0.00  0.00    +0.000 P 
ATOM     23  O   UNL     1       7.586   5.004  14.059  0.00  0.00    +0.000 OA
BRANCH  22  24
ATOM     24  O   UNL     1       6.319   3.300  15.484  0.00  0.00    +0.000 OA
ATOM     25  H   UNL     1       5.721   3.448  16.239  0.00  0.00    +0.000 HD
ENDBRANCH  22  24
BRANCH  22  26
ATOM     26  O   UNL     1       6.459   3.254  13.170  0.00  0.00    +0.000 OA
ATOM     27  H   UNL     1       6.359   3.748  12.327  0.00  0.00    +0.000 HD
ENDBRANCH  22  26
ENDBRANCH  20  22
ENDBRANCH  16  17
ENDBRANCH   9  16
TORSDOF 5
ENDMDL
MODEL 7
REMARK VINA RESULT:      -7.1      5.763      6.931
REMARK  Name = 
REMARK  5 active torsions:
REMARK  status: ('A' for Active; 'I' for Inactive)
REMARK    1  A    between atoms: N_9  and  C_10
REMARK    2  A    between atoms: C_10  and  C_11
REMARK    3  A    between atoms: C_14  and  P_15
REMARK    4  A    between atoms: P_15  and  O_17
REMARK    5  A    between atoms: P_15  and  O_18
REMARK                            x       y       z     vdW  Elec       q    Type
REMARK                         _______ _______ _______ _____ _____    ______ ____
ROOT
ATOM      1  N   UNL     1      -0.371   9.277  23.384  0.00  0.00    +0.000 N 
ATOM      2  C   UNL     1       0.075   9.521  22.098  0.00  0.00    +0.000 A 
ATOM      3  N   UNL     1      -0.212  10.745  21.625  0.00  0.00    +0.000 NA
ATOM      4  C   UNL     1       0.184  11.077  20.380  0.00  0.00    +0.000 A 
ATOM      5  N   UNL     1      -0.108  12.350  19.906  0.00  0.00    +0.000 N 
ATOM      6  C   UNL     1       0.852  10.116  19.614  0.00  0.00    +0.000 A 
ATOM      7  N   UNL     1       1.298  10.131  18.311  0.00  0.00    +0.000 NA
ATOM      8  C   UNL     1       1.843   8.950  18.137  0.00  0.00    +0.000 A 
ATOM      9  N   UNL     1       1.848   8.206  19.292  0.00  0.00    +0.000 N 
ATOM     10  C   UNL     1       1.139   8.909  20.233  0.00  0.00    +0.000 A 
ATOM     11  N   UNL     1       0.793   8.554  21.486  0.00  0.00    +0.000 NA
ATOM     12  H   UNL     1      -0.531  10.162  23.849  0.00  0.00    +0.000 HD
ATOM     13  H   UNL     1       0.210   8.606  23.859  0.00  0.00    +0.000 HD
ATOM     14  H   UNL     1      -0.908  12.756  20.374  0.00  0.00    +0.000 HD
ATOM     15  H   UNL     1      -0.078  12.405  18.892  0.00  0.00    +0.000 HD
ENDROOT
BRANCH   9  16
ATOM     16  C   UNL     1       2.477   6.900  19.426  0.00  0.00    +0.000 C 
BRANCH  16  17
ATOM     17  C   UNL     1       2.943   6.279  18.089  0.00  0.00    +0.000 C 
ATOM     18  C   UNL     1       2.550   4.823  17.904  0.00  0.00    +0.000 C 
ATOM     19  C   UNL     1       3.753   4.179  17.262  0.00  0.00    +0.000 C 
ATOM     20  C   UNL     1       4.924   5.070  17.642  0.00  0.00    +0.000 C 
ATOM     21  O   UNL     1       4.372   6.388  17.922  0.00  0.00    +0.000 OA
BRANCH  20  22
ATOM     22  P   UNL     1       6.263   5.272  16.411  0.00  0.00    +0.000 P 
ATOM     23  O   UNL     1       5.758   4.093  15.578  0.00  0.00    +0.000 OA
BRANCH  22  24
ATOM     24  O   UNL     1       5.603   6.637  15.786  0.00  0.00    +0.000 OA
ATOM     25  H   UNL     1       4.710   6.477  15.432  0.00  0.00    +0.000 HD
ENDBRANCH  22  24
BRANCH  22  26
ATOM     26  O   UNL     1       7.529   5.463  15.247  0.00  0.00    +0.000 OA
ATOM     27  H   UNL     1       7.194   4.943  14.484  0.00  0.00    +0.000 HD
ENDBRANCH  22  26
ENDBRANCH  20  22
ENDBRANCH  16  17
ENDBRANCH   9  16
TORSDOF 5
ENDMDL
MODEL 8
REMARK VINA RESULT:      -7.1      4.069      5.375
REMARK  Name = 
REMARK  5 active torsions:
REMARK  status: ('A' for Active; 'I' for Inactive)
REMARK    1  A    between atoms: N_9  and  C_10
REMARK    2  A    between atoms: C_10  and  C_11
REMARK    3  A    between atoms: C_14  and  P_15
REMARK    4  A    between atoms: P_15  and  O_17
REMARK    5  A    between atoms: P_15  and  O_18
REMARK                            x       y       z     vdW  Elec       q    Type
REMARK                         _______ _______ _______ _____ _____    ______ ____
ROOT
ATOM      1  N   UNL     1       2.287   3.383  21.890  0.00  0.00    +0.000 N 
ATOM      2  C   UNL     1       2.833   3.444  20.621  0.00  0.00    +0.000 A 
ATOM      3  N   UNL     1       3.047   2.251  20.042  0.00  0.00    +0.000 NA
ATOM      4  C   UNL     1       3.575   2.209  18.802  0.00  0.00    +0.000 A 
ATOM      5  N   UNL     1       3.782   0.969  18.209  0.00  0.00    +0.000 N 
ATOM      6  C   UNL     1       3.911   3.415  18.179  0.00  0.00    +0.000 A 
ATOM      7  N   UNL     1       4.527   3.684  16.976  0.00  0.00    +0.000 NA
ATOM      8  C   UNL     1       4.585   4.994  16.924  0.00  0.00    +0.000 A 
ATOM      9  N   UNL     1       3.958   5.584  17.994  0.00  0.00    +0.000 N 
ATOM     10  C   UNL     1       3.591   4.581  18.855  0.00  0.00    +0.000 A 
ATOM     11  N   UNL     1       3.030   4.664  20.077  0.00  0.00    +0.000 NA
ATOM     12  H   UNL     1       1.844   2.481  22.013  0.00  0.00    +0.000 HD
ATOM     13  H   UNL     1       1.736   4.199  22.099  0.00  0.00    +0.000 HD
ATOM     14  H   UNL     1       3.882   0.231  18.893  0.00  0.00    +0.000 HD
ATOM     15  H   UNL     1       4.460   1.006  17.454  0.00  0.00    +0.000 HD
ENDROOT
BRANCH   9  16
ATOM     16  C   UNL     1       3.775   7.020  18.150  0.00  0.00    +0.000 C 
BRANCH  16  17
ATOM     17  C   UNL     1       2.323   7.444  18.472  0.00  0.00    +0.000 C 
ATOM     18  C   UNL     1       1.843   8.664  17.705  0.00  0.00    +0.000 C 
ATOM     19  C   UNL     1       1.044   9.457  18.707  0.00  0.00    +0.000 C 
ATOM     20  C   UNL     1       1.571   9.020  20.063  0.00  0.00    +0.000 C 
ATOM     21  O   UNL     1       2.142   7.693  19.881  0.00  0.00    +0.000 OA
BRANCH  20  22
ATOM     22  P   UNL     1       0.374   8.932  21.445  0.00  0.00    +0.000 P 
ATOM     23  O   UNL     1       1.324   9.662  22.395  0.00  0.00    +0.000 OA
BRANCH  22  24
ATOM     24  O   UNL     1      -0.615  10.054  20.776  0.00  0.00    +0.000 OA
ATOM     25  H   UNL     1      -0.173  10.545  20.059  0.00  0.00    +0.000 HD
ENDBRANCH  22  24
BRANCH  22  26
ATOM     26  O   UNL     1      -0.758   8.848  22.751  0.00  0.00    +0.000 OA
ATOM     27  H   UNL     1      -1.042   7.908  22.724  0.00  0.00    +0.000 HD
ENDBRANCH  22  26
ENDBRANCH  20  22
ENDBRANCH  16  17
ENDBRANCH   9  16
TORSDOF 5
ENDMDL
MODEL 9
REMARK VINA RESULT:      -7.1      2.448      3.814
REMARK  Name = 
REMARK  5 active torsions:
REMARK  status: ('A' for Active; 'I' for Inactive)
REMARK    1  A    between atoms: N_9  and  C_10
REMARK    2  A    between atoms: C_10  and  C_11
REMARK    3  A    between atoms: C_14  and  P_15
REMARK    4  A    between atoms: P_15  and  O_17
REMARK    5  A    between atoms: P_15  and  O_18
REMARK                            x       y       z     vdW  Elec       q    Type
REMARK                         _______ _______ _______ _____ _____    ______ ____
ROOT
ATOM      1  N   UNL     1       5.440   3.061  11.838  0.00  0.00    +0.000 N 
ATOM      2  C   UNL     1       5.932   3.826  12.878  0.00  0.00    +0.000 A 
ATOM      3  N   UNL     1       7.125   4.398  12.643  0.00  0.00    +0.000 NA
ATOM      4  C   UNL     1       7.686   5.165  13.600  0.00  0.00    +0.000 A 
ATOM      5  N   UNL     1       8.914   5.760  13.340  0.00  0.00    +0.000 N 
ATOM      6  C   UNL     1       7.014   5.308  14.818  0.00  0.00    +0.000 A 
ATOM      7  N   UNL     1       7.364   5.947  15.987  0.00  0.00    +0.000 NA
ATOM      8  C   UNL     1       6.347   5.741  16.790  0.00  0.00    +0.000 A 
ATOM      9  N   UNL     1       5.320   5.076  16.166  0.00  0.00    +0.000 N 
ATOM     10  C   UNL     1       5.765   4.716  14.920  0.00  0.00    +0.000 A 
ATOM     11  N   UNL     1       5.156   3.974  13.974  0.00  0.00    +0.000 NA
ATOM     12  H   UNL     1       5.900   3.340  10.979  0.00  0.00    +0.000 HD
ATOM     13  H   UNL     1       4.434   3.038  11.834  0.00  0.00    +0.000 HD
ATOM     14  H   UNL     1       9.439   5.259  12.635  0.00  0.00    +0.000 HD
ATOM     15  H   UNL     1       9.404   6.030  14.188  0.00  0.00    +0.000 HD
ENDROOT
BRANCH   9  16
ATOM     16  C   UNL     1       4.027   4.802  16.777  0.00  0.00    +0.000 C 
BRANCH  16  17
ATOM     17  C   UNL     1       4.082   3.813  17.965  0.00  0.00    +0.000 C 
ATOM     18  C   UNL     1       4.084   2.349  17.562  0.00  0.00    +0.000 C 
ATOM     19  C   UNL     1       3.191   1.672  18.571  0.00  0.00    +0.000 C 
ATOM     20  C   UNL     1       2.286   2.775  19.096  0.00  0.00    +0.000 C 
ATOM     21  O   UNL     1       2.993   4.030  18.887  0.00  0.00    +0.000 OA
BRANCH  20  22
ATOM     22  P   UNL     1       1.794   2.695  20.857  0.00  0.00    +0.000 P 
ATOM     23  O   UNL     1       3.244   2.540  21.318  0.00  0.00    +0.000 OA
BRANCH  22  24
ATOM     24  O   UNL     1       1.424   4.290  20.917  0.00  0.00    +0.000 OA
ATOM     25  H   UNL     1       0.678   4.512  20.330  0.00  0.00    +0.000 HD
ENDBRANCH  22  24
BRANCH  22  26
ATOM     26  O   UNL     1       1.328   2.619  22.521  0.00  0.00    +0.000 OA
ATOM     27  H   UNL     1       0.651   1.908  22.519  0.00  0.00    +0.000 HD
ENDBRANCH  22  26
ENDBRANCH  20  22
ENDBRANCH  16  17
ENDBRANCH   9  16
TORSDOF 5
ENDMDL
