MODEL 1
REMARK VINA RESULT:      -7.4      0.000      0.000
REMARK  Name = 
REMARK  2 active torsions:
REMARK  status: ('A' for Active; 'I' for Inactive)
REMARK    1  A    between atoms: C_8  and  C_9
REMARK    2  A    between atoms: C_11  and  C_12
REMARK                            x       y       z     vdW  Elec       q    Type
REMARK                         _______ _______ _______ _____ _____    ______ ____
ROOT
ATOM      1  C   UNL     1       4.605   4.009  18.307  0.00  0.00    +0.000 C 
ATOM      2  N   UNL     1       5.805   4.005  18.789  0.00  0.00    +0.000 NA
ATOM      3  C   UNL     1       6.792   4.411  17.757  0.00  0.00    +0.000 C 
ATOM      4  C   UNL     1       6.216   4.120  16.369  0.00  0.00    +0.000 C 
ATOM      5  S   UNL     1       4.437   4.320  16.593  0.00  0.00    +0.000 S 
ENDROOT
BRANCH   1  13
ATOM      6  F   UNL     1       3.188   1.506  18.623  0.00  0.00    +0.000 F 
ATOM      7  C   UNL     1       2.747   2.604  19.255  0.00  0.00    +0.000 A 
ATOM      8  C   UNL     1       1.606   2.470  20.051  0.00  0.00    +0.000 A 
ATOM      9  C   UNL     1       1.122   3.565  20.765  0.00  0.00    +0.000 A 
ATOM     10  C   UNL     1       1.780   4.789  20.675  0.00  0.00    +0.000 A 
ATOM     11  C   UNL     1       2.915   4.912  19.871  0.00  0.00    +0.000 A 
ATOM     12  F   UNL     1       3.481   6.125  19.784  0.00  0.00    +0.000 F 
ATOM     13  C   UNL     1       3.413   3.824  19.149  0.00  0.00    +0.000 A 
ENDBRANCH   1  13
BRANCH   3  14
ATOM     14  C   UNL     1       7.262   5.851  17.928  0.00  0.00    +0.000 A 
ATOM     15  C   UNL     1       6.860   6.829  17.004  0.00  0.00    +0.000 A 
ATOM     16  C   UNL     1       7.308   8.147  17.118  0.00  0.00    +0.000 A 
ATOM     17  C   UNL     1       8.155   8.512  18.163  0.00  0.00    +0.000 A 
ATOM     18  C   UNL     1       8.546   7.560  19.099  0.00  0.00    +0.000 A 
ATOM     19  C   UNL     1       8.102   6.243  18.984  0.00  0.00    +0.000 A 
ENDBRANCH   3  14
TORSDOF 2
ENDMDL
MODEL 2
REMARK VINA RESULT:      -7.4      0.085      1.901
REMARK  Name = 
REMARK  2 active torsions:
REMARK  status: ('A' for Active; 'I' for Inactive)
REMARK    1  A    between atoms: C_8  and  C_9
REMARK    2  A    between atoms: C_11  and  C_12
REMARK                            x       y       z     vdW  Elec       q    Type
REMARK                         _______ _______ _______ _____ _____    ______ ____
ROOT
ATOM      1  C   UNL     1       4.585   4.029  18.330  0.00  0.00    +0.000 C 
ATOM      2  N   UNL     1       5.777   4.045  18.833  0.00  0.00    +0.000 NA
ATOM      3  C   UNL     1       6.779   4.425  17.805  0.00  0.00    +0.000 C 
ATOM      4  C   UNL     1       6.228   4.090  16.417  0.00  0.00    +0.000 C 
ATOM      5  S   UNL     1       4.444   4.286  16.606  0.00  0.00    +0.000 S 
ENDROOT
BRANCH   1  13
ATOM      6  F   UNL     1       3.316   6.153  19.831  0.00  0.00    +0.000 F 
ATOM      7  C   UNL     1       2.813   4.911  19.883  0.00  0.00    +0.000 A 
ATOM      8  C   UNL     1       1.678   4.712  20.672  0.00  0.00    +0.000 A 
ATOM      9  C   UNL     1       1.085   3.451  20.736  0.00  0.00    +0.000 A 
ATOM     10  C   UNL     1       1.635   2.396  20.011  0.00  0.00    +0.000 A 
ATOM     11  C   UNL     1       2.774   2.606  19.231  0.00  0.00    +0.000 A 
ATOM     12  F   UNL     1       3.289   1.544  18.593  0.00  0.00    +0.000 F 
ATOM     13  C   UNL     1       3.380   3.863  19.158  0.00  0.00    +0.000 A 
ENDBRANCH   1  13
BRANCH   3  14
ATOM     14  C   UNL     1       7.239   5.873  17.940  0.00  0.00    +0.000 A 
ATOM     15  C   UNL     1       6.793   6.834  17.018  0.00  0.00    +0.000 A 
ATOM     16  C   UNL     1       7.230   8.158  17.099  0.00  0.00    +0.000 A 
ATOM     17  C   UNL     1       8.111   8.546  18.108  0.00  0.00    +0.000 A 
ATOM     18  C   UNL     1       8.546   7.611  19.041  0.00  0.00    +0.000 A 
ATOM     19  C   UNL     1       8.113   6.288  18.959  0.00  0.00    +0.000 A 
ENDBRANCH   3  14
TORSDOF 2
ENDMDL
MODEL 3
REMARK VINA RESULT:      -7.4      0.114      2.198
REMARK  Name = 
REMARK  2 active torsions:
REMARK  status: ('A' for Active; 'I' for Inactive)
REMARK    1  A    between atoms: C_8  and  C_9
REMARK    2  A    between atoms: C_11  and  C_12
REMARK                            x       y       z     vdW  Elec       q    Type
REMARK                         _______ _______ _______ _____ _____    ______ ____
ROOT
ATOM      1  C   UNL     1       4.628   4.052  18.359  0.00  0.00    +0.000 C 
ATOM      2  N   UNL     1       5.832   4.058  18.831  0.00  0.00    +0.000 NA
ATOM      3  C   UNL     1       6.812   4.422  17.777  0.00  0.00    +0.000 C 
ATOM      4  C   UNL     1       6.223   4.086  16.405  0.00  0.00    +0.000 C 
ATOM      5  S   UNL     1       4.447   4.303  16.637  0.00  0.00    +0.000 S 
ENDROOT
BRANCH   1  13
ATOM      6  F   UNL     1       3.326   6.227  19.755  0.00  0.00    +0.000 F 
ATOM      7  C   UNL     1       2.859   4.977  19.889  0.00  0.00    +0.000 A 
ATOM      8  C   UNL     1       1.743   4.795  20.710  0.00  0.00    +0.000 A 
ATOM      9  C   UNL     1       1.186   3.525  20.858  0.00  0.00    +0.000 A 
ATOM     10  C   UNL     1       1.752   2.444  20.187  0.00  0.00    +0.000 A 
ATOM     11  C   UNL     1       2.871   2.638  19.375  0.00  0.00    +0.000 A 
ATOM     12  F   UNL     1       3.405   1.554  18.790  0.00  0.00    +0.000 F 
ATOM     13  C   UNL     1       3.442   3.904  19.216  0.00  0.00    +0.000 A 
ENDBRANCH   1  13
BRANCH   3  14
ATOM     14  C   UNL     1       7.291   5.865  17.893  0.00  0.00    +0.000 A 
ATOM     15  C   UNL     1       8.122   6.239  18.962  0.00  0.00    +0.000 A 
ATOM     16  C   UNL     1       8.543   7.562  19.110  0.00  0.00    +0.000 A 
ATOM     17  C   UNL     1       8.151   8.531  18.187  0.00  0.00    +0.000 A 
ATOM     18  C   UNL     1       7.346   8.173  17.111  0.00  0.00    +0.000 A 
ATOM     19  C   UNL     1       6.922   6.853  16.964  0.00  0.00    +0.000 A 
ENDBRANCH   3  14
TORSDOF 2
ENDMDL
MODEL 4
REMARK VINA RESULT:      -7.3      0.073      1.107
REMARK  Name = 
REMARK  2 active torsions:
REMARK  status: ('A' for Active; 'I' for Inactive)
REMARK    1  A    between atoms: C_8  and  C_9
REMARK    2  A    between atoms: C_11  and  C_12
REMARK                            x       y       z     vdW  Elec       q    Type
REMARK                         _______ _______ _______ _____ _____    ______ ____
ROOT
ATOM      1  C   UNL     1       4.597   4.027  18.290  0.00  0.00    +0.000 C 
ATOM      2  N   UNL     1       5.807   4.005  18.747  0.00  0.00    +0.000 NA
ATOM      3  C   UNL     1       6.778   4.397  17.693  0.00  0.00    +0.000 C 
ATOM      4  C   UNL     1       6.169   4.114  16.318  0.00  0.00    +0.000 C 
ATOM      5  S   UNL     1       4.397   4.339  16.580  0.00  0.00    +0.000 S 
ENDROOT
BRANCH   1  13
ATOM      6  F   UNL     1       3.207   1.524  18.708  0.00  0.00    +0.000 F 
ATOM      7  C   UNL     1       2.766   2.638  19.312  0.00  0.00    +0.000 A 
ATOM      8  C   UNL     1       1.640   2.521  20.131  0.00  0.00    +0.000 A 
ATOM      9  C   UNL     1       1.158   3.635  20.817  0.00  0.00    +0.000 A 
ATOM     10  C   UNL     1       1.804   4.860  20.677  0.00  0.00    +0.000 A 
ATOM     11  C   UNL     1       2.925   4.967  19.851  0.00  0.00    +0.000 A 
ATOM     12  F   UNL     1       3.479   6.181  19.716  0.00  0.00    +0.000 F 
ATOM     13  C   UNL     1       3.420   3.860  19.156  0.00  0.00    +0.000 A 
ENDBRANCH   1  13
BRANCH   3  14
ATOM     14  C   UNL     1       7.272   5.830  17.853  0.00  0.00    +0.000 A 
ATOM     15  C   UNL     1       8.092   6.167  18.942  0.00  0.00    +0.000 A 
ATOM     16  C   UNL     1       8.527   7.481  19.130  0.00  0.00    +0.000 A 
ATOM     17  C   UNL     1       8.158   8.477  18.228  0.00  0.00    +0.000 A 
ATOM     18  C   UNL     1       7.364   8.157  17.132  0.00  0.00    +0.000 A 
ATOM     19  C   UNL     1       6.927   6.846  16.945  0.00  0.00    +0.000 A 
ENDBRANCH   3  14
TORSDOF 2
ENDMDL
MODEL 5
REMARK VINA RESULT:      -7.3      1.899      3.752
REMARK  Name = 
REMARK  2 active torsions:
REMARK  status: ('A' for Active; 'I' for Inactive)
REMARK    1  A    between atoms: C_8  and  C_9
REMARK    2  A    between atoms: C_11  and  C_12
REMARK                            x       y       z     vdW  Elec       q    Type
REMARK                         _______ _______ _______ _____ _____    ______ ____
ROOT
ATOM      1  C   UNL     1       4.085   5.010  18.240  0.00  0.00    +0.000 C 
ATOM      2  N   UNL     1       3.989   5.767  17.196  0.00  0.00    +0.000 NA
ATOM      3  C   UNL     1       5.333   6.172  16.711  0.00  0.00    +0.000 C 
ATOM      4  C   UNL     1       6.328   6.104  17.871  0.00  0.00    +0.000 C 
ATOM      5  S   UNL     1       5.685   4.775  18.909  0.00  0.00    +0.000 S 
ENDROOT
BRANCH   1  13
ATOM      6  F   UNL     1       2.388   6.103  20.313  0.00  0.00    +0.000 F 
ATOM      7  C   UNL     1       2.148   4.871  19.839  0.00  0.00    +0.000 A 
ATOM      8  C   UNL     1       1.065   4.175  20.381  0.00  0.00    +0.000 A 
ATOM      9  C   UNL     1       0.741   2.906  19.902  0.00  0.00    +0.000 A 
ATOM     10  C   UNL     1       1.505   2.341  18.884  0.00  0.00    +0.000 A 
ATOM     11  C   UNL     1       2.589   3.043  18.354  0.00  0.00    +0.000 A 
ATOM     12  F   UNL     1       3.319   2.432  17.410  0.00  0.00    +0.000 F 
ATOM     13  C   UNL     1       2.927   4.316  18.824  0.00  0.00    +0.000 A 
ENDBRANCH   1  13
BRANCH   3  14
ATOM     14  C   UNL     1       5.777   5.383  15.485  0.00  0.00    +0.000 A 
ATOM     15  C   UNL     1       7.070   5.569  14.968  0.00  0.00    +0.000 A 
ATOM     16  C   UNL     1       7.487   4.885  13.823  0.00  0.00    +0.000 A 
ATOM     17  C   UNL     1       6.624   3.996  13.184  0.00  0.00    +0.000 A 
ATOM     18  C   UNL     1       5.347   3.784  13.695  0.00  0.00    +0.000 A 
ATOM     19  C   UNL     1       4.929   4.469  14.835  0.00  0.00    +0.000 A 
ENDBRANCH   3  14
TORSDOF 2
ENDMDL
MODEL 6
REMARK VINA RESULT:      -7.3      1.906      3.309
REMARK  Name = 
REMARK  2 active torsions:
REMARK  status: ('A' for Active; 'I' for Inactive)
REMARK    1  A    between atoms: C_8  and  C_9
REMARK    2  A    between atoms: C_11  and  C_12
REMARK                            x       y       z     vdW  Elec       q    Type
REMARK                         _______ _______ _______ _____ _____    ______ ____
ROOT
ATOM      1  C   UNL     1       4.055   4.954  18.212  0.00  0.00    +0.000 C 
ATOM      2  N   UNL     1       3.954   5.714  17.171  0.00  0.00    +0.000 NA
ATOM      3  C   UNL     1       5.295   6.138  16.693  0.00  0.00    +0.000 C 
ATOM      4  C   UNL     1       6.286   6.076  17.857  0.00  0.00    +0.000 C 
ATOM      5  S   UNL     1       5.654   4.736  18.888  0.00  0.00    +0.000 S 
ENDROOT
BRANCH   1  13
ATOM      6  F   UNL     1       3.097   2.376  17.314  0.00  0.00    +0.000 F 
ATOM      7  C   UNL     1       2.460   3.011  18.309  0.00  0.00    +0.000 A 
ATOM      8  C   UNL     1       1.351   2.374  18.870  0.00  0.00    +0.000 A 
ATOM      9  C   UNL     1       0.671   2.965  19.935  0.00  0.00    +0.000 A 
ATOM     10  C   UNL     1       1.105   4.193  20.429  0.00  0.00    +0.000 A 
ATOM     11  C   UNL     1       2.211   4.823  19.856  0.00  0.00    +0.000 A 
ATOM     12  F   UNL     1       2.555   6.026  20.340  0.00  0.00    +0.000 F 
ATOM     13  C   UNL     1       2.902   4.244  18.788  0.00  0.00    +0.000 A 
ENDBRANCH   1  13
BRANCH   3  14
ATOM     14  C   UNL     1       5.754   5.359  15.466  0.00  0.00    +0.000 A 
ATOM     15  C   UNL     1       7.066   5.518  14.990  0.00  0.00    +0.000 A 
ATOM     16  C   UNL     1       7.498   4.844  13.846  0.00  0.00    +0.000 A 
ATOM     17  C   UNL     1       6.631   3.991  13.165  0.00  0.00    +0.000 A 
ATOM     18  C   UNL     1       5.335   3.805  13.634  0.00  0.00    +0.000 A 
ATOM     19  C   UNL     1       4.902   4.481  14.775  0.00  0.00    +0.000 A 
ENDBRANCH   3  14
TORSDOF 2
ENDMDL
MODEL 7
REMARK VINA RESULT:      -7.3      2.849      4.507
REMARK  Name = 
REMARK  2 active torsions:
REMARK  status: ('A' for Active; 'I' for Inactive)
REMARK    1  A    between atoms: C_8  and  C_9
REMARK    2  A    between atoms: C_11  and  C_12
REMARK                            x       y       z     vdW  Elec       q    Type
REMARK                         _______ _______ _______ _____ _____    ______ ____
ROOT
ATOM      1  C   UNL     1       2.840   6.087  19.076  0.00  0.00    +0.000 C 
ATOM      2  N   UNL     1       4.049   5.833  19.460  0.00  0.00    +0.000 NA
ATOM      3  C   UNL     1       4.434   4.443  19.107  0.00  0.00    +0.000 C 
ATOM      4  C   UNL     1       3.171   3.589  18.977  0.00  0.00    +0.000 C 
ATOM      5  S   UNL     1       1.920   4.758  18.407  0.00  0.00    +0.000 S 
ENDROOT
BRANCH   1  13
ATOM      6  F   UNL     1       1.405   7.167  21.345  0.00  0.00    +0.000 F 
ATOM      7  C   UNL     1       1.555   7.911  20.239  0.00  0.00    +0.000 A 
ATOM      8  C   UNL     1       1.003   9.194  20.249  0.00  0.00    +0.000 A 
ATOM      9  C   UNL     1       1.159  10.030  19.144  0.00  0.00    +0.000 A 
ATOM     10  C   UNL     1       1.866   9.575  18.034  0.00  0.00    +0.000 A 
ATOM     11  C   UNL     1       2.408   8.288  18.032  0.00  0.00    +0.000 A 
ATOM     12  F   UNL     1       3.037   7.885  16.919  0.00  0.00    +0.000 F 
ATOM     13  C   UNL     1       2.259   7.438  19.132  0.00  0.00    +0.000 A 
ENDBRANCH   1  13
BRANCH   3  14
ATOM     14  C   UNL     1       5.339   4.377  17.882  0.00  0.00    +0.000 A 
ATOM     15  C   UNL     1       6.695   4.722  17.998  0.00  0.00    +0.000 A 
ATOM     16  C   UNL     1       7.535   4.705  16.882  0.00  0.00    +0.000 A 
ATOM     17  C   UNL     1       7.036   4.333  15.635  0.00  0.00    +0.000 A 
ATOM     18  C   UNL     1       5.700   3.968  15.506  0.00  0.00    +0.000 A 
ATOM     19  C   UNL     1       4.860   3.988  16.619  0.00  0.00    +0.000 A 
ENDBRANCH   3  14
TORSDOF 2
ENDMDL
MODEL 8
REMARK VINA RESULT:      -7.3      1.885      3.670
REMARK  Name = 
REMARK  2 active torsions:
REMARK  status: ('A' for Active; 'I' for Inactive)
REMARK    1  A    between atoms: C_8  and  C_9
REMARK    2  A    between atoms: C_11  and  C_12
REMARK                            x       y       z     vdW  Elec       q    Type
REMARK                         _______ _______ _______ _____ _____    ______ ____
ROOT
ATOM      1  C   UNL     1       4.073   5.016  18.274  0.00  0.00    +0.000 C 
ATOM      2  N   UNL     1       3.986   5.796  17.246  0.00  0.00    +0.000 NA
ATOM      3  C   UNL     1       5.334   6.205  16.777  0.00  0.00    +0.000 C 
ATOM      4  C   UNL     1       6.323   6.107  17.940  0.00  0.00    +0.000 C 
ATOM      5  S   UNL     1       5.668   4.760  18.946  0.00  0.00    +0.000 S 
ENDROOT
BRANCH   1  13
ATOM      6  F   UNL     1       2.360   6.080  20.349  0.00  0.00    +0.000 F 
ATOM      7  C   UNL     1       2.121   4.856  19.853  0.00  0.00    +0.000 A 
ATOM      8  C   UNL     1       1.033   4.154  20.375  0.00  0.00    +0.000 A 
ATOM      9  C   UNL     1       0.710   2.893  19.873  0.00  0.00    +0.000 A 
ATOM     10  C   UNL     1       1.482   2.343  18.853  0.00  0.00    +0.000 A 
ATOM     11  C   UNL     1       2.571   3.052  18.343  0.00  0.00    +0.000 A 
ATOM     12  F   UNL     1       3.308   2.454  17.395  0.00  0.00    +0.000 F 
ATOM     13  C   UNL     1       2.908   4.315  18.837  0.00  0.00    +0.000 A 
ENDBRANCH   1  13
BRANCH   3  14
ATOM     14  C   UNL     1       5.781   5.440  15.536  0.00  0.00    +0.000 A 
ATOM     15  C   UNL     1       4.881   4.582  14.885  0.00  0.00    +0.000 A 
ATOM     16  C   UNL     1       5.279   3.842  13.768  0.00  0.00    +0.000 A 
ATOM     17  C   UNL     1       6.579   3.957  13.278  0.00  0.00    +0.000 A 
ATOM     18  C   UNL     1       7.477   4.819  13.899  0.00  0.00    +0.000 A 
ATOM     19  C   UNL     1       7.082   5.555  15.015  0.00  0.00    +0.000 A 
ENDBRANCH   3  14
TORSDOF 2
ENDMDL
MODEL 9
REMARK VINA RESULT:      -7.2      2.807      4.450
REMARK  Name = 
REMARK  2 active torsions:
REMARK  status: ('A' for Active; 'I' for Inactive)
REMARK    1  A    between atoms: C_8  and  C_9
REMARK    2  A    between atoms: C_11  and  C_12
REMARK                            x       y       z     vdW  Elec       q    Type
REMARK                         _______ _______ _______ _____ _____    ______ ____
ROOT
ATOM      1  C   UNL     1       2.840   6.032  19.004  0.00  0.00    +0.000 C 
ATOM      2  N   UNL     1       4.050   5.776  19.384  0.00  0.00    +0.000 NA
ATOM      3  C   UNL     1       4.444   4.397  19.000  0.00  0.00    +0.000 C 
ATOM      4  C   UNL     1       3.187   3.538  18.848  0.00  0.00    +0.000 C 
ATOM      5  S   UNL     1       1.929   4.712  18.303  0.00  0.00    +0.000 S 
ENDROOT
BRANCH   1  13
ATOM      6  F   UNL     1       2.932   8.004  16.889  0.00  0.00    +0.000 F 
ATOM      7  C   UNL     1       2.338   8.306  18.053  0.00  0.00    +0.000 A 
ATOM      8  C   UNL     1       1.782   9.581  18.178  0.00  0.00    +0.000 A 
ATOM      9  C   UNL     1       1.116   9.941  19.350  0.00  0.00    +0.000 A 
ATOM     10  C   UNL     1       1.015   9.022  20.391  0.00  0.00    +0.000 A 
ATOM     11  C   UNL     1       1.581   7.752  20.258  0.00  0.00    +0.000 A 
ATOM     12  F   UNL     1       1.495   6.924  21.310  0.00  0.00    +0.000 F 
ATOM     13  C   UNL     1       2.251   7.377  19.090  0.00  0.00    +0.000 A 
ENDBRANCH   1  13
BRANCH   3  14
ATOM     14  C   UNL     1       5.351   4.364  17.775  0.00  0.00    +0.000 A 
ATOM     15  C   UNL     1       6.711   4.688  17.906  0.00  0.00    +0.000 A 
ATOM     16  C   UNL     1       7.553   4.702  16.792  0.00  0.00    +0.000 A 
ATOM     17  C   UNL     1       7.053   4.381  15.531  0.00  0.00    +0.000 A 
ATOM     18  C   UNL     1       5.713   4.037  15.386  0.00  0.00    +0.000 A 
ATOM     19  C   UNL     1       4.871   4.027  16.497  0.00  0.00    +0.000 A 
ENDBRANCH   3  14
TORSDOF 2
ENDMDL
