MODEL 1
REMARK VINA RESULT:      -7.7      0.000      0.000
REMARK  Name = 
REMARK  4 active torsions:
REMARK  status: ('A' for Active; 'I' for Inactive)
REMARK    1  A    between atoms: C_4  and  C_5
REMARK    2  A    between atoms: C_5  and  N_6
REMARK    3  A    between atoms: C_5  and  C_16
REMARK    4  A    between atoms: N_6  and  C_7
REMARK                            x       y       z     vdW  Elec       q    Type
REMARK                         _______ _______ _______ _____ _____    ______ ____
ROOT
ATOM      1  C   UNL     1       2.648   6.242  18.608  0.00  0.00    +0.000 C 
ENDROOT
BRANCH   1   5
ATOM      2  C   UNL     1       1.008   2.373  19.724  0.00  0.00    +0.000 A 
ATOM      3  C   UNL     1       1.095   3.401  20.658  0.00  0.00    +0.000 A 
ATOM      4  C   UNL     1       1.592   4.651  20.280  0.00  0.00    +0.000 A 
ATOM      5  C   UNL     1       2.024   4.889  18.962  0.00  0.00    +0.000 A 
ATOM      6  C   UNL     1       1.891   3.851  18.024  0.00  0.00    +0.000 A 
ATOM      7  C   UNL     1       1.393   2.601  18.404  0.00  0.00    +0.000 A 
ENDBRANCH   1   5
BRANCH   1   8
ATOM      8  C   UNL     1       4.090   6.104  18.133  0.00  0.00    +0.000 A 
ATOM      9  C   UNL     1       4.659   6.509  16.938  0.00  0.00    +0.000 A 
ATOM     10  C   UNL     1       6.013   6.081  16.804  0.00  0.00    +0.000 A 
ATOM     11  C   UNL     1       6.443   5.379  17.907  0.00  0.00    +0.000 A 
ATOM     12  S   UNL     1       5.226   5.245  19.097  0.00  0.00    +0.000 S 
ENDBRANCH   1   8
BRANCH   1  13
ATOM     13  N   UNL     1       2.572   7.190  19.732  0.00  0.00    +0.000 N 
ATOM     14  H   UNL     1       3.489   7.424  20.098  0.00  0.00    +0.000 HD
BRANCH  13  15
ATOM     15  C   UNL     1       1.793   8.331  19.542  0.00  0.00    +0.000 A 
ATOM     16  N   UNL     1       1.654   8.865  18.310  0.00  0.00    +0.000 NA
ATOM     17  C   UNL     1       0.879   9.947  18.145  0.00  0.00    +0.000 A 
ATOM     18  N   UNL     1       0.208  10.617  19.082  0.00  0.00    +0.000 NA
ATOM     19  C   UNL     1       0.362  10.074  20.300  0.00  0.00    +0.000 A 
ATOM     20  S   UNL     1      -0.406  10.759  21.660  0.00  0.00    +0.000 S 
ATOM     21  C   UNL     1       0.237   9.567  22.702  0.00  0.00    +0.000 A 
ATOM     22  C   UNL     1       1.027   8.665  22.023  0.00  0.00    +0.000 A 
ATOM     23  C   UNL     1       1.115   8.952  20.615  0.00  0.00    +0.000 A 
ENDBRANCH  13  15
ENDBRANCH   1  13
TORSDOF 4
ENDMDL
MODEL 2
REMARK VINA RESULT:      -7.7      0.795      1.005
REMARK  Name = 
REMARK  4 active torsions:
REMARK  status: ('A' for Active; 'I' for Inactive)
REMARK    1  A    between atoms: C_4  and  C_5
REMARK    2  A    between atoms: C_5  and  N_6
REMARK    3  A    between atoms: C_5  and  C_16
REMARK    4  A    between atoms: N_6  and  C_7
REMARK                            x       y       z     vdW  Elec       q    Type
REMARK                         _______ _______ _______ _____ _____    ______ ____
ROOT
ATOM      1  C   UNL     1       2.955   6.011  18.637  0.00  0.00    +0.000 C 
ENDROOT
BRANCH   1   5
ATOM      2  C   UNL     1       1.084   2.146  19.319  0.00  0.00    +0.000 A 
ATOM      3  C   UNL     1       0.972   3.163  20.263  0.00  0.00    +0.000 A 
ATOM      4  C   UNL     1       1.547   4.413  20.018  0.00  0.00    +0.000 A 
ATOM      5  C   UNL     1       2.259   4.660  18.829  0.00  0.00    +0.000 A 
ATOM      6  C   UNL     1       2.327   3.634  17.872  0.00  0.00    +0.000 A 
ATOM      7  C   UNL     1       1.749   2.384  18.118  0.00  0.00    +0.000 A 
ENDBRANCH   1   5
BRANCH   1   8
ATOM      8  C   UNL     1       4.457   5.859  18.424  0.00  0.00    +0.000 A 
ATOM      9  C   UNL     1       5.395   5.233  19.227  0.00  0.00    +0.000 A 
ATOM     10  C   UNL     1       6.728   5.419  18.757  0.00  0.00    +0.000 A 
ATOM     11  C   UNL     1       6.768   6.165  17.601  0.00  0.00    +0.000 A 
ATOM     12  S   UNL     1       5.209   6.629  17.082  0.00  0.00    +0.000 S 
ENDBRANCH   1   8
BRANCH   1  13
ATOM     13  N   UNL     1       2.691   6.927  19.759  0.00  0.00    +0.000 N 
ATOM     14  H   UNL     1       3.526   7.112  20.306  0.00  0.00    +0.000 HD
BRANCH  13  15
ATOM     15  C   UNL     1       2.004   8.104  19.463  0.00  0.00    +0.000 A 
ATOM     16  N   UNL     1       2.056   8.630  18.222  0.00  0.00    +0.000 NA
ATOM     17  C   UNL     1       1.366   9.748  17.951  0.00  0.00    +0.000 A 
ATOM     18  N   UNL     1       0.615  10.463  18.790  0.00  0.00    +0.000 NA
ATOM     19  C   UNL     1       0.580   9.927  20.019  0.00  0.00    +0.000 A 
ATOM     20  S   UNL     1      -0.322  10.666  21.264  0.00  0.00    +0.000 S 
ATOM     21  C   UNL     1       0.116   9.454  22.387  0.00  0.00    +0.000 A 
ATOM     22  C   UNL     1       0.940   8.505  21.821  0.00  0.00    +0.000 A 
ATOM     23  C   UNL     1       1.225   8.771  20.436  0.00  0.00    +0.000 A 
ENDBRANCH  13  15
ENDBRANCH   1  13
TORSDOF 4
ENDMDL
MODEL 3
REMARK VINA RESULT:      -7.7      0.846      1.452
REMARK  Name = 
REMARK  4 active torsions:
REMARK  status: ('A' for Active; 'I' for Inactive)
REMARK    1  A    between atoms: C_4  and  C_5
REMARK    2  A    between atoms: C_5  and  N_6
REMARK    3  A    between atoms: C_5  and  C_16
REMARK    4  A    between atoms: N_6  and  C_7
REMARK                            x       y       z     vdW  Elec       q    Type
REMARK                         _______ _______ _______ _____ _____    ______ ____
ROOT
ATOM      1  C   UNL     1       3.028   5.992  18.635  0.00  0.00    +0.000 C 
ENDROOT
BRANCH   1   5
ATOM      2  C   UNL     1       1.050   2.142  19.045  0.00  0.00    +0.000 A 
ATOM      3  C   UNL     1       1.891   2.394  17.965  0.00  0.00    +0.000 A 
ATOM      4  C   UNL     1       2.550   3.623  17.862  0.00  0.00    +0.000 A 
ATOM      5  C   UNL     1       2.364   4.626  18.830  0.00  0.00    +0.000 A 
ATOM      6  C   UNL     1       1.542   4.338  19.933  0.00  0.00    +0.000 A 
ATOM      7  C   UNL     1       0.885   3.108  20.036  0.00  0.00    +0.000 A 
ENDBRANCH   1   5
BRANCH   1   8
ATOM      8  C   UNL     1       4.536   5.877  18.441  0.00  0.00    +0.000 A 
ATOM      9  C   UNL     1       5.478   5.275  19.257  0.00  0.00    +0.000 A 
ATOM     10  C   UNL     1       6.812   5.493  18.804  0.00  0.00    +0.000 A 
ATOM     11  C   UNL     1       6.849   6.238  17.648  0.00  0.00    +0.000 A 
ATOM     12  S   UNL     1       5.286   6.663  17.108  0.00  0.00    +0.000 S 
ENDBRANCH   1   8
BRANCH   1  13
ATOM     13  N   UNL     1       2.727   6.911  19.745  0.00  0.00    +0.000 N 
ATOM     14  H   UNL     1       3.552   7.131  20.293  0.00  0.00    +0.000 HD
BRANCH  13  15
ATOM     15  C   UNL     1       2.000   8.060  19.434  0.00  0.00    +0.000 A 
ATOM     16  N   UNL     1       1.983   8.534  18.171  0.00  0.00    +0.000 NA
ATOM     17  C   UNL     1       1.256   9.625  17.888  0.00  0.00    +0.000 A 
ATOM     18  N   UNL     1       0.526  10.357  18.730  0.00  0.00    +0.000 NA
ATOM     19  C   UNL     1       0.560   9.872  19.981  0.00  0.00    +0.000 A 
ATOM     20  S   UNL     1      -0.302  10.643  21.235  0.00  0.00    +0.000 S 
ATOM     21  C   UNL     1       0.214   9.489  22.384  0.00  0.00    +0.000 A 
ATOM     22  C   UNL     1       1.034   8.535  21.820  0.00  0.00    +0.000 A 
ATOM     23  C   UNL     1       1.250   8.750  20.414  0.00  0.00    +0.000 A 
ENDBRANCH  13  15
ENDBRANCH   1  13
TORSDOF 4
ENDMDL
MODEL 4
REMARK VINA RESULT:      -7.6      1.062      1.199
REMARK  Name = 
REMARK  4 active torsions:
REMARK  status: ('A' for Active; 'I' for Inactive)
REMARK    1  A    between atoms: C_4  and  C_5
REMARK    2  A    between atoms: C_5  and  N_6
REMARK    3  A    between atoms: C_5  and  C_16
REMARK    4  A    between atoms: N_6  and  C_7
REMARK                            x       y       z     vdW  Elec       q    Type
REMARK                         _______ _______ _______ _____ _____    ______ ____
ROOT
ATOM      1  C   UNL     1       2.496   5.923  18.416  0.00  0.00    +0.000 C 
ENDROOT
BRANCH   1   5
ATOM      2  C   UNL     1       1.337   2.686  21.076  0.00  0.00    +0.000 A 
ATOM      3  C   UNL     1       2.131   3.731  21.538  0.00  0.00    +0.000 A 
ATOM      4  C   UNL     1       2.469   4.785  20.684  0.00  0.00    +0.000 A 
ATOM      5  C   UNL     1       2.029   4.801  19.348  0.00  0.00    +0.000 A 
ATOM      6  C   UNL     1       1.196   3.757  18.912  0.00  0.00    +0.000 A 
ATOM      7  C   UNL     1       0.858   2.704  19.768  0.00  0.00    +0.000 A 
ENDBRANCH   1   5
BRANCH   1   8
ATOM      8  C   UNL     1       3.660   5.491  17.532  0.00  0.00    +0.000 A 
ATOM      9  C   UNL     1       4.023   4.218  17.126  0.00  0.00    +0.000 A 
ATOM     10  C   UNL     1       5.257   4.203  16.411  0.00  0.00    +0.000 A 
ATOM     11  C   UNL     1       5.790   5.465  16.276  0.00  0.00    +0.000 A 
ATOM     12  S   UNL     1       4.805   6.658  16.999  0.00  0.00    +0.000 S 
ENDBRANCH   1   8
BRANCH   1  13
ATOM     13  N   UNL     1       2.851   7.142  19.163  0.00  0.00    +0.000 N 
ATOM     14  H   UNL     1       3.805   7.437  18.982  0.00  0.00    +0.000 HD
BRANCH  13  15
ATOM     15  C   UNL     1       1.961   8.213  19.082  0.00  0.00    +0.000 A 
ATOM     16  N   UNL     1       1.673   8.770  17.887  0.00  0.00    +0.000 NA
ATOM     17  C   UNL     1       0.794   9.782  17.828  0.00  0.00    +0.000 A 
ATOM     18  N   UNL     1       0.148  10.358  18.842  0.00  0.00    +0.000 NA
ATOM     19  C   UNL     1       0.451   9.793  20.021  0.00  0.00    +0.000 A 
ATOM     20  S   UNL     1      -0.257  10.361  21.465  0.00  0.00    +0.000 S 
ATOM     21  C   UNL     1       0.574   9.200  22.404  0.00  0.00    +0.000 A 
ATOM     22  C   UNL     1       1.380   8.396  21.628  0.00  0.00    +0.000 A 
ATOM     23  C   UNL     1       1.324   8.734  20.230  0.00  0.00    +0.000 A 
ENDBRANCH  13  15
ENDBRANCH   1  13
TORSDOF 4
ENDMDL
MODEL 5
REMARK VINA RESULT:      -7.6      2.531      6.076
REMARK  Name = 
REMARK  4 active torsions:
REMARK  status: ('A' for Active; 'I' for Inactive)
REMARK    1  A    between atoms: C_4  and  C_5
REMARK    2  A    between atoms: C_5  and  N_6
REMARK    3  A    between atoms: C_5  and  C_16
REMARK    4  A    between atoms: N_6  and  C_7
REMARK                            x       y       z     vdW  Elec       q    Type
REMARK                         _______ _______ _______ _____ _____    ______ ____
ROOT
ATOM      1  C   UNL     1       3.170   5.981  18.860  0.00  0.00    +0.000 C 
ENDROOT
BRANCH   1   5
ATOM      2  C   UNL     1       1.181   2.741  20.969  0.00  0.00    +0.000 A 
ATOM      3  C   UNL     1       2.116   3.541  21.620  0.00  0.00    +0.000 A 
ATOM      4  C   UNL     1       2.723   4.602  20.943  0.00  0.00    +0.000 A 
ATOM      5  C   UNL     1       2.416   4.870  19.596  0.00  0.00    +0.000 A 
ATOM      6  C   UNL     1       1.441   4.076  18.968  0.00  0.00    +0.000 A 
ATOM      7  C   UNL     1       0.833   3.016  19.648  0.00  0.00    +0.000 A 
ENDBRANCH   1   5
BRANCH   1   8
ATOM      8  C   UNL     1       2.378   7.284  18.817  0.00  0.00    +0.000 A 
ATOM      9  C   UNL     1       2.172   8.147  17.754  0.00  0.00    +0.000 A 
ATOM     10  C   UNL     1       1.487   9.336  18.141  0.00  0.00    +0.000 A 
ATOM     11  C   UNL     1       1.174   9.338  19.481  0.00  0.00    +0.000 A 
ATOM     12  S   UNL     1       1.695   7.913  20.264  0.00  0.00    +0.000 S 
ENDBRANCH   1   8
BRANCH   1  13
ATOM     13  N   UNL     1       3.551   5.574  17.498  0.00  0.00    +0.000 N 
ATOM     14  H   UNL     1       2.901   5.919  16.799  0.00  0.00    +0.000 HD
BRANCH  13  15
ATOM     15  C   UNL     1       4.875   5.802  17.119  0.00  0.00    +0.000 A 
ATOM     16  N   UNL     1       5.674   6.584  17.873  0.00  0.00    +0.000 NA
ATOM     17  C   UNL     1       6.951   6.769  17.505  0.00  0.00    +0.000 A 
ATOM     18  N   UNL     1       7.566   6.277  16.429  0.00  0.00    +0.000 NA
ATOM     19  C   UNL     1       6.754   5.506  15.690  0.00  0.00    +0.000 A 
ATOM     20  S   UNL     1       7.321   4.764  14.263  0.00  0.00    +0.000 S 
ATOM     21  C   UNL     1       5.808   4.024  13.972  0.00  0.00    +0.000 A 
ATOM     22  C   UNL     1       4.886   4.342  14.946  0.00  0.00    +0.000 A 
ATOM     23  C   UNL     1       5.424   5.214  15.957  0.00  0.00    +0.000 A 
ENDBRANCH  13  15
ENDBRANCH   1  13
TORSDOF 4
ENDMDL
MODEL 6
REMARK VINA RESULT:      -7.6      1.119      1.542
REMARK  Name = 
REMARK  4 active torsions:
REMARK  status: ('A' for Active; 'I' for Inactive)
REMARK    1  A    between atoms: C_4  and  C_5
REMARK    2  A    between atoms: C_5  and  N_6
REMARK    3  A    between atoms: C_5  and  C_16
REMARK    4  A    between atoms: N_6  and  C_7
REMARK                            x       y       z     vdW  Elec       q    Type
REMARK                         _______ _______ _______ _____ _____    ______ ____
ROOT
ATOM      1  C   UNL     1       2.612   5.888  18.323  0.00  0.00    +0.000 C 
ENDROOT
BRANCH   1   5
ATOM      2  C   UNL     1       1.209   2.812  21.057  0.00  0.00    +0.000 A 
ATOM      3  C   UNL     1       0.806   2.812  19.725  0.00  0.00    +0.000 A 
ATOM      4  C   UNL     1       1.290   3.785  18.846  0.00  0.00    +0.000 A 
ATOM      5  C   UNL     1       2.176   4.784  19.291  0.00  0.00    +0.000 A 
ATOM      6  C   UNL     1       2.602   4.743  20.630  0.00  0.00    +0.000 A 
ATOM      7  C   UNL     1       2.117   3.768  21.507  0.00  0.00    +0.000 A 
ENDBRANCH   1   5
BRANCH   1   8
ATOM      8  C   UNL     1       3.763   5.445  17.427  0.00  0.00    +0.000 A 
ATOM      9  C   UNL     1       4.163   4.164  17.086  0.00  0.00    +0.000 A 
ATOM     10  C   UNL     1       5.373   4.152  16.331  0.00  0.00    +0.000 A 
ATOM     11  C   UNL     1       5.851   5.422  16.103  0.00  0.00    +0.000 A 
ATOM     12  S   UNL     1       4.843   6.619  16.786  0.00  0.00    +0.000 S 
ENDBRANCH   1   8
BRANCH   1  13
ATOM     13  N   UNL     1       2.968   7.128  19.031  0.00  0.00    +0.000 N 
ATOM     14  H   UNL     1       3.900   7.450  18.795  0.00  0.00    +0.000 HD
BRANCH  13  15
ATOM     15  C   UNL     1       2.041   8.170  18.983  0.00  0.00    +0.000 A 
ATOM     16  N   UNL     1       1.720   8.741  17.803  0.00  0.00    +0.000 NA
ATOM     17  C   UNL     1       0.807   9.723  17.775  0.00  0.00    +0.000 A 
ATOM     18  N   UNL     1       0.155  10.257  18.808  0.00  0.00    +0.000 NA
ATOM     19  C   UNL     1       0.492   9.680  19.972  0.00  0.00    +0.000 A 
ATOM     20  S   UNL     1      -0.216  10.196  21.435  0.00  0.00    +0.000 S 
ATOM     21  C   UNL     1       0.665   9.045  22.340  0.00  0.00    +0.000 A 
ATOM     22  C   UNL     1       1.487   8.283  21.539  0.00  0.00    +0.000 A 
ATOM     23  C   UNL     1       1.402   8.648  20.149  0.00  0.00    +0.000 A 
ENDBRANCH  13  15
ENDBRANCH   1  13
TORSDOF 4
ENDMDL
MODEL 7
REMARK VINA RESULT:      -7.5      2.522      6.153
REMARK  Name = 
REMARK  4 active torsions:
REMARK  status: ('A' for Active; 'I' for Inactive)
REMARK    1  A    between atoms: C_4  and  C_5
REMARK    2  A    between atoms: C_5  and  N_6
REMARK    3  A    between atoms: C_5  and  C_16
REMARK    4  A    between atoms: N_6  and  C_7
REMARK                            x       y       z     vdW  Elec       q    Type
REMARK                         _______ _______ _______ _____ _____    ______ ____
ROOT
ATOM      1  C   UNL     1       3.194   6.106  18.808  0.00  0.00    +0.000 C 
ENDROOT
BRANCH   1   5
ATOM      2  C   UNL     1       1.099   2.880  20.834  0.00  0.00    +0.000 A 
ATOM      3  C   UNL     1       0.849   3.153  19.492  0.00  0.00    +0.000 A 
ATOM      4  C   UNL     1       1.554   4.169  18.841  0.00  0.00    +0.000 A 
ATOM      5  C   UNL     1       2.510   4.940  19.528  0.00  0.00    +0.000 A 
ATOM      6  C   UNL     1       2.776   4.623  20.871  0.00  0.00    +0.000 A 
ATOM      7  C   UNL     1       2.071   3.604  21.520  0.00  0.00    +0.000 A 
ENDBRANCH   1   5
BRANCH   1   8
ATOM      8  C   UNL     1       2.350   7.374  18.834  0.00  0.00    +0.000 A 
ATOM      9  C   UNL     1       2.068   8.258  17.806  0.00  0.00    +0.000 A 
ATOM     10  C   UNL     1       1.351   9.406  18.253  0.00  0.00    +0.000 A 
ATOM     11  C   UNL     1       1.089   9.357  19.604  0.00  0.00    +0.000 A 
ATOM     12  S   UNL     1       1.697   7.933  20.323  0.00  0.00    +0.000 S 
ENDBRANCH   1   8
BRANCH   1  13
ATOM     13  N   UNL     1       3.549   5.760  17.421  0.00  0.00    +0.000 N 
ATOM     14  H   UNL     1       2.911   6.173  16.749  0.00  0.00    +0.000 HD
BRANCH  13  15
ATOM     15  C   UNL     1       4.879   5.947  17.045  0.00  0.00    +0.000 A 
ATOM     16  N   UNL     1       5.684   6.752  17.768  0.00  0.00    +0.000 NA
ATOM     17  C   UNL     1       6.967   6.898  17.404  0.00  0.00    +0.000 A 
ATOM     18  N   UNL     1       7.584   6.344  16.359  0.00  0.00    +0.000 NA
ATOM     19  C   UNL     1       6.765   5.551  15.651  0.00  0.00    +0.000 A 
ATOM     20  S   UNL     1       7.333   4.731  14.267  0.00  0.00    +0.000 S 
ATOM     21  C   UNL     1       5.811   4.002  13.998  0.00  0.00    +0.000 A 
ATOM     22  C   UNL     1       4.886   4.383  14.946  0.00  0.00    +0.000 A 
ATOM     23  C   UNL     1       5.428   5.294  15.918  0.00  0.00    +0.000 A 
ENDBRANCH  13  15
ENDBRANCH   1  13
TORSDOF 4
ENDMDL
MODEL 8
REMARK VINA RESULT:      -7.5      0.167      1.041
REMARK  Name = 
REMARK  4 active torsions:
REMARK  status: ('A' for Active; 'I' for Inactive)
REMARK    1  A    between atoms: C_4  and  C_5
REMARK    2  A    between atoms: C_5  and  N_6
REMARK    3  A    between atoms: C_5  and  C_16
REMARK    4  A    between atoms: N_6  and  C_7
REMARK                            x       y       z     vdW  Elec       q    Type
REMARK                         _______ _______ _______ _____ _____    ______ ____
ROOT
ATOM      1  C   UNL     1       2.687   6.153  18.577  0.00  0.00    +0.000 C 
ENDROOT
BRANCH   1   5
ATOM      2  C   UNL     1       0.982   2.252  19.463  0.00  0.00    +0.000 A 
ATOM      3  C   UNL     1       1.472   2.538  18.192  0.00  0.00    +0.000 A 
ATOM      4  C   UNL     1       2.050   3.783  17.928  0.00  0.00    +0.000 A 
ATOM      5  C   UNL     1       2.132   4.769  18.929  0.00  0.00    +0.000 A 
ATOM      6  C   UNL     1       1.668   4.447  20.215  0.00  0.00    +0.000 A 
ATOM      7  C   UNL     1       1.092   3.200  20.478  0.00  0.00    +0.000 A 
ENDBRANCH   1   5
BRANCH   1   8
ATOM      8  C   UNL     1       4.126   6.087  18.079  0.00  0.00    +0.000 A 
ATOM      9  C   UNL     1       4.674   6.607  16.918  0.00  0.00    +0.000 A 
ATOM     10  C   UNL     1       6.034   6.220  16.735  0.00  0.00    +0.000 A 
ATOM     11  C   UNL     1       6.490   5.434  17.768  0.00  0.00    +0.000 A 
ATOM     12  S   UNL     1       5.289   5.172  18.954  0.00  0.00    +0.000 S 
ENDBRANCH   1   8
BRANCH   1  13
ATOM     13  N   UNL     1       2.584   7.087  19.711  0.00  0.00    +0.000 N 
ATOM     14  H   UNL     1       3.490   7.296  20.118  0.00  0.00    +0.000 HD
BRANCH  13  15
ATOM     15  C   UNL     1       1.837   8.247  19.506  0.00  0.00    +0.000 A 
ATOM     16  N   UNL     1       1.771   8.807  18.279  0.00  0.00    +0.000 NA
ATOM     17  C   UNL     1       1.025   9.907  18.098  0.00  0.00    +0.000 A 
ATOM     18  N   UNL     1       0.321  10.573  19.014  0.00  0.00    +0.000 NA
ATOM     19  C   UNL     1       0.404  10.004  20.227  0.00  0.00    +0.000 A 
ATOM     20  S   UNL     1      -0.417  10.678  21.561  0.00  0.00    +0.000 S 
ATOM     21  C   UNL     1       0.149   9.453  22.609  0.00  0.00    +0.000 A 
ATOM     22  C   UNL     1       0.955   8.548  21.952  0.00  0.00    +0.000 A 
ATOM     23  C   UNL     1       1.118   8.861  20.556  0.00  0.00    +0.000 A 
ENDBRANCH  13  15
ENDBRANCH   1  13
TORSDOF 4
ENDMDL
MODEL 9
REMARK VINA RESULT:      -7.5      2.192      6.098
REMARK  Name = 
REMARK  4 active torsions:
REMARK  status: ('A' for Active; 'I' for Inactive)
REMARK    1  A    between atoms: C_4  and  C_5
REMARK    2  A    between atoms: C_5  and  N_6
REMARK    3  A    between atoms: C_5  and  C_16
REMARK    4  A    between atoms: N_6  and  C_7
REMARK                            x       y       z     vdW  Elec       q    Type
REMARK                         _______ _______ _______ _____ _____    ______ ____
ROOT
ATOM      1  C   UNL     1       2.968   6.542  19.404  0.00  0.00    +0.000 C 
ENDROOT
BRANCH   1   5
ATOM      2  C   UNL     1       0.804   2.772  19.516  0.00  0.00    +0.000 A 
ATOM      3  C   UNL     1       1.112   3.447  20.694  0.00  0.00    +0.000 A 
ATOM      4  C   UNL     1       1.777   4.675  20.645  0.00  0.00    +0.000 A 
ATOM      5  C   UNL     1       2.159   5.241  19.414  0.00  0.00    +0.000 A 
ATOM      6  C   UNL     1       1.804   4.564  18.235  0.00  0.00    +0.000 A 
ATOM      7  C   UNL     1       1.137   3.336  18.286  0.00  0.00    +0.000 A 
ENDBRANCH   1   5
BRANCH   1   8
ATOM      8  C   UNL     1       2.089   7.768  19.621  0.00  0.00    +0.000 A 
ATOM      9  C   UNL     1       1.394   8.156  20.755  0.00  0.00    +0.000 A 
ATOM     10  C   UNL     1       0.570   9.297  20.527  0.00  0.00    +0.000 A 
ATOM     11  C   UNL     1       0.674   9.758  19.234  0.00  0.00    +0.000 A 
ATOM     12  S   UNL     1       1.763   8.826  18.306  0.00  0.00    +0.000 S 
ENDBRANCH   1   8
BRANCH   1  13
ATOM     13  N   UNL     1       3.749   6.690  18.165  0.00  0.00    +0.000 N 
ATOM     14  H   UNL     1       3.858   7.662  17.895  0.00  0.00    +0.000 HD
BRANCH  13  15
ATOM     15  C   UNL     1       4.961   6.003  18.097  0.00  0.00    +0.000 A 
ATOM     16  N   UNL     1       5.647   5.720  19.224  0.00  0.00    +0.000 NA
ATOM     17  C   UNL     1       6.798   5.036  19.140  0.00  0.00    +0.000 A 
ATOM     18  N   UNL     1       7.400   4.591  18.037  0.00  0.00    +0.000 NA
ATOM     19  C   UNL     1       6.705   4.886  16.927  0.00  0.00    +0.000 A 
ATOM     20  S   UNL     1       7.278   4.415  15.391  0.00  0.00    +0.000 S 
ATOM     21  C   UNL     1       5.924   5.099  14.606  0.00  0.00    +0.000 A 
ATOM     22  C   UNL     1       5.052   5.680  15.501  0.00  0.00    +0.000 A 
ATOM     23  C   UNL     1       5.499   5.568  16.865  0.00  0.00    +0.000 A 
ENDBRANCH  13  15
ENDBRANCH   1  13
TORSDOF 4
ENDMDL
