MODEL 1
REMARK VINA RESULT:      -7.4      0.000      0.000
REMARK  Name = 
REMARK  7 active torsions:
REMARK  status: ('A' for Active; 'I' for Inactive)
REMARK    1  A    between atoms: C_1  and  N_2
REMARK    2  A    between atoms: N_2  and  C_3
REMARK    3  A    between atoms: N_2  and  C_17
REMARK    4  A    between atoms: C_3  and  C_4
REMARK    5  A    between atoms: C_4  and  C_5
REMARK    6  A    between atoms: C_5  and  N_6
REMARK    7  A    between atoms: C_17  and  C_18
REMARK                            x       y       z     vdW  Elec       q    Type
REMARK                         _______ _______ _______ _____ _____    ______ ____
ROOT
ATOM      1  C   UNL     1       4.951   4.598  16.843  0.00  0.00    +0.000 C 
ENDROOT
BRANCH   1   2
ATOM      2  N   UNL     1       6.031   4.805  15.903  0.00  0.00    +0.000 N 
ATOM      3  C   UNL     1       7.225   5.443  16.188  0.00  0.00    +0.000 A 
ATOM      4  O   UNL     1       7.561   5.886  17.278  0.00  0.00    +0.000 OA
ATOM      5  O   UNL     1       8.035   5.531  15.047  0.00  0.00    +0.000 OA
ATOM      6  C   UNL     1       7.247   4.940  14.075  0.00  0.00    +0.000 A 
ATOM      7  C   UNL     1       7.607   4.779  12.753  0.00  0.00    +0.000 A 
ATOM      8  C   UNL     1       6.685   4.160  11.906  0.00  0.00    +0.000 A 
ATOM      9  C   UNL     1       5.436   3.736  12.403  0.00  0.00    +0.000 A 
ATOM     10 BR   UNL     1       4.210   2.906  11.226  0.00  0.00    +0.000 Br
ATOM     11  C   UNL     1       5.087   3.911  13.747  0.00  0.00    +0.000 A 
ATOM     12  C   UNL     1       6.027   4.509  14.559  0.00  0.00    +0.000 A 
ENDBRANCH   1   2
BRANCH   1  13
ATOM     13  C   UNL     1       4.854   5.750  17.842  0.00  0.00    +0.000 C 
BRANCH  13  14
ATOM     14  C   UNL     1       3.970   6.908  17.351  0.00  0.00    +0.000 C 
BRANCH  14  16
ATOM     15  C   UNL     1       2.046   8.271  17.947  0.00  0.00    +0.000 C 
ATOM     16  N   UNL     1       2.649   6.933  18.021  0.00  0.00    +0.000 NA
BRANCH  16  17
ATOM     17  C   UNL     1       2.775   6.499  19.431  0.00  0.00    +0.000 C 
BRANCH  17  18
ATOM     18  C   UNL     1       2.183   5.125  19.705  0.00  0.00    +0.000 A 
ATOM     19  C   UNL     1       1.597   4.375  18.674  0.00  0.00    +0.000 A 
ATOM     20  C   UNL     1       1.038   3.122  18.934  0.00  0.00    +0.000 A 
ATOM     21  C   UNL     1       1.058   2.600  20.225  0.00  0.00    +0.000 A 
ATOM     22  C   UNL     1       1.636   3.333  21.260  0.00  0.00    +0.000 A 
ATOM     23  C   UNL     1       2.199   4.585  21.001  0.00  0.00    +0.000 A 
ENDBRANCH  17  18
ENDBRANCH  16  17
ENDBRANCH  14  16
ENDBRANCH  13  14
ENDBRANCH   1  13
TORSDOF 6
ENDMDL
MODEL 2
REMARK VINA RESULT:      -7.4      4.001      7.634
REMARK  Name = 
REMARK  7 active torsions:
REMARK  status: ('A' for Active; 'I' for Inactive)
REMARK    1  A    between atoms: C_1  and  N_2
REMARK    2  A    between atoms: N_2  and  C_3
REMARK    3  A    between atoms: N_2  and  C_17
REMARK    4  A    between atoms: C_3  and  C_4
REMARK    5  A    between atoms: C_4  and  C_5
REMARK    6  A    between atoms: C_5  and  N_6
REMARK    7  A    between atoms: C_17  and  C_18
REMARK                            x       y       z     vdW  Elec       q    Type
REMARK                         _______ _______ _______ _____ _____    ______ ____
ROOT
ATOM      1  C   UNL     1       2.968   6.585  19.485  0.00  0.00    +0.000 C 
ENDROOT
BRANCH   1   2
ATOM      2  N   UNL     1       2.341   7.788  18.981  0.00  0.00    +0.000 N 
ATOM      3  C   UNL     1       2.550   8.330  17.724  0.00  0.00    +0.000 A 
ATOM      4  O   UNL     1       3.255   7.855  16.845  0.00  0.00    +0.000 OA
ATOM      5  O   UNL     1       1.839   9.527  17.568  0.00  0.00    +0.000 OA
ATOM      6  C   UNL     1       1.229   9.676  18.800  0.00  0.00    +0.000 A 
ATOM      7  C   UNL     1       0.401  10.723  19.154  0.00  0.00    +0.000 A 
ATOM      8  C   UNL     1      -0.130  10.715  20.446  0.00  0.00    +0.000 A 
ATOM      9  C   UNL     1       0.191   9.674  21.340  0.00  0.00    +0.000 A 
ATOM     10 BR   UNL     1      -0.542   9.697  23.084  0.00  0.00    +0.000 Br
ATOM     11  C   UNL     1       1.035   8.622  20.965  0.00  0.00    +0.000 A 
ATOM     12  C   UNL     1       1.528   8.652  19.678  0.00  0.00    +0.000 A 
ENDBRANCH   1   2
BRANCH   1  13
ATOM     13  C   UNL     1       2.046   5.375  19.342  0.00  0.00    +0.000 C 
BRANCH  13  14
ATOM     14  C   UNL     1       1.981   4.827  17.907  0.00  0.00    +0.000 C 
BRANCH  14  16
ATOM     15  C   UNL     1       1.568   2.489  18.437  0.00  0.00    +0.000 C 
ATOM     16  N   UNL     1       2.496   3.441  17.809  0.00  0.00    +0.000 NA
BRANCH  16  17
ATOM     17  C   UNL     1       3.837   3.342  18.427  0.00  0.00    +0.000 C 
BRANCH  17  18
ATOM     18  C   UNL     1       4.961   3.851  17.539  0.00  0.00    +0.000 A 
ATOM     19  C   UNL     1       6.069   4.514  18.089  0.00  0.00    +0.000 A 
ATOM     20  C   UNL     1       7.091   4.996  17.268  0.00  0.00    +0.000 A 
ATOM     21  C   UNL     1       7.023   4.819  15.888  0.00  0.00    +0.000 A 
ATOM     22  C   UNL     1       5.929   4.162  15.326  0.00  0.00    +0.000 A 
ATOM     23  C   UNL     1       4.908   3.677  16.147  0.00  0.00    +0.000 A 
ENDBRANCH  17  18
ENDBRANCH  16  17
ENDBRANCH  14  16
ENDBRANCH  13  14
ENDBRANCH   1  13
TORSDOF 6
ENDMDL
MODEL 3
REMARK VINA RESULT:      -7.3      3.273      7.410
REMARK  Name = 
REMARK  7 active torsions:
REMARK  status: ('A' for Active; 'I' for Inactive)
REMARK    1  A    between atoms: C_1  and  N_2
REMARK    2  A    between atoms: N_2  and  C_3
REMARK    3  A    between atoms: N_2  and  C_17
REMARK    4  A    between atoms: C_3  and  C_4
REMARK    5  A    between atoms: C_4  and  C_5
REMARK    6  A    between atoms: C_5  and  N_6
REMARK    7  A    between atoms: C_17  and  C_18
REMARK                            x       y       z     vdW  Elec       q    Type
REMARK                         _______ _______ _______ _____ _____    ______ ____
ROOT
ATOM      1  C   UNL     1       2.835   3.871  17.518  0.00  0.00    +0.000 C 
ENDROOT
BRANCH   1   2
ATOM      2  N   UNL     1       2.452   4.432  18.795  0.00  0.00    +0.000 N 
ATOM      3  C   UNL     1       2.162   3.700  19.933  0.00  0.00    +0.000 A 
ATOM      4  O   UNL     1       2.227   2.483  20.041  0.00  0.00    +0.000 OA
ATOM      5  O   UNL     1       1.770   4.539  20.985  0.00  0.00    +0.000 OA
ATOM      6  C   UNL     1       1.816   5.792  20.402  0.00  0.00    +0.000 A 
ATOM      7  C   UNL     1       1.512   6.976  21.042  0.00  0.00    +0.000 A 
ATOM      8  C   UNL     1       1.610   8.154  20.298  0.00  0.00    +0.000 A 
ATOM      9  C   UNL     1       1.996   8.108  18.943  0.00  0.00    +0.000 A 
ATOM     10 BR   UNL     1       2.115   9.722  17.964  0.00  0.00    +0.000 Br
ATOM     11  C   UNL     1       2.298   6.898  18.309  0.00  0.00    +0.000 A 
ATOM     12  C   UNL     1       2.206   5.757  19.077  0.00  0.00    +0.000 A 
ENDBRANCH   1   2
BRANCH   1  13
ATOM     13  C   UNL     1       4.222   3.231  17.584  0.00  0.00    +0.000 C 
BRANCH  13  14
ATOM     14  C   UNL     1       5.298   4.170  18.154  0.00  0.00    +0.000 C 
BRANCH  14  16
ATOM     15  C   UNL     1       7.458   5.223  17.783  0.00  0.00    +0.000 C 
ATOM     16  N   UNL     1       6.342   4.502  17.156  0.00  0.00    +0.000 NA
BRANCH  16  17
ATOM     17  C   UNL     1       5.766   5.299  16.050  0.00  0.00    +0.000 C 
BRANCH  17  18
ATOM     18  C   UNL     1       6.186   4.823  14.667  0.00  0.00    +0.000 A 
ATOM     19  C   UNL     1       7.332   5.342  14.045  0.00  0.00    +0.000 A 
ATOM     20  C   UNL     1       7.704   4.916  12.769  0.00  0.00    +0.000 A 
ATOM     21  C   UNL     1       6.939   3.965  12.098  0.00  0.00    +0.000 A 
ATOM     22  C   UNL     1       5.799   3.439  12.702  0.00  0.00    +0.000 A 
ATOM     23  C   UNL     1       5.427   3.863  13.980  0.00  0.00    +0.000 A 
ENDBRANCH  17  18
ENDBRANCH  16  17
ENDBRANCH  14  16
ENDBRANCH  13  14
ENDBRANCH   1  13
TORSDOF 6
ENDMDL
MODEL 4
REMARK VINA RESULT:      -7.3      4.377      7.834
REMARK  Name = 
REMARK  7 active torsions:
REMARK  status: ('A' for Active; 'I' for Inactive)
REMARK    1  A    between atoms: C_1  and  N_2
REMARK    2  A    between atoms: N_2  and  C_3
REMARK    3  A    between atoms: N_2  and  C_17
REMARK    4  A    between atoms: C_3  and  C_4
REMARK    5  A    between atoms: C_4  and  C_5
REMARK    6  A    between atoms: C_5  and  N_6
REMARK    7  A    between atoms: C_17  and  C_18
REMARK                            x       y       z     vdW  Elec       q    Type
REMARK                         _______ _______ _______ _____ _____    ______ ____
ROOT
ATOM      1  C   UNL     1       2.783   6.672  19.825  0.00  0.00    +0.000 C 
ENDROOT
BRANCH   1   2
ATOM      2  N   UNL     1       2.158   7.816  19.196  0.00  0.00    +0.000 N 
ATOM      3  C   UNL     1       2.371   8.223  17.891  0.00  0.00    +0.000 A 
ATOM      4  O   UNL     1       3.077   7.658  17.067  0.00  0.00    +0.000 OA
ATOM      5  O   UNL     1       1.661   9.399  17.608  0.00  0.00    +0.000 OA
ATOM      6  C   UNL     1       1.048   9.676  18.817  0.00  0.00    +0.000 A 
ATOM      7  C   UNL     1       0.221  10.754  19.058  0.00  0.00    +0.000 A 
ATOM      8  C   UNL     1      -0.313  10.882  20.342  0.00  0.00    +0.000 A 
ATOM      9  C   UNL     1       0.005   9.940  21.341  0.00  0.00    +0.000 A 
ATOM     10 BR   UNL     1      -0.732  10.146  23.071  0.00  0.00    +0.000 Br
ATOM     11  C   UNL     1       0.848   8.854  21.079  0.00  0.00    +0.000 A 
ATOM     12  C   UNL     1       1.345   8.749  19.798  0.00  0.00    +0.000 A 
ENDBRANCH   1   2
BRANCH   1  13
ATOM     13  C   UNL     1       1.867   5.449  19.789  0.00  0.00    +0.000 C 
BRANCH  13  14
ATOM     14  C   UNL     1       2.629   4.123  19.630  0.00  0.00    +0.000 C 
BRANCH  14  16
ATOM     15  C   UNL     1       3.208   3.135  17.484  0.00  0.00    +0.000 C 
ATOM     16  N   UNL     1       3.570   4.148  18.487  0.00  0.00    +0.000 NA
BRANCH  16  17
ATOM     17  C   UNL     1       4.959   3.940  18.954  0.00  0.00    +0.000 C 
BRANCH  17  18
ATOM     18  C   UNL     1       5.921   5.038  18.529  0.00  0.00    +0.000 A 
ATOM     19  C   UNL     1       7.046   5.352  19.309  0.00  0.00    +0.000 A 
ATOM     20  C   UNL     1       7.917   6.373  18.924  0.00  0.00    +0.000 A 
ATOM     21  C   UNL     1       7.679   7.093  17.756  0.00  0.00    +0.000 A 
ATOM     22  C   UNL     1       6.567   6.794  16.970  0.00  0.00    +0.000 A 
ATOM     23  C   UNL     1       5.697   5.770  17.353  0.00  0.00    +0.000 A 
ENDBRANCH  17  18
ENDBRANCH  16  17
ENDBRANCH  14  16
ENDBRANCH  13  14
ENDBRANCH   1  13
TORSDOF 6
ENDMDL
MODEL 5
REMARK VINA RESULT:      -7.3      4.753      7.545
REMARK  Name = 
REMARK  7 active torsions:
REMARK  status: ('A' for Active; 'I' for Inactive)
REMARK    1  A    between atoms: C_1  and  N_2
REMARK    2  A    between atoms: N_2  and  C_3
REMARK    3  A    between atoms: N_2  and  C_17
REMARK    4  A    between atoms: C_3  and  C_4
REMARK    5  A    between atoms: C_4  and  C_5
REMARK    6  A    between atoms: C_5  and  N_6
REMARK    7  A    between atoms: C_17  and  C_18
REMARK                            x       y       z     vdW  Elec       q    Type
REMARK                         _______ _______ _______ _____ _____    ______ ____
ROOT
ATOM      1  C   UNL     1       1.597   8.566  21.066  0.00  0.00    +0.000 C 
ENDROOT
BRANCH   1   2
ATOM      2  N   UNL     1       1.948   7.798  19.890  0.00  0.00    +0.000 N 
ATOM      3  C   UNL     1       2.146   8.324  18.626  0.00  0.00    +0.000 A 
ATOM      4  O   UNL     1       2.097   9.508  18.323  0.00  0.00    +0.000 OA
ATOM      5  O   UNL     1       2.418   7.310  17.696  0.00  0.00    +0.000 OA
ATOM      6  C   UNL     1       2.340   6.166  18.470  0.00  0.00    +0.000 A 
ATOM      7  C   UNL     1       2.535   4.881  18.007  0.00  0.00    +0.000 A 
ATOM      8  C   UNL     1       2.416   3.839  18.930  0.00  0.00    +0.000 A 
ATOM      9  C   UNL     1       2.097   4.114  20.274  0.00  0.00    +0.000 A 
ATOM     10 BR   UNL     1       1.939   2.679  21.496  0.00  0.00    +0.000 Br
ATOM     11  C   UNL     1       1.899   5.424  20.725  0.00  0.00    +0.000 A 
ATOM     12  C   UNL     1       2.040   6.429  19.793  0.00  0.00    +0.000 A 
ENDBRANCH   1   2
BRANCH   1  13
ATOM     13  C   UNL     1       0.087   8.783  21.158  0.00  0.00    +0.000 C 
BRANCH  13  14
ATOM     14  C   UNL     1      -0.300  10.236  21.480  0.00  0.00    +0.000 C 
BRANCH  14  16
ATOM     15  C   UNL     1       0.917  12.136  20.571  0.00  0.00    +0.000 C 
ATOM     16  N   UNL     1      -0.129  11.136  20.316  0.00  0.00    +0.000 NA
BRANCH  16  17
ATOM     17  C   UNL     1      -1.410  11.799  19.982  0.00  0.00    +0.000 C 
BRANCH  17  18
ATOM     18  C   UNL     1      -2.082  11.245  18.735  0.00  0.00    +0.000 A 
ATOM     19  C   UNL     1      -1.418  10.324  17.909  0.00  0.00    +0.000 A 
ATOM     20  C   UNL     1      -2.032   9.831  16.756  0.00  0.00    +0.000 A 
ATOM     21  C   UNL     1      -3.316  10.247  16.413  0.00  0.00    +0.000 A 
ATOM     22  C   UNL     1      -3.988  11.161  17.223  0.00  0.00    +0.000 A 
ATOM     23  C   UNL     1      -3.376  11.653  18.379  0.00  0.00    +0.000 A 
ENDBRANCH  17  18
ENDBRANCH  16  17
ENDBRANCH  14  16
ENDBRANCH  13  14
ENDBRANCH   1  13
TORSDOF 6
ENDMDL
MODEL 6
REMARK VINA RESULT:      -7.2      4.012      5.981
REMARK  Name = 
REMARK  7 active torsions:
REMARK  status: ('A' for Active; 'I' for Inactive)
REMARK    1  A    between atoms: C_1  and  N_2
REMARK    2  A    between atoms: N_2  and  C_3
REMARK    3  A    between atoms: N_2  and  C_17
REMARK    4  A    between atoms: C_3  and  C_4
REMARK    5  A    between atoms: C_4  and  C_5
REMARK    6  A    between atoms: C_5  and  N_6
REMARK    7  A    between atoms: C_17  and  C_18
REMARK                            x       y       z     vdW  Elec       q    Type
REMARK                         _______ _______ _______ _____ _____    ______ ____
ROOT
ATOM      1  C   UNL     1       3.710   7.550  17.930  0.00  0.00    +0.000 C 
ENDROOT
BRANCH   1   2
ATOM      2  N   UNL     1       4.006   6.190  17.534  0.00  0.00    +0.000 N 
ATOM      3  C   UNL     1       4.783   5.828  16.448  0.00  0.00    +0.000 A 
ATOM      4  O   UNL     1       5.365   6.594  15.692  0.00  0.00    +0.000 OA
ATOM      5  O   UNL     1       4.828   4.434  16.304  0.00  0.00    +0.000 OA
ATOM      6  C   UNL     1       4.018   4.000  17.338  0.00  0.00    +0.000 A 
ATOM      7  C   UNL     1       3.738   2.680  17.626  0.00  0.00    +0.000 A 
ATOM      8  C   UNL     1       2.896   2.421  18.710  0.00  0.00    +0.000 A 
ATOM      9  C   UNL     1       2.355   3.486  19.459  0.00  0.00    +0.000 A 
ATOM     10 BR   UNL     1       1.215   3.100  20.918  0.00  0.00    +0.000 Br
ATOM     11  C   UNL     1       2.647   4.819  19.150  0.00  0.00    +0.000 A 
ATOM     12  C   UNL     1       3.494   5.038  18.085  0.00  0.00    +0.000 A 
ENDBRANCH   1   2
BRANCH   1  13
ATOM     13  C   UNL     1       2.207   7.824  17.901  0.00  0.00    +0.000 C 
BRANCH  13  14
ATOM     14  C   UNL     1       1.863   9.321  17.837  0.00  0.00    +0.000 C 
BRANCH  14  16
ATOM     15  C   UNL     1      -0.441  10.098  17.928  0.00  0.00    +0.000 C 
ATOM     16  N   UNL     1       0.726   9.677  18.718  0.00  0.00    +0.000 NA
BRANCH  16  17
ATOM     17  C   UNL     1       1.120  10.741  19.668  0.00  0.00    +0.000 C 
BRANCH  17  18
ATOM     18  C   UNL     1       0.250  10.804  20.914  0.00  0.00    +0.000 A 
ATOM     19  C   UNL     1      -0.611  11.890  21.136  0.00  0.00    +0.000 A 
ATOM     20  C   UNL     1      -1.395  11.953  22.290  0.00  0.00    +0.000 A 
ATOM     21  C   UNL     1      -1.332  10.933  23.236  0.00  0.00    +0.000 A 
ATOM     22  C   UNL     1      -0.482   9.848  23.030  0.00  0.00    +0.000 A 
ATOM     23  C   UNL     1       0.300   9.782  21.874  0.00  0.00    +0.000 A 
ENDBRANCH  17  18
ENDBRANCH  16  17
ENDBRANCH  14  16
ENDBRANCH  13  14
ENDBRANCH   1  13
TORSDOF 6
ENDMDL
MODEL 7
REMARK VINA RESULT:      -7.2      4.878      7.798
REMARK  Name = 
REMARK  7 active torsions:
REMARK  status: ('A' for Active; 'I' for Inactive)
REMARK    1  A    between atoms: C_1  and  N_2
REMARK    2  A    between atoms: N_2  and  C_3
REMARK    3  A    between atoms: N_2  and  C_17
REMARK    4  A    between atoms: C_3  and  C_4
REMARK    5  A    between atoms: C_4  and  C_5
REMARK    6  A    between atoms: C_5  and  N_6
REMARK    7  A    between atoms: C_17  and  C_18
REMARK                            x       y       z     vdW  Elec       q    Type
REMARK                         _______ _______ _______ _____ _____    ______ ____
ROOT
ATOM      1  C   UNL     1       1.459   8.630  19.384  0.00  0.00    +0.000 C 
ENDROOT
BRANCH   1   2
ATOM      2  N   UNL     1       0.578   9.717  19.751  0.00  0.00    +0.000 N 
ATOM      3  C   UNL     1       0.597  10.384  20.963  0.00  0.00    +0.000 A 
ATOM      4  O   UNL     1       1.381  10.185  21.881  0.00  0.00    +0.000 OA
ATOM      5  O   UNL     1      -0.421  11.346  21.025  0.00  0.00    +0.000 OA
ATOM      6  C   UNL     1      -1.054  11.190  19.805  0.00  0.00    +0.000 A 
ATOM      7  C   UNL     1      -2.142  11.924  19.376  0.00  0.00    +0.000 A 
ATOM      8  C   UNL     1      -2.657  11.632  18.111  0.00  0.00    +0.000 A 
ATOM      9  C   UNL     1      -2.080  10.614  17.326  0.00  0.00    +0.000 A 
ATOM     10 BR   UNL     1      -2.806  10.242  15.620  0.00  0.00    +0.000 Br
ATOM     11  C   UNL     1      -0.979   9.878  17.779  0.00  0.00    +0.000 A 
ATOM     12  C   UNL     1      -0.485  10.203  19.023  0.00  0.00    +0.000 A 
ENDBRANCH   1   2
BRANCH   1  13
ATOM     13  C   UNL     1       1.928   8.758  17.935  0.00  0.00    +0.000 C 
BRANCH  13  14
ATOM     14  C   UNL     1       3.237   8.003  17.650  0.00  0.00    +0.000 C 
BRANCH  14  16
ATOM     15  C   UNL     1       4.612   6.065  18.172  0.00  0.00    +0.000 C 
ATOM     16  N   UNL     1       3.295   6.695  18.344  0.00  0.00    +0.000 NA
BRANCH  16  17
ATOM     17  C   UNL     1       2.225   5.799  17.852  0.00  0.00    +0.000 C 
BRANCH  17  18
ATOM     18  C   UNL     1       1.887   4.664  18.807  0.00  0.00    +0.000 A 
ATOM     19  C   UNL     1       1.539   3.394  18.321  0.00  0.00    +0.000 A 
ATOM     20  C   UNL     1       1.212   2.360  19.200  0.00  0.00    +0.000 A 
ATOM     21  C   UNL     1       1.231   2.578  20.576  0.00  0.00    +0.000 A 
ATOM     22  C   UNL     1       1.574   3.834  21.074  0.00  0.00    +0.000 A 
ATOM     23  C   UNL     1       1.905   4.868  20.196  0.00  0.00    +0.000 A 
ENDBRANCH  17  18
ENDBRANCH  16  17
ENDBRANCH  14  16
ENDBRANCH  13  14
ENDBRANCH   1  13
TORSDOF 6
ENDMDL
MODEL 8
REMARK VINA RESULT:      -7.1      3.926      5.855
REMARK  Name = 
REMARK  7 active torsions:
REMARK  status: ('A' for Active; 'I' for Inactive)
REMARK    1  A    between atoms: C_1  and  N_2
REMARK    2  A    between atoms: N_2  and  C_3
REMARK    3  A    between atoms: N_2  and  C_17
REMARK    4  A    between atoms: C_3  and  C_4
REMARK    5  A    between atoms: C_4  and  C_5
REMARK    6  A    between atoms: C_5  and  N_6
REMARK    7  A    between atoms: C_17  and  C_18
REMARK                            x       y       z     vdW  Elec       q    Type
REMARK                         _______ _______ _______ _____ _____    ______ ____
ROOT
ATOM      1  C   UNL     1       3.742   7.706  17.652  0.00  0.00    +0.000 C 
ENDROOT
BRANCH   1   2
ATOM      2  N   UNL     1       4.076   6.334  17.334  0.00  0.00    +0.000 N 
ATOM      3  C   UNL     1       4.883   5.933  16.283  0.00  0.00    +0.000 A 
ATOM      4  O   UNL     1       5.463   6.671  15.499  0.00  0.00    +0.000 OA
ATOM      5  O   UNL     1       4.961   4.535  16.215  0.00  0.00    +0.000 OA
ATOM      6  C   UNL     1       4.141   4.137  17.255  0.00  0.00    +0.000 A 
ATOM      7  C   UNL     1       3.885   2.828  17.607  0.00  0.00    +0.000 A 
ATOM      8  C   UNL     1       3.027   2.607  18.687  0.00  0.00    +0.000 A 
ATOM      9  C   UNL     1       2.448   3.697  19.368  0.00  0.00    +0.000 A 
ATOM     10 BR   UNL     1       1.286   3.362  20.823  0.00  0.00    +0.000 Br
ATOM     11  C   UNL     1       2.716   5.018  18.994  0.00  0.00    +0.000 A 
ATOM     12  C   UNL     1       3.579   5.200  17.935  0.00  0.00    +0.000 A 
ENDBRANCH   1   2
BRANCH   1  13
ATOM     13  C   UNL     1       2.252   7.860  17.955  0.00  0.00    +0.000 C 
BRANCH  13  14
ATOM     14  C   UNL     1       1.720   9.277  17.685  0.00  0.00    +0.000 C 
BRANCH  14  16
ATOM     15  C   UNL     1      -0.541  10.156  17.854  0.00  0.00    +0.000 C 
ATOM     16  N   UNL     1       0.619   9.650  18.602  0.00  0.00    +0.000 NA
BRANCH  16  17
ATOM     17  C   UNL     1       1.081  10.657  19.584  0.00  0.00    +0.000 C 
BRANCH  17  18
ATOM     18  C   UNL     1       0.324  10.621  20.903  0.00  0.00    +0.000 A 
ATOM     19  C   UNL     1       0.374   9.489  21.731  0.00  0.00    +0.000 A 
ATOM     20  C   UNL     1      -0.336   9.453  22.932  0.00  0.00    +0.000 A 
ATOM     21  C   UNL     1      -1.104  10.547  23.325  0.00  0.00    +0.000 A 
ATOM     22  C   UNL     1      -1.164  11.679  22.514  0.00  0.00    +0.000 A 
ATOM     23  C   UNL     1      -0.451  11.717  21.313  0.00  0.00    +0.000 A 
ENDBRANCH  17  18
ENDBRANCH  16  17
ENDBRANCH  14  16
ENDBRANCH  13  14
ENDBRANCH   1  13
TORSDOF 6
ENDMDL
MODEL 9
REMARK VINA RESULT:      -7.1      4.752      7.585
REMARK  Name = 
REMARK  7 active torsions:
REMARK  status: ('A' for Active; 'I' for Inactive)
REMARK    1  A    between atoms: C_1  and  N_2
REMARK    2  A    between atoms: N_2  and  C_3
REMARK    3  A    between atoms: N_2  and  C_17
REMARK    4  A    between atoms: C_3  and  C_4
REMARK    5  A    between atoms: C_4  and  C_5
REMARK    6  A    between atoms: C_5  and  N_6
REMARK    7  A    between atoms: C_17  and  C_18
REMARK                            x       y       z     vdW  Elec       q    Type
REMARK                         _______ _______ _______ _____ _____    ______ ____
ROOT
ATOM      1  C   UNL     1       1.656   8.632  20.701  0.00  0.00    +0.000 C 
ENDROOT
BRANCH   1   2
ATOM      2  N   UNL     1       2.072   7.776  19.610  0.00  0.00    +0.000 N 
ATOM      3  C   UNL     1       2.389   8.209  18.334  0.00  0.00    +0.000 A 
ATOM      4  O   UNL     1       2.405   9.371  17.952  0.00  0.00    +0.000 OA
ATOM      5  O   UNL     1       2.697   7.127  17.498  0.00  0.00    +0.000 OA
ATOM      6  C   UNL     1       2.517   6.040  18.335  0.00  0.00    +0.000 A 
ATOM      7  C   UNL     1       2.703   4.721  17.975  0.00  0.00    +0.000 A 
ATOM      8  C   UNL     1       2.475   3.749  18.951  0.00  0.00    +0.000 A 
ATOM      9  C   UNL     1       2.060   4.124  20.244  0.00  0.00    +0.000 A 
ATOM     10 BR   UNL     1       1.755   2.780  21.540  0.00  0.00    +0.000 Br
ATOM     11  C   UNL     1       1.873   5.466  20.591  0.00  0.00    +0.000 A 
ATOM     12  C   UNL     1       2.123   6.401  19.610  0.00  0.00    +0.000 A 
ENDBRANCH   1   2
BRANCH   1  13
ATOM     13  C   UNL     1       0.312   9.296  20.405  0.00  0.00    +0.000 C 
BRANCH  13  14
ATOM     14  C   UNL     1       0.402  10.828  20.299  0.00  0.00    +0.000 C 
BRANCH  14  16
ATOM     15  C   UNL     1       0.200  12.710  18.772  0.00  0.00    +0.000 C 
ATOM     16  N   UNL     1      -0.261  11.349  19.081  0.00  0.00    +0.000 NA
BRANCH  16  17
ATOM     17  C   UNL     1      -1.732  11.323  19.241  0.00  0.00    +0.000 C 
BRANCH  17  18
ATOM     18  C   UNL     1      -2.485  11.033  17.951  0.00  0.00    +0.000 A 
ATOM     19  C   UNL     1      -3.744  11.604  17.709  0.00  0.00    +0.000 A 
ATOM     20  C   UNL     1      -4.439  11.321  16.532  0.00  0.00    +0.000 A 
ATOM     21  C   UNL     1      -3.887  10.467  15.580  0.00  0.00    +0.000 A 
ATOM     22  C   UNL     1      -2.637   9.892  15.806  0.00  0.00    +0.000 A 
ATOM     23  C   UNL     1      -1.939  10.177  16.982  0.00  0.00    +0.000 A 
ENDBRANCH  17  18
ENDBRANCH  16  17
ENDBRANCH  14  16
ENDBRANCH  13  14
ENDBRANCH   1  13
TORSDOF 6
ENDMDL
