MODEL 1
REMARK VINA RESULT:      -8.0      0.000      0.000
REMARK  Name = 
REMARK  10 active torsions:
REMARK  status: ('A' for Active; 'I' for Inactive)
REMARK    1  A    between atoms: C_1  and  C_2
REMARK    2  A    between atoms: C_2  and  C_3
REMARK    3  A    between atoms: C_6  and  O_7
REMARK    4  A    between atoms: O_7  and  C_8
REMARK    5  A    between atoms: C_8  and  C_9
REMARK    6  A    between atoms: C_21  and  N_22
REMARK    7  A    between atoms: N_22  and  C_23
REMARK    8  A    between atoms: C_24  and  C_26
REMARK    9  A    between atoms: C_29  and  O_30
REMARK   10  A    between atoms: O_30  and  C_31
REMARK                            x       y       z     vdW  Elec       q    Type
REMARK                         _______ _______ _______ _____ _____    ______ ____
ROOT
ATOM      1  C   UNL     1       0.743   9.286  21.614  0.00  0.00    +0.000 A 
ATOM      2  N   UNL     1       1.404   8.125  21.348  0.00  0.00    +0.000 NA
ATOM      3  C   UNL     1       1.699   8.124  20.081  0.00  0.00    +0.000 A 
ATOM      4  C   UNL     1       2.381   7.125  19.309  0.00  0.00    +0.000 A 
ATOM      5  C   UNL     1       2.723   7.392  18.039  0.00  0.00    +0.000 A 
ATOM      6  C   UNL     1       2.398   8.669  17.438  0.00  0.00    +0.000 A 
ATOM      7  C   UNL     1       1.721   9.591  18.147  0.00  0.00    +0.000 A 
ATOM      8  N   UNL     1       1.303   9.322  19.463  0.00  0.00    +0.000 N 
ATOM      9  C   UNL     1       0.557  10.050  20.443  0.00  0.00    +0.000 A 
ENDROOT
BRANCH   9  10
ATOM     10  N   UNL     1      -0.179  11.279  20.291  0.00  0.00    +0.000 N 
ATOM     11  C   UNL     1      -1.318  11.297  19.372  0.00  0.00    +0.000 C 
ATOM     12  C   UNL     1       0.309  12.521  20.777  0.00  0.00    +0.000 C 
ATOM     13  O   UNL     1       1.463  12.724  21.152  0.00  0.00    +0.000 OA
BRANCH  12  14
ATOM     14  C   UNL     1      -0.578  13.749  20.742  0.00  0.00    +0.000 A 
ATOM     15  C   UNL     1      -0.448  14.778  19.799  0.00  0.00    +0.000 A 
ATOM     16  C   UNL     1      -1.126  15.991  19.977  0.00  0.00    +0.000 A 
ATOM     17  C   UNL     1      -2.050  16.139  21.009  0.00  0.00    +0.000 A 
ATOM     18  C   UNL     1      -2.285  15.076  21.880  0.00  0.00    +0.000 A 
ATOM     19  C   UNL     1      -1.545  13.891  21.751  0.00  0.00    +0.000 A 
BRANCH  17  20
ATOM     20  O   UNL     1      -2.625  17.374  21.114  0.00  0.00    +0.000 OA
ATOM     21  C   UNL     1      -3.573  17.497  22.171  0.00  0.00    +0.000 C 
ENDBRANCH  17  20
ENDBRANCH  12  14
ENDBRANCH   9  10
BRANCH   1  23
ATOM     22  C   UNL     1      -0.918  10.219  23.242  0.00  0.00    +0.000 C 
ATOM     23  C   UNL     1       0.338   9.376  23.052  0.00  0.00    +0.000 C 
ENDBRANCH   1  23
BRANCH   4  24
ATOM     24  O   UNL     1       2.708   5.896  19.875  0.00  0.00    +0.000 OA
BRANCH  24  25
ATOM     25  C   UNL     1       2.894   4.808  18.961  0.00  0.00    +0.000 C 
BRANCH  25  26
ATOM     26  C   UNL     1       4.312   4.738  18.447  0.00  0.00    +0.000 A 
ATOM     27  C   UNL     1       4.541   4.296  17.134  0.00  0.00    +0.000 A 
ATOM     28  C   UNL     1       5.832   4.289  16.608  0.00  0.00    +0.000 A 
ATOM     29 CL   UNL     1       6.093   3.752  14.995  0.00  0.00    +0.000 Cl
ATOM     30  C   UNL     1       6.909   4.729  17.374  0.00  0.00    +0.000 A 
ATOM     31  C   UNL     1       6.682   5.182  18.671  0.00  0.00    +0.000 A 
ATOM     32 CL   UNL     1       8.000   5.750  19.620  0.00  0.00    +0.000 Cl
ATOM     33  C   UNL     1       5.394   5.195  19.208  0.00  0.00    +0.000 A 
ENDBRANCH  25  26
ENDBRANCH  24  25
ENDBRANCH   4  24
TORSDOF 7
ENDMDL
MODEL 2
REMARK VINA RESULT:      -7.9      3.567      6.506
REMARK  Name = 
REMARK  10 active torsions:
REMARK  status: ('A' for Active; 'I' for Inactive)
REMARK    1  A    between atoms: C_1  and  C_2
REMARK    2  A    between atoms: C_2  and  C_3
REMARK    3  A    between atoms: C_6  and  O_7
REMARK    4  A    between atoms: O_7  and  C_8
REMARK    5  A    between atoms: C_8  and  C_9
REMARK    6  A    between atoms: C_21  and  N_22
REMARK    7  A    between atoms: N_22  and  C_23
REMARK    8  A    between atoms: C_24  and  C_26
REMARK    9  A    between atoms: C_29  and  O_30
REMARK   10  A    between atoms: O_30  and  C_31
REMARK                            x       y       z     vdW  Elec       q    Type
REMARK                         _______ _______ _______ _____ _____    ______ ____
ROOT
ATOM      1  C   UNL     1       2.916   4.326  17.812  0.00  0.00    +0.000 A 
ATOM      2  N   UNL     1       3.841   3.902  16.905  0.00  0.00    +0.000 NA
ATOM      3  C   UNL     1       4.799   4.781  16.883  0.00  0.00    +0.000 A 
ATOM      4  C   UNL     1       5.995   4.799  16.090  0.00  0.00    +0.000 A 
ATOM      5  C   UNL     1       6.935   5.725  16.336  0.00  0.00    +0.000 A 
ATOM      6  C   UNL     1       6.749   6.710  17.380  0.00  0.00    +0.000 A 
ATOM      7  C   UNL     1       5.610   6.721  18.096  0.00  0.00    +0.000 A 
ATOM      8  N   UNL     1       4.583   5.797  17.829  0.00  0.00    +0.000 N 
ATOM      9  C   UNL     1       3.275   5.573  18.365  0.00  0.00    +0.000 A 
ENDROOT
BRANCH   9  10
ATOM     10  N   UNL     1       2.517   6.394  19.273  0.00  0.00    +0.000 N 
ATOM     11  C   UNL     1       1.876   5.750  20.421  0.00  0.00    +0.000 C 
ATOM     12  C   UNL     1       2.147   7.729  18.961  0.00  0.00    +0.000 C 
ATOM     13  O   UNL     1       2.219   8.235  17.842  0.00  0.00    +0.000 OA
BRANCH  12  14
ATOM     14  C   UNL     1       1.500   8.601  20.018  0.00  0.00    +0.000 A 
ATOM     15  C   UNL     1       1.613   8.370  21.396  0.00  0.00    +0.000 A 
ATOM     16  C   UNL     1       0.790   9.056  22.298  0.00  0.00    +0.000 A 
ATOM     17  C   UNL     1      -0.046  10.079  21.855  0.00  0.00    +0.000 A 
ATOM     18  C   UNL     1      -0.074  10.407  20.501  0.00  0.00    +0.000 A 
ATOM     19  C   UNL     1       0.689   9.665  19.588  0.00  0.00    +0.000 A 
BRANCH  17  20
ATOM     20  O   UNL     1      -0.834  10.655  22.813  0.00  0.00    +0.000 OA
ATOM     21  C   UNL     1      -1.297  11.963  22.489  0.00  0.00    +0.000 C 
ENDBRANCH  17  20
ENDBRANCH  12  14
ENDBRANCH   9  10
BRANCH   1  23
ATOM     22  C   UNL     1       2.029   2.218  18.835  0.00  0.00    +0.000 C 
ATOM     23  C   UNL     1       1.753   3.388  17.897  0.00  0.00    +0.000 C 
ENDBRANCH   1  23
BRANCH   4  24
ATOM     24  O   UNL     1       6.193   3.853  15.088  0.00  0.00    +0.000 OA
BRANCH  24  25
ATOM     25  C   UNL     1       6.566   4.363  13.801  0.00  0.00    +0.000 C 
BRANCH  25  26
ATOM     26  C   UNL     1       5.909   3.595  12.679  0.00  0.00    +0.000 A 
ATOM     27  C   UNL     1       6.326   2.281  12.416  0.00  0.00    +0.000 A 
ATOM     28  C   UNL     1       5.690   1.523  11.435  0.00  0.00    +0.000 A 
ATOM     29 CL   UNL     1       6.209  -0.090  11.133  0.00  0.00    +0.000 Cl
ATOM     30  C   UNL     1       4.628   2.055  10.709  0.00  0.00    +0.000 A 
ATOM     31  C   UNL     1       4.203   3.354  10.978  0.00  0.00    +0.000 A 
ATOM     32 CL   UNL     1       2.877   4.017  10.105  0.00  0.00    +0.000 Cl
ATOM     33  C   UNL     1       4.830   4.122  11.959  0.00  0.00    +0.000 A 
ENDBRANCH  25  26
ENDBRANCH  24  25
ENDBRANCH   4  24
TORSDOF 7
ENDMDL
MODEL 3
REMARK VINA RESULT:      -7.9      0.437      1.629
REMARK  Name = 
REMARK  10 active torsions:
REMARK  status: ('A' for Active; 'I' for Inactive)
REMARK    1  A    between atoms: C_1  and  C_2
REMARK    2  A    between atoms: C_2  and  C_3
REMARK    3  A    between atoms: C_6  and  O_7
REMARK    4  A    between atoms: O_7  and  C_8
REMARK    5  A    between atoms: C_8  and  C_9
REMARK    6  A    between atoms: C_21  and  N_22
REMARK    7  A    between atoms: N_22  and  C_23
REMARK    8  A    between atoms: C_24  and  C_26
REMARK    9  A    between atoms: C_29  and  O_30
REMARK   10  A    between atoms: O_30  and  C_31
REMARK                            x       y       z     vdW  Elec       q    Type
REMARK                         _______ _______ _______ _____ _____    ______ ____
ROOT
ATOM      1  C   UNL     1       0.641   9.342  21.663  0.00  0.00    +0.000 A 
ATOM      2  N   UNL     1       1.333   8.204  21.370  0.00  0.00    +0.000 NA
ATOM      3  C   UNL     1       1.624   8.238  20.103  0.00  0.00    +0.000 A 
ATOM      4  C   UNL     1       2.331   7.275  19.308  0.00  0.00    +0.000 A 
ATOM      5  C   UNL     1       2.661   7.578  18.044  0.00  0.00    +0.000 A 
ATOM      6  C   UNL     1       2.301   8.858  17.471  0.00  0.00    +0.000 A 
ATOM      7  C   UNL     1       1.601   9.746  18.200  0.00  0.00    +0.000 A 
ATOM      8  N   UNL     1       1.194   9.438  19.512  0.00  0.00    +0.000 N 
ATOM      9  C   UNL     1       0.431  10.124  20.509  0.00  0.00    +0.000 A 
ENDROOT
BRANCH   9  10
ATOM     10  N   UNL     1      -0.337  11.336  20.384  0.00  0.00    +0.000 N 
ATOM     11  C   UNL     1      -1.492  11.337  19.485  0.00  0.00    +0.000 C 
ATOM     12  C   UNL     1       0.128  12.584  20.878  0.00  0.00    +0.000 C 
ATOM     13  O   UNL     1       1.282  12.812  21.236  0.00  0.00    +0.000 OA
BRANCH  12  14
ATOM     14  C   UNL     1      -0.791  13.789  20.873  0.00  0.00    +0.000 A 
ATOM     15  C   UNL     1      -0.711  14.827  19.933  0.00  0.00    +0.000 A 
ATOM     16  C   UNL     1      -1.415  16.021  20.136  0.00  0.00    +0.000 A 
ATOM     17  C   UNL     1      -2.315  16.140  21.192  0.00  0.00    +0.000 A 
ATOM     18  C   UNL     1      -2.500  15.067  22.062  0.00  0.00    +0.000 A 
ATOM     19  C   UNL     1      -1.735  13.902  21.907  0.00  0.00    +0.000 A 
BRANCH  17  20
ATOM     20  O   UNL     1      -2.917  17.360  21.320  0.00  0.00    +0.000 OA
ATOM     21  C   UNL     1      -2.320  18.398  20.547  0.00  0.00    +0.000 C 
ENDBRANCH  17  20
ENDBRANCH  12  14
ENDBRANCH   9  10
BRANCH   1  23
ATOM     22  C   UNL     1      -1.001  10.251  23.323  0.00  0.00    +0.000 C 
ATOM     23  C   UNL     1       0.238   9.390  23.103  0.00  0.00    +0.000 C 
ENDBRANCH   1  23
BRANCH   4  24
ATOM     24  O   UNL     1       2.692   6.044  19.848  0.00  0.00    +0.000 OA
BRANCH  24  25
ATOM     25  C   UNL     1       2.849   4.966  18.915  0.00  0.00    +0.000 C 
BRANCH  25  26
ATOM     26  C   UNL     1       4.241   4.923  18.330  0.00  0.00    +0.000 A 
ATOM     27  C   UNL     1       5.330   5.292  19.136  0.00  0.00    +0.000 A 
ATOM     28  C   UNL     1       6.632   5.194  18.647  0.00  0.00    +0.000 A 
ATOM     29 CL   UNL     1       7.955   5.641  19.652  0.00  0.00    +0.000 Cl
ATOM     30  C   UNL     1       6.869   4.721  17.359  0.00  0.00    +0.000 A 
ATOM     31  C   UNL     1       5.791   4.342  16.564  0.00  0.00    +0.000 A 
ATOM     32 CL   UNL     1       6.071   3.734  14.978  0.00  0.00    +0.000 Cl
ATOM     33  C   UNL     1       4.484   4.434  17.042  0.00  0.00    +0.000 A 
ENDBRANCH  25  26
ENDBRANCH  24  25
ENDBRANCH   4  24
TORSDOF 7
ENDMDL
MODEL 4
REMARK VINA RESULT:      -7.6      3.755      6.580
REMARK  Name = 
REMARK  10 active torsions:
REMARK  status: ('A' for Active; 'I' for Inactive)
REMARK    1  A    between atoms: C_1  and  C_2
REMARK    2  A    between atoms: C_2  and  C_3
REMARK    3  A    between atoms: C_6  and  O_7
REMARK    4  A    between atoms: O_7  and  C_8
REMARK    5  A    between atoms: C_8  and  C_9
REMARK    6  A    between atoms: C_21  and  N_22
REMARK    7  A    between atoms: N_22  and  C_23
REMARK    8  A    between atoms: C_24  and  C_26
REMARK    9  A    between atoms: C_29  and  O_30
REMARK   10  A    between atoms: O_30  and  C_31
REMARK                            x       y       z     vdW  Elec       q    Type
REMARK                         _______ _______ _______ _____ _____    ______ ____
ROOT
ATOM      1  C   UNL     1       3.173   4.419  17.434  0.00  0.00    +0.000 A 
ATOM      2  N   UNL     1       4.167   4.009  16.596  0.00  0.00    +0.000 NA
ATOM      3  C   UNL     1       5.153   4.849  16.720  0.00  0.00    +0.000 A 
ATOM      4  C   UNL     1       6.421   4.864  16.048  0.00  0.00    +0.000 A 
ATOM      5  C   UNL     1       7.363   5.735  16.438  0.00  0.00    +0.000 A 
ATOM      6  C   UNL     1       7.110   6.666  17.518  0.00  0.00    +0.000 A 
ATOM      7  C   UNL     1       5.907   6.682  18.121  0.00  0.00    +0.000 A 
ATOM      8  N   UNL     1       4.880   5.817  17.700  0.00  0.00    +0.000 N 
ATOM      9  C   UNL     1       3.519   5.616  18.094  0.00  0.00    +0.000 A 
ENDROOT
BRANCH   9  10
ATOM     10  N   UNL     1       2.705   6.414  18.974  0.00  0.00    +0.000 N 
ATOM     11  C   UNL     1       2.156   5.782  20.175  0.00  0.00    +0.000 C 
ATOM     12  C   UNL     1       2.197   7.685  18.595  0.00  0.00    +0.000 C 
ATOM     13  O   UNL     1       2.193   8.125  17.446  0.00  0.00    +0.000 OA
BRANCH  12  14
ATOM     14  C   UNL     1       1.492   8.553  19.616  0.00  0.00    +0.000 A 
ATOM     15  C   UNL     1       1.021   9.847  19.348  0.00  0.00    +0.000 A 
ATOM     16  C   UNL     1       0.611  10.681  20.395  0.00  0.00    +0.000 A 
ATOM     17  C   UNL     1       0.526  10.193  21.697  0.00  0.00    +0.000 A 
ATOM     18  C   UNL     1       0.870   8.868  21.958  0.00  0.00    +0.000 A 
ATOM     19  C   UNL     1       1.358   8.056  20.923  0.00  0.00    +0.000 A 
BRANCH  17  20
ATOM     20  O   UNL     1       0.153  11.102  22.646  0.00  0.00    +0.000 OA
ATOM     21  C   UNL     1      -1.161  10.911  23.164  0.00  0.00    +0.000 C 
ENDBRANCH  17  20
ENDBRANCH  12  14
ENDBRANCH   9  10
BRANCH   1  23
ATOM     22  C   UNL     1       1.872   2.591  18.551  0.00  0.00    +0.000 C 
ATOM     23  C   UNL     1       1.975   3.525  17.351  0.00  0.00    +0.000 C 
ENDBRANCH   1  23
BRANCH   4  24
ATOM     24  O   UNL     1       6.683   3.969  15.014  0.00  0.00    +0.000 OA
BRANCH  24  25
ATOM     25  C   UNL     1       6.675   4.514  13.688  0.00  0.00    +0.000 C 
BRANCH  25  26
ATOM     26  C   UNL     1       5.952   3.616  12.713  0.00  0.00    +0.000 A 
ATOM     27  C   UNL     1       4.879   4.136  11.973  0.00  0.00    +0.000 A 
ATOM     28  C   UNL     1       4.239   3.352  11.014  0.00  0.00    +0.000 A 
ATOM     29 CL   UNL     1       2.931   4.009  10.109  0.00  0.00    +0.000 Cl
ATOM     30  C   UNL     1       4.661   2.047  10.772  0.00  0.00    +0.000 A 
ATOM     31  C   UNL     1       5.735   1.534  11.495  0.00  0.00    +0.000 A 
ATOM     32 CL   UNL     1       6.283  -0.068  11.191  0.00  0.00    +0.000 Cl
ATOM     33  C   UNL     1       6.384   2.310  12.456  0.00  0.00    +0.000 A 
ENDBRANCH  25  26
ENDBRANCH  24  25
ENDBRANCH   4  24
TORSDOF 7
ENDMDL
MODEL 5
REMARK VINA RESULT:      -7.6      4.160     10.487
REMARK  Name = 
REMARK  10 active torsions:
REMARK  status: ('A' for Active; 'I' for Inactive)
REMARK    1  A    between atoms: C_1  and  C_2
REMARK    2  A    between atoms: C_2  and  C_3
REMARK    3  A    between atoms: C_6  and  O_7
REMARK    4  A    between atoms: O_7  and  C_8
REMARK    5  A    between atoms: C_8  and  C_9
REMARK    6  A    between atoms: C_21  and  N_22
REMARK    7  A    between atoms: N_22  and  C_23
REMARK    8  A    between atoms: C_24  and  C_26
REMARK    9  A    between atoms: C_29  and  O_30
REMARK   10  A    between atoms: O_30  and  C_31
REMARK                            x       y       z     vdW  Elec       q    Type
REMARK                         _______ _______ _______ _____ _____    ______ ____
ROOT
ATOM      1  C   UNL     1       2.005   6.195  20.400  0.00  0.00    +0.000 A 
ATOM      2  N   UNL     1       1.540   7.236  21.148  0.00  0.00    +0.000 NA
ATOM      3  C   UNL     1       1.529   8.290  20.386  0.00  0.00    +0.000 A 
ATOM      4  C   UNL     1       1.136   9.634  20.702  0.00  0.00    +0.000 A 
ATOM      5  C   UNL     1       1.052  10.544  19.720  0.00  0.00    +0.000 A 
ATOM      6  C   UNL     1       1.366  10.189  18.352  0.00  0.00    +0.000 A 
ATOM      7  C   UNL     1       1.775   8.941  18.059  0.00  0.00    +0.000 A 
ATOM      8  N   UNL     1       1.923   7.977  19.074  0.00  0.00    +0.000 N 
ATOM      9  C   UNL     1       2.360   6.615  19.102  0.00  0.00    +0.000 A 
ENDROOT
BRANCH   9  10
ATOM     10  N   UNL     1       2.980   5.842  18.056  0.00  0.00    +0.000 N 
ATOM     11  C   UNL     1       2.247   4.700  17.509  0.00  0.00    +0.000 C 
ATOM     12  C   UNL     1       4.356   5.974  17.728  0.00  0.00    +0.000 C 
ATOM     13  O   UNL     1       5.190   6.557  18.420  0.00  0.00    +0.000 OA
BRANCH  12  14
ATOM     14  C   UNL     1       4.915   5.265  16.512  0.00  0.00    +0.000 A 
ATOM     15  C   UNL     1       5.307   3.918  16.506  0.00  0.00    +0.000 A 
ATOM     16  C   UNL     1       6.044   3.401  15.433  0.00  0.00    +0.000 A 
ATOM     17  C   UNL     1       6.272   4.172  14.295  0.00  0.00    +0.000 A 
ATOM     18  C   UNL     1       5.777   5.473  14.235  0.00  0.00    +0.000 A 
ATOM     19  C   UNL     1       5.109   6.018  15.342  0.00  0.00    +0.000 A 
BRANCH  17  20
ATOM     20  O   UNL     1       7.036   3.583  13.326  0.00  0.00    +0.000 OA
ATOM     21  C   UNL     1       6.395   3.465  12.059  0.00  0.00    +0.000 C 
ENDBRANCH  17  20
ENDBRANCH  12  14
ENDBRANCH   9  10
BRANCH   1  23
ATOM     22  C   UNL     1       1.120   3.867  20.672  0.00  0.00    +0.000 C 
ATOM     23  C   UNL     1       2.078   4.930  21.197  0.00  0.00    +0.000 C 
ENDBRANCH   1  23
BRANCH   4  24
ATOM     24  O   UNL     1       0.823   9.988  22.011  0.00  0.00    +0.000 OA
BRANCH  24  25
ATOM     25  C   UNL     1      -0.570   9.993  22.348  0.00  0.00    +0.000 C 
BRANCH  25  26
ATOM     26  C   UNL     1      -1.062  11.377  22.698  0.00  0.00    +0.000 A 
ATOM     27  C   UNL     1      -0.310  12.491  22.289  0.00  0.00    +0.000 A 
ATOM     28  C   UNL     1      -0.775  13.782  22.535  0.00  0.00    +0.000 A 
ATOM     29 CL   UNL     1       0.155  15.135  22.019  0.00  0.00    +0.000 Cl
ATOM     30  C   UNL     1      -1.992  13.985  23.179  0.00  0.00    +0.000 A 
ATOM     31  C   UNL     1      -2.746  12.881  23.572  0.00  0.00    +0.000 A 
ATOM     32 CL   UNL     1      -4.263  13.116  24.349  0.00  0.00    +0.000 Cl
ATOM     33  C   UNL     1      -2.292  11.584  23.331  0.00  0.00    +0.000 A 
ENDBRANCH  25  26
ENDBRANCH  24  25
ENDBRANCH   4  24
TORSDOF 7
ENDMDL
MODEL 6
REMARK VINA RESULT:      -7.5      4.505     10.354
REMARK  Name = 
REMARK  10 active torsions:
REMARK  status: ('A' for Active; 'I' for Inactive)
REMARK    1  A    between atoms: C_1  and  C_2
REMARK    2  A    between atoms: C_2  and  C_3
REMARK    3  A    between atoms: C_6  and  O_7
REMARK    4  A    between atoms: O_7  and  C_8
REMARK    5  A    between atoms: C_8  and  C_9
REMARK    6  A    between atoms: C_21  and  N_22
REMARK    7  A    between atoms: N_22  and  C_23
REMARK    8  A    between atoms: C_24  and  C_26
REMARK    9  A    between atoms: C_29  and  O_30
REMARK   10  A    between atoms: O_30  and  C_31
REMARK                            x       y       z     vdW  Elec       q    Type
REMARK                         _______ _______ _______ _____ _____    ______ ____
ROOT
ATOM      1  C   UNL     1       0.224  10.062  20.923  0.00  0.00    +0.000 A 
ATOM      2  N   UNL     1      -0.717  11.039  20.792  0.00  0.00    +0.000 NA
ATOM      3  C   UNL     1      -1.152  11.002  19.567  0.00  0.00    +0.000 A 
ATOM      4  C   UNL     1      -2.135  11.829  18.928  0.00  0.00    +0.000 A 
ATOM      5  C   UNL     1      -2.554  11.520  17.691  0.00  0.00    +0.000 A 
ATOM      6  C   UNL     1      -2.014  10.372  16.992  0.00  0.00    +0.000 A 
ATOM      7  C   UNL     1      -1.061   9.620  17.573  0.00  0.00    +0.000 A 
ATOM      8  N   UNL     1      -0.564   9.948  18.848  0.00  0.00    +0.000 N 
ATOM      9  C   UNL     1       0.443   9.394  19.700  0.00  0.00    +0.000 A 
ENDROOT
BRANCH   9  10
ATOM     10  N   UNL     1       1.421   8.379  19.404  0.00  0.00    +0.000 N 
ATOM     11  C   UNL     1       1.855   7.496  20.488  0.00  0.00    +0.000 C 
ATOM     12  C   UNL     1       2.167   8.374  18.196  0.00  0.00    +0.000 C 
ATOM     13  O   UNL     1       2.237   9.317  17.409  0.00  0.00    +0.000 OA
BRANCH  12  14
ATOM     14  C   UNL     1       3.057   7.193  17.862  0.00  0.00    +0.000 A 
ATOM     15  C   UNL     1       4.338   7.315  17.306  0.00  0.00    +0.000 A 
ATOM     16  C   UNL     1       4.996   6.190  16.791  0.00  0.00    +0.000 A 
ATOM     17  C   UNL     1       4.453   4.918  16.954  0.00  0.00    +0.000 A 
ATOM     18  C   UNL     1       3.237   4.769  17.619  0.00  0.00    +0.000 A 
ATOM     19  C   UNL     1       2.540   5.902  18.062  0.00  0.00    +0.000 A 
BRANCH  17  20
ATOM     20  O   UNL     1       5.157   3.897  16.379  0.00  0.00    +0.000 OA
ATOM     21  C   UNL     1       5.738   4.218  15.118  0.00  0.00    +0.000 C 
ENDBRANCH  17  20
ENDBRANCH  12  14
ENDBRANCH   9  10
BRANCH   1  23
ATOM     22  C   UNL     1      -0.202   9.563  23.341  0.00  0.00    +0.000 C 
ATOM     23  C   UNL     1       0.807  10.035  22.301  0.00  0.00    +0.000 C 
ENDBRANCH   1  23
BRANCH   4  24
ATOM     24  O   UNL     1      -2.670  12.930  19.590  0.00  0.00    +0.000 OA
BRANCH  24  25
ATOM     25  C   UNL     1      -4.032  12.808  20.022  0.00  0.00    +0.000 C 
BRANCH  25  26
ATOM     26  C   UNL     1      -4.181  13.080  21.501  0.00  0.00    +0.000 A 
ATOM     27  C   UNL     1      -3.084  13.588  22.214  0.00  0.00    +0.000 A 
ATOM     28  C   UNL     1      -3.212  13.917  23.563  0.00  0.00    +0.000 A 
ATOM     29 CL   UNL     1      -1.859  14.547  24.420  0.00  0.00    +0.000 Cl
ATOM     30  C   UNL     1      -4.431  13.754  24.217  0.00  0.00    +0.000 A 
ATOM     31  C   UNL     1      -5.524  13.263  23.507  0.00  0.00    +0.000 A 
ATOM     32 CL   UNL     1      -7.042  13.079  24.296  0.00  0.00    +0.000 Cl
ATOM     33  C   UNL     1      -5.408  12.933  22.157  0.00  0.00    +0.000 A 
ENDBRANCH  25  26
ENDBRANCH  24  25
ENDBRANCH   4  24
TORSDOF 7
ENDMDL
MODEL 7
REMARK VINA RESULT:      -7.4      1.010      1.327
REMARK  Name = 
REMARK  10 active torsions:
REMARK  status: ('A' for Active; 'I' for Inactive)
REMARK    1  A    between atoms: C_1  and  C_2
REMARK    2  A    between atoms: C_2  and  C_3
REMARK    3  A    between atoms: C_6  and  O_7
REMARK    4  A    between atoms: O_7  and  C_8
REMARK    5  A    between atoms: C_8  and  C_9
REMARK    6  A    between atoms: C_21  and  N_22
REMARK    7  A    between atoms: N_22  and  C_23
REMARK    8  A    between atoms: C_24  and  C_26
REMARK    9  A    between atoms: C_29  and  O_30
REMARK   10  A    between atoms: O_30  and  C_31
REMARK                            x       y       z     vdW  Elec       q    Type
REMARK                         _______ _______ _______ _____ _____    ______ ____
ROOT
ATOM      1  C   UNL     1       0.077   9.073  21.401  0.00  0.00    +0.000 A 
ATOM      2  N   UNL     1       0.914   8.058  21.042  0.00  0.00    +0.000 NA
ATOM      3  C   UNL     1       1.387   8.340  19.863  0.00  0.00    +0.000 A 
ATOM      4  C   UNL     1       2.297   7.588  19.047  0.00  0.00    +0.000 A 
ATOM      5  C   UNL     1       2.782   8.136  17.923  0.00  0.00    +0.000 A 
ATOM      6  C   UNL     1       2.387   9.469  17.519  0.00  0.00    +0.000 A 
ATOM      7  C   UNL     1       1.501  10.160  18.261  0.00  0.00    +0.000 A 
ATOM      8  N   UNL     1       0.935   9.593  19.417  0.00  0.00    +0.000 N 
ATOM      9  C   UNL     1      -0.033  10.033  20.374  0.00  0.00    +0.000 A 
ENDROOT
BRANCH   9  10
ATOM     10  N   UNL     1      -0.890  11.191  20.328  0.00  0.00    +0.000 N 
ATOM     11  C   UNL     1      -1.723  11.390  19.141  0.00  0.00    +0.000 C 
ATOM     12  C   UNL     1      -0.763  12.267  21.246  0.00  0.00    +0.000 C 
ATOM     13  O   UNL     1       0.196  12.440  21.997  0.00  0.00    +0.000 OA
BRANCH  12  14
ATOM     14  C   UNL     1      -1.795  13.376  21.259  0.00  0.00    +0.000 A 
ATOM     15  C   UNL     1      -3.132  13.192  21.639  0.00  0.00    +0.000 A 
ATOM     16  C   UNL     1      -4.083  14.189  21.388  0.00  0.00    +0.000 A 
ATOM     17  C   UNL     1      -3.690  15.431  20.892  0.00  0.00    +0.000 A 
ATOM     18  C   UNL     1      -2.343  15.672  20.629  0.00  0.00    +0.000 A 
ATOM     19  C   UNL     1      -1.403  14.646  20.804  0.00  0.00    +0.000 A 
BRANCH  17  20
ATOM     20  O   UNL     1      -4.703  16.316  20.647  0.00  0.00    +0.000 OA
ATOM     21  C   UNL     1      -5.233  16.945  21.810  0.00  0.00    +0.000 C 
ENDBRANCH  17  20
ENDBRANCH  12  14
ENDBRANCH   9  10
BRANCH   1  23
ATOM     22  C   UNL     1       0.277   9.453  23.869  0.00  0.00    +0.000 C 
ATOM     23  C   UNL     1      -0.541   8.833  22.742  0.00  0.00    +0.000 C 
ENDBRANCH   1  23
BRANCH   4  24
ATOM     24  O   UNL     1       2.693   6.309  19.427  0.00  0.00    +0.000 OA
BRANCH  24  25
ATOM     25  C   UNL     1       2.805   5.343  18.373  0.00  0.00    +0.000 C 
BRANCH  25  26
ATOM     26  C   UNL     1       4.245   5.075  18.004  0.00  0.00    +0.000 A 
ATOM     27  C   UNL     1       4.537   4.551  16.735  0.00  0.00    +0.000 A 
ATOM     28  C   UNL     1       5.860   4.361  16.340  0.00  0.00    +0.000 A 
ATOM     29 CL   UNL     1       6.201   3.727  14.777  0.00  0.00    +0.000 Cl
ATOM     30  C   UNL     1       6.908   4.696  17.194  0.00  0.00    +0.000 A 
ATOM     31  C   UNL     1       6.620   5.229  18.448  0.00  0.00    +0.000 A 
ATOM     32 CL   UNL     1       7.905   5.668  19.505  0.00  0.00    +0.000 Cl
ATOM     33  C   UNL     1       5.300   5.425  18.854  0.00  0.00    +0.000 A 
ENDBRANCH  25  26
ENDBRANCH  24  25
ENDBRANCH   4  24
TORSDOF 7
ENDMDL
MODEL 8
REMARK VINA RESULT:      -7.4      4.152     10.487
REMARK  Name = 
REMARK  10 active torsions:
REMARK  status: ('A' for Active; 'I' for Inactive)
REMARK    1  A    between atoms: C_1  and  C_2
REMARK    2  A    between atoms: C_2  and  C_3
REMARK    3  A    between atoms: C_6  and  O_7
REMARK    4  A    between atoms: O_7  and  C_8
REMARK    5  A    between atoms: C_8  and  C_9
REMARK    6  A    between atoms: C_21  and  N_22
REMARK    7  A    between atoms: N_22  and  C_23
REMARK    8  A    between atoms: C_24  and  C_26
REMARK    9  A    between atoms: C_29  and  O_30
REMARK   10  A    between atoms: O_30  and  C_31
REMARK                            x       y       z     vdW  Elec       q    Type
REMARK                         _______ _______ _______ _____ _____    ______ ____
ROOT
ATOM      1  C   UNL     1       2.312   5.840  20.061  0.00  0.00    +0.000 A 
ATOM      2  N   UNL     1       1.715   6.852  20.751  0.00  0.00    +0.000 NA
ATOM      3  C   UNL     1       1.724   7.905  19.987  0.00  0.00    +0.000 A 
ATOM      4  C   UNL     1       1.227   9.224  20.254  0.00  0.00    +0.000 A 
ATOM      5  C   UNL     1       1.195  10.129  19.264  0.00  0.00    +0.000 A 
ATOM      6  C   UNL     1       1.669   9.794  17.938  0.00  0.00    +0.000 A 
ATOM      7  C   UNL     1       2.176   8.571  17.696  0.00  0.00    +0.000 A 
ATOM      8  N   UNL     1       2.270   7.616  18.725  0.00  0.00    +0.000 N 
ATOM      9  C   UNL     1       2.778   6.280  18.805  0.00  0.00    +0.000 A 
ENDROOT
BRANCH   9  10
ATOM     10  N   UNL     1       3.546   5.544  17.833  0.00  0.00    +0.000 N 
ATOM     11  C   UNL     1       3.229   4.131  17.624  0.00  0.00    +0.000 C 
ATOM     12  C   UNL     1       4.750   6.051  17.277  0.00  0.00    +0.000 C 
ATOM     13  O   UNL     1       5.374   7.018  17.713  0.00  0.00    +0.000 OA
BRANCH  12  14
ATOM     14  C   UNL     1       5.426   5.314  16.138  0.00  0.00    +0.000 A 
ATOM     15  C   UNL     1       6.812   5.307  15.926  0.00  0.00    +0.000 A 
ATOM     16  C   UNL     1       7.342   4.824  14.723  0.00  0.00    +0.000 A 
ATOM     17  C   UNL     1       6.516   4.210  13.783  0.00  0.00    +0.000 A 
ATOM     18  C   UNL     1       5.151   4.095  14.038  0.00  0.00    +0.000 A 
ATOM     19  C   UNL     1       4.609   4.652  15.206  0.00  0.00    +0.000 A 
BRANCH  17  20
ATOM     20  O   UNL     1       7.130   3.811  12.629  0.00  0.00    +0.000 OA
ATOM     21  C   UNL     1       6.399   2.850  11.873  0.00  0.00    +0.000 C 
ENDBRANCH  17  20
ENDBRANCH  12  14
ENDBRANCH   9  10
BRANCH   1  23
ATOM     22  C   UNL     1       1.161   3.686  20.623  0.00  0.00    +0.000 C 
ATOM     23  C   UNL     1       2.372   4.580  20.867  0.00  0.00    +0.000 C 
ENDBRANCH   1  23
BRANCH   4  24
ATOM     24  O   UNL     1       0.759   9.559  21.521  0.00  0.00    +0.000 OA
BRANCH  24  25
ATOM     25  C   UNL     1      -0.634   9.888  21.614  0.00  0.00    +0.000 C 
BRANCH  25  26
ATOM     26  C   UNL     1      -0.847  11.324  22.032  0.00  0.00    +0.000 A 
ATOM     27  C   UNL     1      -1.943  11.640  22.851  0.00  0.00    +0.000 A 
ATOM     28  C   UNL     1      -2.125  12.942  23.311  0.00  0.00    +0.000 A 
ATOM     29 CL   UNL     1      -3.470  13.310  24.321  0.00  0.00    +0.000 Cl
ATOM     30  C   UNL     1      -1.220  13.944  22.974  0.00  0.00    +0.000 A 
ATOM     31  C   UNL     1      -0.124  13.630  22.174  0.00  0.00    +0.000 A 
ATOM     32 CL   UNL     1       1.017  14.853  21.768  0.00  0.00    +0.000 Cl
ATOM     33  C   UNL     1       0.070  12.329  21.708  0.00  0.00    +0.000 A 
ENDBRANCH  25  26
ENDBRANCH  24  25
ENDBRANCH   4  24
TORSDOF 7
ENDMDL
MODEL 9
REMARK VINA RESULT:      -7.4      4.788     10.626
REMARK  Name = 
REMARK  10 active torsions:
REMARK  status: ('A' for Active; 'I' for Inactive)
REMARK    1  A    between atoms: C_1  and  C_2
REMARK    2  A    between atoms: C_2  and  C_3
REMARK    3  A    between atoms: C_6  and  O_7
REMARK    4  A    between atoms: O_7  and  C_8
REMARK    5  A    between atoms: C_8  and  C_9
REMARK    6  A    between atoms: C_21  and  N_22
REMARK    7  A    between atoms: N_22  and  C_23
REMARK    8  A    between atoms: C_24  and  C_26
REMARK    9  A    between atoms: C_29  and  O_30
REMARK   10  A    between atoms: O_30  and  C_31
REMARK                            x       y       z     vdW  Elec       q    Type
REMARK                         _______ _______ _______ _____ _____    ______ ____
ROOT
ATOM      1  C   UNL     1      -1.333  10.619  18.866  0.00  0.00    +0.000 A 
ATOM      2  N   UNL     1      -1.982  11.779  19.168  0.00  0.00    +0.000 NA
ATOM      3  C   UNL     1      -1.215  12.460  19.967  0.00  0.00    +0.000 A 
ATOM      4  C   UNL     1      -1.446  13.739  20.576  0.00  0.00    +0.000 A 
ATOM      5  C   UNL     1      -0.451  14.338  21.248  0.00  0.00    +0.000 A 
ATOM      6  C   UNL     1       0.843  13.703  21.377  0.00  0.00    +0.000 A 
ATOM      7  C   UNL     1       1.050  12.485  20.844  0.00  0.00    +0.000 A 
ATOM      8  N   UNL     1       0.012  11.808  20.177  0.00  0.00    +0.000 N 
ATOM      9  C   UNL     1      -0.104  10.526  19.550  0.00  0.00    +0.000 A 
ENDROOT
BRANCH   9  10
ATOM     10  N   UNL     1       0.818   9.420  19.577  0.00  0.00    +0.000 N 
ATOM     11  C   UNL     1       1.137   8.813  20.870  0.00  0.00    +0.000 C 
ATOM     12  C   UNL     1       1.622   9.075  18.458  0.00  0.00    +0.000 C 
ATOM     13  O   UNL     1       1.793   9.787  17.470  0.00  0.00    +0.000 OA
BRANCH  12  14
ATOM     14  C   UNL     1       2.446   7.803  18.483  0.00  0.00    +0.000 A 
ATOM     15  C   UNL     1       2.283   6.786  19.433  0.00  0.00    +0.000 A 
ATOM     16  C   UNL     1       3.237   5.767  19.551  0.00  0.00    +0.000 A 
ATOM     17  C   UNL     1       4.280   5.667  18.633  0.00  0.00    +0.000 A 
ATOM     18  C   UNL     1       4.382   6.600  17.603  0.00  0.00    +0.000 A 
ATOM     19  C   UNL     1       3.474   7.667  17.535  0.00  0.00    +0.000 A 
BRANCH  17  20
ATOM     20  O   UNL     1       5.175   4.660  18.864  0.00  0.00    +0.000 OA
ATOM     21  C   UNL     1       6.094   4.431  17.800  0.00  0.00    +0.000 C 
ENDBRANCH  17  20
ENDBRANCH  12  14
ENDBRANCH   9  10
BRANCH   1  23
ATOM     22  C   UNL     1      -3.506  10.363  17.644  0.00  0.00    +0.000 C 
ATOM     23  C   UNL     1      -2.147   9.748  17.962  0.00  0.00    +0.000 C 
ENDBRANCH   1  23
BRANCH   4  24
ATOM     24  O   UNL     1      -2.682  14.366  20.453  0.00  0.00    +0.000 OA
BRANCH  24  25
ATOM     25  C   UNL     1      -3.386  14.620  21.676  0.00  0.00    +0.000 C 
BRANCH  25  26
ATOM     26  C   UNL     1      -4.629  13.771  21.798  0.00  0.00    +0.000 A 
ATOM     27  C   UNL     1      -5.490  13.974  22.889  0.00  0.00    +0.000 A 
ATOM     28  C   UNL     1      -6.680  13.256  22.990  0.00  0.00    +0.000 A 
ATOM     29 CL   UNL     1      -7.727  13.525  24.329  0.00  0.00    +0.000 Cl
ATOM     30  C   UNL     1      -7.036  12.336  22.007  0.00  0.00    +0.000 A 
ATOM     31  C   UNL     1      -6.190  12.143  20.917  0.00  0.00    +0.000 A 
ATOM     32 CL   UNL     1      -6.628  11.026  19.684  0.00  0.00    +0.000 Cl
ATOM     33  C   UNL     1      -4.997  12.857  20.804  0.00  0.00    +0.000 A 
ENDBRANCH  25  26
ENDBRANCH  24  25
ENDBRANCH   4  24
TORSDOF 7
ENDMDL
