MODEL 1
REMARK VINA RESULT:      -7.1      0.000      0.000
REMARK  Name = 
REMARK  3 active torsions:
REMARK  status: ('A' for Active; 'I' for Inactive)
REMARK    1  A    between atoms: C_5  and  C_6
REMARK    2  A    between atoms: C_6  and  O_7
REMARK    3  A    between atoms: O_7  and  C_8
REMARK                            x       y       z     vdW  Elec       q    Type
REMARK                         _______ _______ _______ _____ _____    ______ ____
ROOT
ATOM      1  O   UNL     1       4.289   4.050  16.316  0.00  0.00    +0.000 OA
ENDROOT
BRANCH   1   2
ATOM      2  C   UNL     1       3.624   3.829  17.452  0.00  0.00    +0.000 A 
ATOM      3  N   UNL     1       4.154   3.194  18.471  0.00  0.00    +0.000 NA
ATOM      4  C   UNL     1       3.233   3.103  19.498  0.00  0.00    +0.000 A 
ATOM      5  C   UNL     1       3.451   2.483  20.743  0.00  0.00    +0.000 A 
ATOM      6  C   UNL     1       2.429   2.455  21.696  0.00  0.00    +0.000 A 
ATOM      7  C   UNL     1       1.196   3.037  21.420  0.00  0.00    +0.000 A 
ATOM      8  C   UNL     1       0.952   3.659  20.190  0.00  0.00    +0.000 A 
ATOM      9  C   UNL     1       1.988   3.684  19.241  0.00  0.00    +0.000 A 
ATOM     10  S   UNL     1       2.012   4.364  17.656  0.00  0.00    +0.000 S 
ENDBRANCH   1   2
BRANCH   1  11
ATOM     11  C   UNL     1       5.690   3.794  16.407  0.00  0.00    +0.000 C 
BRANCH  11  16
ATOM     12 CL   UNL     1       8.549   8.607  18.658  0.00  0.00    +0.000 Cl
ATOM     13  C   UNL     1       7.728   7.236  18.020  0.00  0.00    +0.000 A 
ATOM     14  C   UNL     1       7.952   5.977  18.569  0.00  0.00    +0.000 A 
ATOM     15  C   UNL     1       7.287   4.864  18.052  0.00  0.00    +0.000 A 
ATOM     16  C   UNL     1       6.390   5.004  16.982  0.00  0.00    +0.000 A 
ATOM     17  C   UNL     1       6.177   6.280  16.436  0.00  0.00    +0.000 A 
ATOM     18  C   UNL     1       6.844   7.392  16.954  0.00  0.00    +0.000 A 
ENDBRANCH  11  16
ENDBRANCH   1  11
TORSDOF 3
ENDMDL
MODEL 2
REMARK VINA RESULT:      -7.1      0.096      1.143
REMARK  Name = 
REMARK  3 active torsions:
REMARK  status: ('A' for Active; 'I' for Inactive)
REMARK    1  A    between atoms: C_5  and  C_6
REMARK    2  A    between atoms: C_6  and  O_7
REMARK    3  A    between atoms: O_7  and  C_8
REMARK                            x       y       z     vdW  Elec       q    Type
REMARK                         _______ _______ _______ _____ _____    ______ ____
ROOT
ATOM      1  O   UNL     1       4.299   4.013  16.354  0.00  0.00    +0.000 OA
ENDROOT
BRANCH   1   2
ATOM      2  C   UNL     1       3.643   3.824  17.501  0.00  0.00    +0.000 A 
ATOM      3  N   UNL     1       4.135   3.114  18.490  0.00  0.00    +0.000 NA
ATOM      4  C   UNL     1       3.233   3.081  19.537  0.00  0.00    +0.000 A 
ATOM      5  C   UNL     1       3.420   2.408  20.760  0.00  0.00    +0.000 A 
ATOM      6  C   UNL     1       2.422   2.448  21.737  0.00  0.00    +0.000 A 
ATOM      7  C   UNL     1       1.243   3.149  21.508  0.00  0.00    +0.000 A 
ATOM      8  C   UNL     1       1.030   3.824  20.300  0.00  0.00    +0.000 A 
ATOM      9  C   UNL     1       2.042   3.780  19.326  0.00  0.00    +0.000 A 
ATOM     10  S   UNL     1       2.093   4.499  17.759  0.00  0.00    +0.000 S 
ENDBRANCH   1   2
BRANCH   1  11
ATOM     11  C   UNL     1       5.698   3.740  16.437  0.00  0.00    +0.000 C 
BRANCH  11  16
ATOM     12 CL   UNL     1       8.513   8.600  18.641  0.00  0.00    +0.000 Cl
ATOM     13  C   UNL     1       7.717   7.212  18.008  0.00  0.00    +0.000 A 
ATOM     14  C   UNL     1       6.847   7.345  16.929  0.00  0.00    +0.000 A 
ATOM     15  C   UNL     1       6.200   6.218  16.416  0.00  0.00    +0.000 A 
ATOM     16  C   UNL     1       6.420   4.952  16.978  0.00  0.00    +0.000 A 
ATOM     17  C   UNL     1       7.296   4.836  18.069  0.00  0.00    +0.000 A 
ATOM     18  C   UNL     1       7.943   5.963  18.582  0.00  0.00    +0.000 A 
ENDBRANCH  11  16
ENDBRANCH   1  11
TORSDOF 3
ENDMDL
MODEL 3
REMARK VINA RESULT:      -7.0      3.617      6.592
REMARK  Name = 
REMARK  3 active torsions:
REMARK  status: ('A' for Active; 'I' for Inactive)
REMARK    1  A    between atoms: C_5  and  C_6
REMARK    2  A    between atoms: C_6  and  O_7
REMARK    3  A    between atoms: O_7  and  C_8
REMARK                            x       y       z     vdW  Elec       q    Type
REMARK                         _______ _______ _______ _____ _____    ______ ____
ROOT
ATOM      1  O   UNL     1       6.209   5.958  17.594  0.00  0.00    +0.000 OA
ENDROOT
BRANCH   1   2
ATOM      2  C   UNL     1       6.266   5.431  16.368  0.00  0.00    +0.000 A 
ATOM      3  N   UNL     1       7.201   5.747  15.504  0.00  0.00    +0.000 NA
ATOM      4  C   UNL     1       6.999   5.060  14.322  0.00  0.00    +0.000 A 
ATOM      5  C   UNL     1       7.804   5.155  13.170  0.00  0.00    +0.000 A 
ATOM      6  C   UNL     1       7.484   4.408  12.033  0.00  0.00    +0.000 A 
ATOM      7  C   UNL     1       6.374   3.570  12.034  0.00  0.00    +0.000 A 
ATOM      8  C   UNL     1       5.556   3.458  13.165  0.00  0.00    +0.000 A 
ATOM      9  C   UNL     1       5.889   4.212  14.303  0.00  0.00    +0.000 A 
ATOM     10  S   UNL     1       5.103   4.296  15.835  0.00  0.00    +0.000 S 
ENDBRANCH   1   2
BRANCH   1  11
ATOM     11  C   UNL     1       6.378   5.004  18.642  0.00  0.00    +0.000 C 
BRANCH  11  16
ATOM     12 CL   UNL     1       0.952   3.445  20.769  0.00  0.00    +0.000 Cl
ATOM     13  C   UNL     1       2.502   3.889  20.169  0.00  0.00    +0.000 A 
ATOM     14  C   UNL     1       2.799   5.231  19.944  0.00  0.00    +0.000 A 
ATOM     15  C   UNL     1       4.058   5.591  19.456  0.00  0.00    +0.000 A 
ATOM     16  C   UNL     1       5.027   4.612  19.194  0.00  0.00    +0.000 A 
ATOM     17  C   UNL     1       4.711   3.263  19.421  0.00  0.00    +0.000 A 
ATOM     18  C   UNL     1       3.452   2.904  19.908  0.00  0.00    +0.000 A 
ENDBRANCH  11  16
ENDBRANCH   1  11
TORSDOF 3
ENDMDL
MODEL 4
REMARK VINA RESULT:      -7.0      3.686      6.721
REMARK  Name = 
REMARK  3 active torsions:
REMARK  status: ('A' for Active; 'I' for Inactive)
REMARK    1  A    between atoms: C_5  and  C_6
REMARK    2  A    between atoms: C_6  and  O_7
REMARK    3  A    between atoms: O_7  and  C_8
REMARK                            x       y       z     vdW  Elec       q    Type
REMARK                         _______ _______ _______ _____ _____    ______ ____
ROOT
ATOM      1  O   UNL     1       6.401   4.886  17.833  0.00  0.00    +0.000 OA
ENDROOT
BRANCH   1   2
ATOM      2  C   UNL     1       6.495   4.692  16.515  0.00  0.00    +0.000 A 
ATOM      3  N   UNL     1       7.325   5.369  15.757  0.00  0.00    +0.000 NA
ATOM      4  C   UNL     1       7.193   4.966  14.442  0.00  0.00    +0.000 A 
ATOM      5  C   UNL     1       7.920   5.479  13.350  0.00  0.00    +0.000 A 
ATOM      6  C   UNL     1       7.685   4.987  12.063  0.00  0.00    +0.000 A 
ATOM      7  C   UNL     1       6.736   3.992  11.855  0.00  0.00    +0.000 A 
ATOM      8  C   UNL     1       5.998   3.466  12.922  0.00  0.00    +0.000 A 
ATOM      9  C   UNL     1       6.245   3.966  14.212  0.00  0.00    +0.000 A 
ATOM     10  S   UNL     1       5.522   3.534  15.717  0.00  0.00    +0.000 S 
ENDBRANCH   1   2
BRANCH   1  11
ATOM     11  C   UNL     1       5.327   5.745  18.215  0.00  0.00    +0.000 C 
BRANCH  11  16
ATOM     12 CL   UNL     1       1.449   2.689  21.683  0.00  0.00    +0.000 Cl
ATOM     13  C   UNL     1       2.550   3.561  20.688  0.00  0.00    +0.000 A 
ATOM     14  C   UNL     1       3.642   2.905  20.124  0.00  0.00    +0.000 A 
ATOM     15  C   UNL     1       4.536   3.611  19.318  0.00  0.00    +0.000 A 
ATOM     16  C   UNL     1       4.343   4.978  19.068  0.00  0.00    +0.000 A 
ATOM     17  C   UNL     1       3.241   5.626  19.647  0.00  0.00    +0.000 A 
ATOM     18  C   UNL     1       2.347   4.919  20.454  0.00  0.00    +0.000 A 
ENDBRANCH  11  16
ENDBRANCH   1  11
TORSDOF 3
ENDMDL
MODEL 5
REMARK VINA RESULT:      -7.0      0.972      1.015
REMARK  Name = 
REMARK  3 active torsions:
REMARK  status: ('A' for Active; 'I' for Inactive)
REMARK    1  A    between atoms: C_5  and  C_6
REMARK    2  A    between atoms: C_6  and  O_7
REMARK    3  A    between atoms: O_7  and  C_8
REMARK                            x       y       z     vdW  Elec       q    Type
REMARK                         _______ _______ _______ _____ _____    ______ ____
ROOT
ATOM      1  O   UNL     1       4.896   4.355  16.054  0.00  0.00    +0.000 OA
ENDROOT
BRANCH   1   2
ATOM      2  C   UNL     1       4.081   4.213  17.101  0.00  0.00    +0.000 A 
ATOM      3  N   UNL     1       3.751   3.039  17.588  0.00  0.00    +0.000 NA
ATOM      4  C   UNL     1       2.888   3.201  18.656  0.00  0.00    +0.000 A 
ATOM      5  C   UNL     1       2.324   2.160  19.419  0.00  0.00    +0.000 A 
ATOM      6  C   UNL     1       1.457   2.461  20.474  0.00  0.00    +0.000 A 
ATOM      7  C   UNL     1       1.149   3.784  20.774  0.00  0.00    +0.000 A 
ATOM      8  C   UNL     1       1.695   4.837  20.031  0.00  0.00    +0.000 A 
ATOM      9  C   UNL     1       2.567   4.523  18.974  0.00  0.00    +0.000 A 
ATOM     10  S   UNL     1       3.399   5.571  17.886  0.00  0.00    +0.000 S 
ENDBRANCH   1   2
BRANCH   1  11
ATOM     11  C   UNL     1       6.268   4.089  16.349  0.00  0.00    +0.000 C 
BRANCH  11  16
ATOM     12 CL   UNL     1       8.802   8.876  19.007  0.00  0.00    +0.000 Cl
ATOM     13  C   UNL     1       8.072   7.513  18.251  0.00  0.00    +0.000 A 
ATOM     14  C   UNL     1       8.083   6.277  18.892  0.00  0.00    +0.000 A 
ATOM     15  C   UNL     1       7.492   5.170  18.279  0.00  0.00    +0.000 A 
ATOM     16  C   UNL     1       6.884   5.294  17.021  0.00  0.00    +0.000 A 
ATOM     17  C   UNL     1       6.885   6.545  16.385  0.00  0.00    +0.000 A 
ATOM     18  C   UNL     1       7.477   7.651  16.999  0.00  0.00    +0.000 A 
ENDBRANCH  11  16
ENDBRANCH   1  11
TORSDOF 3
ENDMDL
MODEL 6
REMARK VINA RESULT:      -6.9      1.055      1.393
REMARK  Name = 
REMARK  3 active torsions:
REMARK  status: ('A' for Active; 'I' for Inactive)
REMARK    1  A    between atoms: C_5  and  C_6
REMARK    2  A    between atoms: C_6  and  O_7
REMARK    3  A    between atoms: O_7  and  C_8
REMARK                            x       y       z     vdW  Elec       q    Type
REMARK                         _______ _______ _______ _____ _____    ______ ____
ROOT
ATOM      1  O   UNL     1       4.604   3.993  15.986  0.00  0.00    +0.000 OA
ENDROOT
BRANCH   1   2
ATOM      2  C   UNL     1       3.839   3.827  17.068  0.00  0.00    +0.000 A 
ATOM      3  N   UNL     1       3.328   4.834  17.735  0.00  0.00    +0.000 NA
ATOM      4  C   UNL     1       2.597   4.363  18.809  0.00  0.00    +0.000 A 
ATOM      5  C   UNL     1       1.911   5.158  19.747  0.00  0.00    +0.000 A 
ATOM      6  C   UNL     1       1.211   4.553  20.795  0.00  0.00    +0.000 A 
ATOM      7  C   UNL     1       1.189   3.168  20.915  0.00  0.00    +0.000 A 
ATOM      8  C   UNL     1       1.863   2.354  19.997  0.00  0.00    +0.000 A 
ATOM      9  C   UNL     1       2.561   2.973  18.947  0.00  0.00    +0.000 A 
ATOM     10  S   UNL     1       3.475   2.267  17.666  0.00  0.00    +0.000 S 
ENDBRANCH   1   2
BRANCH   1  11
ATOM     11  C   UNL     1       5.990   3.736  16.213  0.00  0.00    +0.000 C 
BRANCH  11  16
ATOM     12 CL   UNL     1       8.596   8.497  18.848  0.00  0.00    +0.000 Cl
ATOM     13  C   UNL     1       7.846   7.141  18.100  0.00  0.00    +0.000 A 
ATOM     14  C   UNL     1       7.915   5.889  18.706  0.00  0.00    +0.000 A 
ATOM     15  C   UNL     1       7.307   4.789  18.098  0.00  0.00    +0.000 A 
ATOM     16  C   UNL     1       6.624   4.934  16.881  0.00  0.00    +0.000 A 
ATOM     17  C   UNL     1       6.569   6.201  16.280  0.00  0.00    +0.000 A 
ATOM     18  C   UNL     1       7.177   7.301  16.888  0.00  0.00    +0.000 A 
ENDBRANCH  11  16
ENDBRANCH   1  11
TORSDOF 3
ENDMDL
MODEL 7
REMARK VINA RESULT:      -6.9      2.614      3.314
REMARK  Name = 
REMARK  3 active torsions:
REMARK  status: ('A' for Active; 'I' for Inactive)
REMARK    1  A    between atoms: C_5  and  C_6
REMARK    2  A    between atoms: C_6  and  O_7
REMARK    3  A    between atoms: O_7  and  C_8
REMARK                            x       y       z     vdW  Elec       q    Type
REMARK                         _______ _______ _______ _____ _____    ______ ____
ROOT
ATOM      1  O   UNL     1       6.483   5.205  19.343  0.00  0.00    +0.000 OA
ENDROOT
BRANCH   1   2
ATOM      2  C   UNL     1       5.246   4.704  19.359  0.00  0.00    +0.000 A 
ATOM      3  N   UNL     1       5.000   3.419  19.245  0.00  0.00    +0.000 NA
ATOM      4  C   UNL     1       3.636   3.198  19.282  0.00  0.00    +0.000 A 
ATOM      5  C   UNL     1       3.006   1.943  19.181  0.00  0.00    +0.000 A 
ATOM      6  C   UNL     1       1.612   1.857  19.227  0.00  0.00    +0.000 A 
ATOM      7  C   UNL     1       0.843   3.007  19.370  0.00  0.00    +0.000 A 
ATOM      8  C   UNL     1       1.443   4.268  19.471  0.00  0.00    +0.000 A 
ATOM      9  C   UNL     1       2.846   4.341  19.427  0.00  0.00    +0.000 A 
ATOM     10  S   UNL     1       3.880   5.718  19.528  0.00  0.00    +0.000 S 
ENDBRANCH   1   2
BRANCH   1  11
ATOM     11  C   UNL     1       6.698   6.182  18.324  0.00  0.00    +0.000 C 
BRANCH  11  16
ATOM     12 CL   UNL     1       5.748   3.771  12.876  0.00  0.00    +0.000 Cl
ATOM     13  C   UNL     1       6.014   4.453  14.433  0.00  0.00    +0.000 A 
ATOM     14  C   UNL     1       5.270   5.556  14.842  0.00  0.00    +0.000 A 
ATOM     15  C   UNL     1       5.487   6.111  16.105  0.00  0.00    +0.000 A 
ATOM     16  C   UNL     1       6.448   5.563  16.968  0.00  0.00    +0.000 A 
ATOM     17  C   UNL     1       7.193   4.454  16.539  0.00  0.00    +0.000 A 
ATOM     18  C   UNL     1       6.976   3.900  15.276  0.00  0.00    +0.000 A 
ENDBRANCH  11  16
ENDBRANCH   1  11
TORSDOF 3
ENDMDL
MODEL 8
REMARK VINA RESULT:      -6.9      1.049      1.769
REMARK  Name = 
REMARK  3 active torsions:
REMARK  status: ('A' for Active; 'I' for Inactive)
REMARK    1  A    between atoms: C_5  and  C_6
REMARK    2  A    between atoms: C_6  and  O_7
REMARK    3  A    between atoms: O_7  and  C_8
REMARK                            x       y       z     vdW  Elec       q    Type
REMARK                         _______ _______ _______ _____ _____    ______ ____
ROOT
ATOM      1  O   UNL     1       4.483   4.049  15.993  0.00  0.00    +0.000 OA
ENDROOT
BRANCH   1   2
ATOM      2  C   UNL     1       3.739   3.841  17.082  0.00  0.00    +0.000 A 
ATOM      3  N   UNL     1       3.251   4.822  17.805  0.00  0.00    +0.000 NA
ATOM      4  C   UNL     1       2.539   4.308  18.872  0.00  0.00    +0.000 A 
ATOM      5  C   UNL     1       1.881   5.066  19.860  0.00  0.00    +0.000 A 
ATOM      6  C   UNL     1       1.198   4.420  20.894  0.00  0.00    +0.000 A 
ATOM      7  C   UNL     1       1.165   3.031  20.952  0.00  0.00    +0.000 A 
ATOM      8  C   UNL     1       1.811   2.253  19.984  0.00  0.00    +0.000 A 
ATOM      9  C   UNL     1       2.493   2.914  18.948  0.00  0.00    +0.000 A 
ATOM     10  S   UNL     1       3.373   2.259  17.617  0.00  0.00    +0.000 S 
ENDBRANCH   1   2
BRANCH   1  11
ATOM     11  C   UNL     1       5.865   3.736  16.168  0.00  0.00    +0.000 C 
BRANCH  11  16
ATOM     12 CL   UNL     1       8.605   8.417  18.810  0.00  0.00    +0.000 Cl
ATOM     13  C   UNL     1       7.830   7.080  18.054  0.00  0.00    +0.000 A 
ATOM     14  C   UNL     1       7.135   7.266  16.862  0.00  0.00    +0.000 A 
ATOM     15  C   UNL     1       6.505   6.181  16.248  0.00  0.00    +0.000 A 
ATOM     16  C   UNL     1       6.569   4.903  16.821  0.00  0.00    +0.000 A 
ATOM     17  C   UNL     1       7.270   4.732  18.025  0.00  0.00    +0.000 A 
ATOM     18  C   UNL     1       7.899   5.818  18.639  0.00  0.00    +0.000 A 
ENDBRANCH  11  16
ENDBRANCH   1  11
TORSDOF 3
ENDMDL
MODEL 9
REMARK VINA RESULT:      -6.9      2.609      3.139
REMARK  Name = 
REMARK  3 active torsions:
REMARK  status: ('A' for Active; 'I' for Inactive)
REMARK    1  A    between atoms: C_5  and  C_6
REMARK    2  A    between atoms: C_6  and  O_7
REMARK    3  A    between atoms: O_7  and  C_8
REMARK                            x       y       z     vdW  Elec       q    Type
REMARK                         _______ _______ _______ _____ _____    ______ ____
ROOT
ATOM      1  O   UNL     1       6.316   5.486  19.251  0.00  0.00    +0.000 OA
ENDROOT
BRANCH   1   2
ATOM      2  C   UNL     1       5.117   4.900  19.288  0.00  0.00    +0.000 A 
ATOM      3  N   UNL     1       4.961   3.599  19.216  0.00  0.00    +0.000 NA
ATOM      4  C   UNL     1       3.616   3.285  19.264  0.00  0.00    +0.000 A 
ATOM      5  C   UNL     1       3.076   1.986  19.205  0.00  0.00    +0.000 A 
ATOM      6  C   UNL     1       1.691   1.804  19.258  0.00  0.00    +0.000 A 
ATOM      7  C   UNL     1       0.843   2.902  19.368  0.00  0.00    +0.000 A 
ATOM      8  C   UNL     1       1.354   4.204  19.426  0.00  0.00    +0.000 A 
ATOM      9  C   UNL     1       2.748   4.374  19.375  0.00  0.00    +0.000 A 
ATOM     10  S   UNL     1       3.683   5.822  19.428  0.00  0.00    +0.000 S 
ENDBRANCH   1   2
BRANCH   1  11
ATOM     11  C   UNL     1       6.462   6.439  18.198  0.00  0.00    +0.000 C 
BRANCH  11  16
ATOM     12 CL   UNL     1       5.894   3.598  12.905  0.00  0.00    +0.000 Cl
ATOM     13  C   UNL     1       6.060   4.414  14.411  0.00  0.00    +0.000 A 
ATOM     14  C   UNL     1       6.996   3.967  15.341  0.00  0.00    +0.000 A 
ATOM     15  C   UNL     1       7.130   4.628  16.564  0.00  0.00    +0.000 A 
ATOM     16  C   UNL     1       6.332   5.742  16.863  0.00  0.00    +0.000 A 
ATOM     17  C   UNL     1       5.390   6.177  15.918  0.00  0.00    +0.000 A 
ATOM     18  C   UNL     1       5.255   5.515  14.695  0.00  0.00    +0.000 A 
ENDBRANCH  11  16
ENDBRANCH   1  11
TORSDOF 3
ENDMDL
