MODEL 1
REMARK VINA RESULT:      -8.3      0.000      0.000
REMARK  Name = 
REMARK  7 active torsions:
REMARK  status: ('A' for Active; 'I' for Inactive)
REMARK    1  A    between atoms: C_1  and  O_2
REMARK    2  A    between atoms: O_2  and  C_3
REMARK    3  A    between atoms: C_6  and  O_7
REMARK    4  A    between atoms: C_8  and  C_9
REMARK    5  A    between atoms: C_9  and  N_10
REMARK    6  A    between atoms: N_10  and  N_11
REMARK    7  A    between atoms: C_12  and  C_13
REMARK                            x       y       z     vdW  Elec       q    Type
REMARK                         _______ _______ _______ _____ _____    ______ ____
ROOT
ATOM      1  N   UNL     1       4.785   3.816  17.754  0.00  0.00    +0.000 N 
ATOM      2  C   UNL     1       4.982   4.930  18.609  0.00  0.00    +0.000 A 
ATOM      3  N   UNL     1       4.265   5.114  19.681  0.00  0.00    +0.000 NA
ATOM      4  C   UNL     1       3.249   4.193  19.992  0.00  0.00    +0.000 A 
ATOM      5  C   UNL     1       2.377   4.447  21.047  0.00  0.00    +0.000 A 
ATOM      6  C   UNL     1       1.325   3.568  21.338  0.00  0.00    +0.000 A 
ATOM      7  C   UNL     1       1.130   2.417  20.580  0.00  0.00    +0.000 A 
ATOM      8  C   UNL     1       2.001   2.140  19.539  0.00  0.00    +0.000 A 
ATOM      9  C   UNL     1       3.051   3.027  19.255  0.00  0.00    +0.000 A 
ATOM     10  C   UNL     1       3.948   2.760  18.140  0.00  0.00    +0.000 A 
ATOM     11  O   UNL     1       3.882   1.635  17.644  0.00  0.00    +0.000 OA
ENDROOT
BRANCH   2  12
ATOM     12  C   UNL     1       5.996   5.994  18.245  0.00  0.00    +0.000 A 
ATOM     13  C   UNL     1       7.280   5.899  18.801  0.00  0.00    +0.000 A 
ATOM     14  C   UNL     1       8.188   6.961  18.684  0.00  0.00    +0.000 A 
ATOM     15  C   UNL     1       7.810   8.122  18.013  0.00  0.00    +0.000 A 
ATOM     16 BR   UNL     1       8.961   9.621  17.995  0.00  0.00    +0.000 Br
ATOM     17  C   UNL     1       6.576   8.192  17.374  0.00  0.00    +0.000 A 
ATOM     18  C   UNL     1       5.695   7.110  17.450  0.00  0.00    +0.000 A 
ENDBRANCH   2  12
BRANCH   1  19
ATOM     19  N   UNL     1       5.524   3.725  16.516  0.00  0.00    +0.000 N 
ATOM     20  H   UNL     1       6.416   4.216  16.664  0.00  0.00    +0.000 HD
BRANCH  19  21
ATOM     21  C   UNL     1       4.950   4.414  15.357  0.00  0.00    +0.000 C 
BRANCH  21  26
ATOM     22  C   UNL     1       6.027   3.064  11.981  0.00  0.00    +0.000 A 
ATOM     23  C   UNL     1       7.245   3.719  11.789  0.00  0.00    +0.000 A 
ATOM     24  C   UNL     1       7.743   4.603  12.753  0.00  0.00    +0.000 A 
ATOM     25  C   UNL     1       7.014   4.834  13.915  0.00  0.00    +0.000 A 
ATOM     26  C   UNL     1       5.792   4.193  14.127  0.00  0.00    +0.000 A 
ATOM     27  C   UNL     1       5.311   3.306  13.147  0.00  0.00    +0.000 A 
BRANCH  22  29
ATOM     28  C   UNL     1       6.167   0.897  11.025  0.00  0.00    +0.000 C 
ATOM     29  O   UNL     1       5.640   2.219  10.973  0.00  0.00    +0.000 OA
ENDBRANCH  22  29
BRANCH  25  30
ATOM     30  O   UNL     1       7.486   5.684  14.877  0.00  0.00    +0.000 OA
ATOM     31  H   UNL     1       8.330   6.056  14.571  0.00  0.00    +0.000 HD
ENDBRANCH  25  30
ENDBRANCH  21  26
ENDBRANCH  19  21
ENDBRANCH   1  19
TORSDOF 6
ENDMDL
MODEL 2
REMARK VINA RESULT:      -7.9      3.992      5.451
REMARK  Name = 
REMARK  7 active torsions:
REMARK  status: ('A' for Active; 'I' for Inactive)
REMARK    1  A    between atoms: C_1  and  O_2
REMARK    2  A    between atoms: O_2  and  C_3
REMARK    3  A    between atoms: C_6  and  O_7
REMARK    4  A    between atoms: C_8  and  C_9
REMARK    5  A    between atoms: C_9  and  N_10
REMARK    6  A    between atoms: N_10  and  N_11
REMARK    7  A    between atoms: C_12  and  C_13
REMARK                            x       y       z     vdW  Elec       q    Type
REMARK                         _______ _______ _______ _____ _____    ______ ____
ROOT
ATOM      1  N   UNL     1       2.707   7.934  18.161  0.00  0.00    +0.000 N 
ATOM      2  C   UNL     1       2.430   6.893  19.083  0.00  0.00    +0.000 A 
ATOM      3  N   UNL     1       1.742   7.096  20.169  0.00  0.00    +0.000 NA
ATOM      4  C   UNL     1       1.275   8.392  20.451  0.00  0.00    +0.000 A 
ATOM      5  C   UNL     1       0.666   8.663  21.674  0.00  0.00    +0.000 A 
ATOM      6  C   UNL     1       0.243   9.960  21.995  0.00  0.00    +0.000 A 
ATOM      7  C   UNL     1       0.420  11.008  21.097  0.00  0.00    +0.000 A 
ATOM      8  C   UNL     1       1.006  10.751  19.869  0.00  0.00    +0.000 A 
ATOM      9  C   UNL     1       1.427   9.449  19.556  0.00  0.00    +0.000 A 
ATOM     10  C   UNL     1       2.076   9.179  18.281  0.00  0.00    +0.000 A 
ATOM     11  O   UNL     1       2.009  10.072  17.435  0.00  0.00    +0.000 OA
ENDROOT
BRANCH   2  12
ATOM     12  C   UNL     1       3.008   5.511  18.859  0.00  0.00    +0.000 A 
ATOM     13  C   UNL     1       2.421   4.701  17.875  0.00  0.00    +0.000 A 
ATOM     14  C   UNL     1       2.760   3.345  17.773  0.00  0.00    +0.000 A 
ATOM     15  C   UNL     1       3.685   2.795  18.659  0.00  0.00    +0.000 A 
ATOM     16 BR   UNL     1       4.021   0.935  18.640  0.00  0.00    +0.000 Br
ATOM     17  C   UNL     1       4.345   3.607  19.575  0.00  0.00    +0.000 A 
ATOM     18  C   UNL     1       4.041   4.969  19.638  0.00  0.00    +0.000 A 
ENDBRANCH   2  12
BRANCH   1  19
ATOM     19  N   UNL     1       3.577   7.681  17.036  0.00  0.00    +0.000 N 
ATOM     20  H   UNL     1       3.386   6.721  16.720  0.00  0.00    +0.000 HD
BRANCH  19  21
ATOM     21  C   UNL     1       5.016   7.664  17.309  0.00  0.00    +0.000 C 
BRANCH  21  26
ATOM     22  C   UNL     1       5.696   4.738  14.993  0.00  0.00    +0.000 A 
ATOM     23  C   UNL     1       6.770   4.115  15.632  0.00  0.00    +0.000 A 
ATOM     24  C   UNL     1       7.287   4.625  16.828  0.00  0.00    +0.000 A 
ATOM     25  C   UNL     1       6.727   5.771  17.385  0.00  0.00    +0.000 A 
ATOM     26  C   UNL     1       5.655   6.413  16.762  0.00  0.00    +0.000 A 
ATOM     27  C   UNL     1       5.148   5.882  15.563  0.00  0.00    +0.000 A 
BRANCH  22  29
ATOM     28  C   UNL     1       6.288   3.658  12.966  0.00  0.00    +0.000 C 
ATOM     29  O   UNL     1       5.270   4.149  13.831  0.00  0.00    +0.000 OA
ENDBRANCH  22  29
BRANCH  25  30
ATOM     30  O   UNL     1       7.207   6.282  18.559  0.00  0.00    +0.000 OA
ATOM     31  H   UNL     1       7.849   5.651  18.929  0.00  0.00    +0.000 HD
ENDBRANCH  25  30
ENDBRANCH  21  26
ENDBRANCH  19  21
ENDBRANCH   1  19
TORSDOF 6
ENDMDL
MODEL 3
REMARK VINA RESULT:      -7.7      3.972      6.588
REMARK  Name = 
REMARK  7 active torsions:
REMARK  status: ('A' for Active; 'I' for Inactive)
REMARK    1  A    between atoms: C_1  and  O_2
REMARK    2  A    between atoms: O_2  and  C_3
REMARK    3  A    between atoms: C_6  and  O_7
REMARK    4  A    between atoms: C_8  and  C_9
REMARK    5  A    between atoms: C_9  and  N_10
REMARK    6  A    between atoms: N_10  and  N_11
REMARK    7  A    between atoms: C_12  and  C_13
REMARK                            x       y       z     vdW  Elec       q    Type
REMARK                         _______ _______ _______ _____ _____    ______ ____
ROOT
ATOM      1  N   UNL     1       1.945   7.048  20.312  0.00  0.00    +0.000 N 
ATOM      2  C   UNL     1       2.604   7.394  19.105  0.00  0.00    +0.000 A 
ATOM      3  N   UNL     1       2.326   8.487  18.454  0.00  0.00    +0.000 NA
ATOM      4  C   UNL     1       1.324   9.342  18.948  0.00  0.00    +0.000 A 
ATOM      5  C   UNL     1       0.907  10.436  18.194  0.00  0.00    +0.000 A 
ATOM      6  C   UNL     1      -0.126  11.268  18.645  0.00  0.00    +0.000 A 
ATOM      7  C   UNL     1      -0.759  11.020  19.860  0.00  0.00    +0.000 A 
ATOM      8  C   UNL     1      -0.343   9.948  20.630  0.00  0.00    +0.000 A 
ATOM      9  C   UNL     1       0.693   9.120  20.170  0.00  0.00    +0.000 A 
ATOM     10  C   UNL     1       1.111   7.969  20.958  0.00  0.00    +0.000 A 
ATOM     11  O   UNL     1       0.689   7.918  22.115  0.00  0.00    +0.000 OA
ENDROOT
BRANCH   2  12
ATOM     12  C   UNL     1       3.612   6.443  18.493  0.00  0.00    +0.000 A 
ATOM     13  C   UNL     1       4.758   6.127  19.238  0.00  0.00    +0.000 A 
ATOM     14  C   UNL     1       5.824   5.438  18.645  0.00  0.00    +0.000 A 
ATOM     15  C   UNL     1       5.748   5.067  17.304  0.00  0.00    +0.000 A 
ATOM     16 BR   UNL     1       7.245   4.290  16.452  0.00  0.00    +0.000 Br
ATOM     17  C   UNL     1       4.580   5.288  16.582  0.00  0.00    +0.000 A 
ATOM     18  C   UNL     1       3.500   5.929  17.193  0.00  0.00    +0.000 A 
ENDBRANCH   2  12
BRANCH   1  19
ATOM     19  N   UNL     1       2.206   5.767  20.928  0.00  0.00    +0.000 N 
ATOM     20  H   UNL     1       3.146   5.477  20.628  0.00  0.00    +0.000 HD
BRANCH  19  21
ATOM     21  C   UNL     1       1.359   4.649  20.503  0.00  0.00    +0.000 C 
BRANCH  21  26
ATOM     22  C   UNL     1       4.117   2.161  19.739  0.00  0.00    +0.000 A 
ATOM     23  C   UNL     1       3.726   1.679  18.488  0.00  0.00    +0.000 A 
ATOM     24  C   UNL     1       2.568   2.158  17.866  0.00  0.00    +0.000 A 
ATOM     25  C   UNL     1       1.794   3.123  18.504  0.00  0.00    +0.000 A 
ATOM     26  C   UNL     1       2.163   3.616  19.757  0.00  0.00    +0.000 A 
ATOM     27  C   UNL     1       3.333   3.124  20.363  0.00  0.00    +0.000 A 
BRANCH  22  29
ATOM     28  C   UNL     1       5.160   0.998  21.525  0.00  0.00    +0.000 C 
ATOM     29  O   UNL     1       5.270   1.624  20.251  0.00  0.00    +0.000 OA
ENDBRANCH  22  29
BRANCH  25  30
ATOM     30  O   UNL     1       0.664   3.614  17.911  0.00  0.00    +0.000 OA
ATOM     31  H   UNL     1       0.929   4.188  17.171  0.00  0.00    +0.000 HD
ENDBRANCH  25  30
ENDBRANCH  21  26
ENDBRANCH  19  21
ENDBRANCH   1  19
TORSDOF 6
ENDMDL
MODEL 4
REMARK VINA RESULT:      -7.6      5.971      8.422
REMARK  Name = 
REMARK  7 active torsions:
REMARK  status: ('A' for Active; 'I' for Inactive)
REMARK    1  A    between atoms: C_1  and  O_2
REMARK    2  A    between atoms: O_2  and  C_3
REMARK    3  A    between atoms: C_6  and  O_7
REMARK    4  A    between atoms: C_8  and  C_9
REMARK    5  A    between atoms: C_9  and  N_10
REMARK    6  A    between atoms: N_10  and  N_11
REMARK    7  A    between atoms: C_12  and  C_13
REMARK                            x       y       z     vdW  Elec       q    Type
REMARK                         _______ _______ _______ _____ _____    ______ ____
ROOT
ATOM      1  N   UNL     1       2.415   7.336  19.042  0.00  0.00    +0.000 N 
ATOM      2  C   UNL     1       1.780   6.912  20.237  0.00  0.00    +0.000 A 
ATOM      3  N   UNL     1       1.715   5.657  20.577  0.00  0.00    +0.000 NA
ATOM      4  C   UNL     1       2.271   4.686  19.724  0.00  0.00    +0.000 A 
ATOM      5  C   UNL     1       2.084   3.333  19.993  0.00  0.00    +0.000 A 
ATOM      6  C   UNL     1       2.584   2.352  19.126  0.00  0.00    +0.000 A 
ATOM      7  C   UNL     1       3.282   2.709  17.977  0.00  0.00    +0.000 A 
ATOM      8  C   UNL     1       3.493   4.051  17.705  0.00  0.00    +0.000 A 
ATOM      9  C   UNL     1       2.988   5.026  18.579  0.00  0.00    +0.000 A 
ATOM     10  C   UNL     1       3.175   6.438  18.281  0.00  0.00    +0.000 A 
ATOM     11  O   UNL     1       3.981   6.705  17.389  0.00  0.00    +0.000 OA
ENDROOT
BRANCH   2  12
ATOM     12  C   UNL     1       1.081   7.923  21.122  0.00  0.00    +0.000 A 
ATOM     13  C   UNL     1      -0.321   7.919  21.148  0.00  0.00    +0.000 A 
ATOM     14  C   UNL     1      -1.025   8.962  21.765  0.00  0.00    +0.000 A 
ATOM     15  C   UNL     1      -0.326  10.014  22.356  0.00  0.00    +0.000 A 
ATOM     16 BR   UNL     1      -1.263  11.505  23.040  0.00  0.00    +0.000 Br
ATOM     17  C   UNL     1       1.062   9.981  22.422  0.00  0.00    +0.000 A 
ATOM     18  C   UNL     1       1.758   8.912  21.850  0.00  0.00    +0.000 A 
ENDBRANCH   2  12
BRANCH   1  19
ATOM     19  N   UNL     1       2.352   8.726  18.653  0.00  0.00    +0.000 N 
ATOM     20  H   UNL     1       1.975   9.245  19.457  0.00  0.00    +0.000 HD
BRANCH  19  21
ATOM     21  C   UNL     1       1.423   9.064  17.571  0.00  0.00    +0.000 C 
BRANCH  21  26
ATOM     22  C   UNL     1      -2.068  10.416  18.176  0.00  0.00    +0.000 A 
ATOM     23  C   UNL     1      -1.803  11.551  18.946  0.00  0.00    +0.000 A 
ATOM     24  C   UNL     1      -0.489  11.903  19.274  0.00  0.00    +0.000 A 
ATOM     25  C   UNL     1       0.566  11.110  18.833  0.00  0.00    +0.000 A 
ATOM     26  C   UNL     1       0.325   9.969  18.065  0.00  0.00    +0.000 A 
ATOM     27  C   UNL     1      -1.003   9.635  17.743  0.00  0.00    +0.000 A 
BRANCH  22  29
ATOM     28  C   UNL     1      -4.198  11.311  17.637  0.00  0.00    +0.000 C 
ATOM     29  O   UNL     1      -3.390  10.171  17.912  0.00  0.00    +0.000 OA
ENDBRANCH  22  29
BRANCH  25  30
ATOM     30  O   UNL     1       1.859  11.441  19.132  0.00  0.00    +0.000 OA
ATOM     31  H   UNL     1       1.855  12.266  19.645  0.00  0.00    +0.000 HD
ENDBRANCH  25  30
ENDBRANCH  21  26
ENDBRANCH  19  21
ENDBRANCH   1  19
TORSDOF 6
ENDMDL
MODEL 5
REMARK VINA RESULT:      -7.5      3.422      7.663
REMARK  Name = 
REMARK  7 active torsions:
REMARK  status: ('A' for Active; 'I' for Inactive)
REMARK    1  A    between atoms: C_1  and  O_2
REMARK    2  A    between atoms: O_2  and  C_3
REMARK    3  A    between atoms: C_6  and  O_7
REMARK    4  A    between atoms: C_8  and  C_9
REMARK    5  A    between atoms: C_9  and  N_10
REMARK    6  A    between atoms: N_10  and  N_11
REMARK    7  A    between atoms: C_12  and  C_13
REMARK                            x       y       z     vdW  Elec       q    Type
REMARK                         _______ _______ _______ _____ _____    ______ ____
ROOT
ATOM      1  N   UNL     1       5.793   5.068  16.454  0.00  0.00    +0.000 N 
ATOM      2  C   UNL     1       4.981   3.938  16.182  0.00  0.00    +0.000 A 
ATOM      3  N   UNL     1       5.036   3.304  15.045  0.00  0.00    +0.000 NA
ATOM      4  C   UNL     1       5.912   3.766  14.046  0.00  0.00    +0.000 A 
ATOM      5  C   UNL     1       5.881   3.197  12.775  0.00  0.00    +0.000 A 
ATOM      6  C   UNL     1       6.708   3.679  11.752  0.00  0.00    +0.000 A 
ATOM      7  C   UNL     1       7.581   4.738  11.983  0.00  0.00    +0.000 A 
ATOM      8  C   UNL     1       7.637   5.301  13.247  0.00  0.00    +0.000 A 
ATOM      9  C   UNL     1       6.805   4.812  14.265  0.00  0.00    +0.000 A 
ATOM     10  C   UNL     1       6.834   5.424  15.586  0.00  0.00    +0.000 A 
ATOM     11  O   UNL     1       7.767   6.195  15.810  0.00  0.00    +0.000 OA
ENDROOT
BRANCH   2  12
ATOM     12  C   UNL     1       3.954   3.482  17.197  0.00  0.00    +0.000 A 
ATOM     13  C   UNL     1       2.641   3.956  17.067  0.00  0.00    +0.000 A 
ATOM     14  C   UNL     1       1.705   3.754  18.090  0.00  0.00    +0.000 A 
ATOM     15  C   UNL     1       2.083   3.078  19.249  0.00  0.00    +0.000 A 
ATOM     16 BR   UNL     1       0.881   2.948  20.702  0.00  0.00    +0.000 Br
ATOM     17  C   UNL     1       3.352   2.519  19.350  0.00  0.00    +0.000 A 
ATOM     18  C   UNL     1       4.265   2.679  18.305  0.00  0.00    +0.000 A 
ENDBRANCH   2  12
BRANCH   1  19
ATOM     19  N   UNL     1       5.604   5.805  17.682  0.00  0.00    +0.000 N 
ATOM     20  H   UNL     1       4.833   5.351  18.188  0.00  0.00    +0.000 HD
BRANCH  19  21
ATOM     21  C   UNL     1       5.150   7.192  17.552  0.00  0.00    +0.000 C 
BRANCH  21  26
ATOM     22  C   UNL     1       1.690   8.567  18.277  0.00  0.00    +0.000 A 
ATOM     23  C   UNL     1       1.327   7.837  19.411  0.00  0.00    +0.000 A 
ATOM     24  C   UNL     1       2.199   6.894  19.966  0.00  0.00    +0.000 A 
ATOM     25  C   UNL     1       3.442   6.677  19.378  0.00  0.00    +0.000 A 
ATOM     26  C   UNL     1       3.825   7.392  18.242  0.00  0.00    +0.000 A 
ATOM     27  C   UNL     1       2.935   8.338  17.702  0.00  0.00    +0.000 A 
BRANCH  22  29
ATOM     28  C   UNL     1      -0.004  10.135  18.821  0.00  0.00    +0.000 C 
ATOM     29  O   UNL     1       0.760   9.465  17.824  0.00  0.00    +0.000 OA
ENDBRANCH  22  29
BRANCH  25  30
ATOM     30  O   UNL     1       4.315   5.769  19.909  0.00  0.00    +0.000 OA
ATOM     31  H   UNL     1       3.897   4.891  19.889  0.00  0.00    +0.000 HD
ENDBRANCH  25  30
ENDBRANCH  21  26
ENDBRANCH  19  21
ENDBRANCH   1  19
TORSDOF 6
ENDMDL
MODEL 6
REMARK VINA RESULT:      -7.4      3.179      4.087
REMARK  Name = 
REMARK  7 active torsions:
REMARK  status: ('A' for Active; 'I' for Inactive)
REMARK    1  A    between atoms: C_1  and  O_2
REMARK    2  A    between atoms: O_2  and  C_3
REMARK    3  A    between atoms: C_6  and  O_7
REMARK    4  A    between atoms: C_8  and  C_9
REMARK    5  A    between atoms: C_9  and  N_10
REMARK    6  A    between atoms: N_10  and  N_11
REMARK    7  A    between atoms: C_12  and  C_13
REMARK                            x       y       z     vdW  Elec       q    Type
REMARK                         _______ _______ _______ _____ _____    ______ ____
ROOT
ATOM      1  N   UNL     1       3.941   5.873  18.881  0.00  0.00    +0.000 N 
ATOM      2  C   UNL     1       2.575   6.193  19.087  0.00  0.00    +0.000 A 
ATOM      3  N   UNL     1       1.663   5.274  19.226  0.00  0.00    +0.000 NA
ATOM      4  C   UNL     1       2.038   3.920  19.149  0.00  0.00    +0.000 A 
ATOM      5  C   UNL     1       1.063   2.926  19.147  0.00  0.00    +0.000 A 
ATOM      6  C   UNL     1       1.414   1.576  19.017  0.00  0.00    +0.000 A 
ATOM      7  C   UNL     1       2.747   1.197  18.889  0.00  0.00    +0.000 A 
ATOM      8  C   UNL     1       3.730   2.172  18.908  0.00  0.00    +0.000 A 
ATOM      9  C   UNL     1       3.369   3.522  19.039  0.00  0.00    +0.000 A 
ATOM     10  C   UNL     1       4.394   4.556  19.024  0.00  0.00    +0.000 A 
ATOM     11  O   UNL     1       5.559   4.170  19.136  0.00  0.00    +0.000 OA
ENDROOT
BRANCH   2  12
ATOM     12  C   UNL     1       2.125   7.639  19.069  0.00  0.00    +0.000 A 
ATOM     13  C   UNL     1       1.689   8.209  20.274  0.00  0.00    +0.000 A 
ATOM     14  C   UNL     1       1.056   9.459  20.283  0.00  0.00    +0.000 A 
ATOM     15  C   UNL     1       0.854  10.141  19.084  0.00  0.00    +0.000 A 
ATOM     16 BR   UNL     1      -0.147  11.744  19.064  0.00  0.00    +0.000 Br
ATOM     17  C   UNL     1       1.367   9.632  17.895  0.00  0.00    +0.000 A 
ATOM     18  C   UNL     1       2.043   8.410  17.900  0.00  0.00    +0.000 A 
ENDBRANCH   2  12
BRANCH   1  19
ATOM     19  N   UNL     1       4.890   6.929  18.612  0.00  0.00    +0.000 N 
ATOM     20  H   UNL     1       4.508   7.788  19.030  0.00  0.00    +0.000 HD
BRANCH  19  21
ATOM     21  C   UNL     1       5.082   7.297  17.206  0.00  0.00    +0.000 C 
BRANCH  21  26
ATOM     22  C   UNL     1       5.685   4.654  14.554  0.00  0.00    +0.000 A 
ATOM     23  C   UNL     1       6.928   4.148  14.935  0.00  0.00    +0.000 A 
ATOM     24  C   UNL     1       7.590   4.647  16.063  0.00  0.00    +0.000 A 
ATOM     25  C   UNL     1       7.003   5.663  16.811  0.00  0.00    +0.000 A 
ATOM     26  C   UNL     1       5.761   6.187  16.446  0.00  0.00    +0.000 A 
ATOM     27  C   UNL     1       5.112   5.670  15.311  0.00  0.00    +0.000 A 
BRANCH  22  29
ATOM     28  C   UNL     1       6.028   3.428  12.552  0.00  0.00    +0.000 C 
ATOM     29  O   UNL     1       5.128   4.088  13.436  0.00  0.00    +0.000 OA
ENDBRANCH  22  29
BRANCH  25  30
ATOM     30  O   UNL     1       7.624   6.158  17.923  0.00  0.00    +0.000 OA
ATOM     31  H   UNL     1       7.259   5.710  18.706  0.00  0.00    +0.000 HD
ENDBRANCH  25  30
ENDBRANCH  21  26
ENDBRANCH  19  21
ENDBRANCH   1  19
TORSDOF 6
ENDMDL
MODEL 7
REMARK VINA RESULT:      -7.4      5.816      8.598
REMARK  Name = 
REMARK  7 active torsions:
REMARK  status: ('A' for Active; 'I' for Inactive)
REMARK    1  A    between atoms: C_1  and  O_2
REMARK    2  A    between atoms: O_2  and  C_3
REMARK    3  A    between atoms: C_6  and  O_7
REMARK    4  A    between atoms: C_8  and  C_9
REMARK    5  A    between atoms: C_9  and  N_10
REMARK    6  A    between atoms: N_10  and  N_11
REMARK    7  A    between atoms: C_12  and  C_13
REMARK                            x       y       z     vdW  Elec       q    Type
REMARK                         _______ _______ _______ _____ _____    ______ ____
ROOT
ATOM      1  N   UNL     1       2.485   7.249  18.938  0.00  0.00    +0.000 N 
ATOM      2  C   UNL     1       1.882   6.787  20.135  0.00  0.00    +0.000 A 
ATOM      3  N   UNL     1       1.862   5.525  20.456  0.00  0.00    +0.000 NA
ATOM      4  C   UNL     1       2.436   4.586  19.579  0.00  0.00    +0.000 A 
ATOM      5  C   UNL     1       2.296   3.223  19.829  0.00  0.00    +0.000 A 
ATOM      6  C   UNL     1       2.814   2.273  18.939  0.00  0.00    +0.000 A 
ATOM      7  C   UNL     1       3.483   2.670  17.785  0.00  0.00    +0.000 A 
ATOM      8  C   UNL     1       3.647   4.022  17.533  0.00  0.00    +0.000 A 
ATOM      9  C   UNL     1       3.125   4.966  18.430  0.00  0.00    +0.000 A 
ATOM     10  C   UNL     1       3.262   6.389  18.152  0.00  0.00    +0.000 A 
ATOM     11  O   UNL     1       4.046   6.696  17.252  0.00  0.00    +0.000 OA
ENDROOT
BRANCH   2  12
ATOM     12  C   UNL     1       1.165   7.760  21.047  0.00  0.00    +0.000 A 
ATOM     13  C   UNL     1      -0.236   7.799  20.999  0.00  0.00    +0.000 A 
ATOM     14  C   UNL     1      -0.943   8.822  21.645  0.00  0.00    +0.000 A 
ATOM     15  C   UNL     1      -0.248   9.811  22.339  0.00  0.00    +0.000 A 
ATOM     16 BR   UNL     1      -1.179  11.284  23.070  0.00  0.00    +0.000 Br
ATOM     17  C   UNL     1       1.133   9.731  22.475  0.00  0.00    +0.000 A 
ATOM     18  C   UNL     1       1.829   8.680  21.872  0.00  0.00    +0.000 A 
ENDBRANCH   2  12
BRANCH   1  19
ATOM     19  N   UNL     1       2.372   8.643  18.572  0.00  0.00    +0.000 N 
ATOM     20  H   UNL     1       2.208   9.167  19.441  0.00  0.00    +0.000 HD
BRANCH  19  21
ATOM     21  C   UNL     1       1.227   9.012  17.736  0.00  0.00    +0.000 C 
BRANCH  21  26
ATOM     22  C   UNL     1       0.600  12.194  19.701  0.00  0.00    +0.000 A 
ATOM     23  C   UNL     1      -0.751  12.430  19.435  0.00  0.00    +0.000 A 
ATOM     24  C   UNL     1      -1.484  11.558  18.623  0.00  0.00    +0.000 A 
ATOM     25  C   UNL     1      -0.859  10.445  18.069  0.00  0.00    +0.000 A 
ATOM     26  C   UNL     1       0.491  10.191  18.318  0.00  0.00    +0.000 A 
ATOM     27  C   UNL     1       1.210  11.078  19.140  0.00  0.00    +0.000 A 
BRANCH  22  29
ATOM     28  C   UNL     1       2.373  13.746  19.977  0.00  0.00    +0.000 C 
ATOM     29  O   UNL     1       1.216  13.111  20.512  0.00  0.00    +0.000 OA
ENDBRANCH  22  29
BRANCH  25  30
ATOM     30  O   UNL     1      -1.558   9.573  17.282  0.00  0.00    +0.000 OA
ATOM     31  H   UNL     1      -1.781  10.021  16.448  0.00  0.00    +0.000 HD
ENDBRANCH  25  30
ENDBRANCH  21  26
ENDBRANCH  19  21
ENDBRANCH   1  19
TORSDOF 6
ENDMDL
MODEL 8
REMARK VINA RESULT:      -7.3      4.361      7.146
REMARK  Name = 
REMARK  7 active torsions:
REMARK  status: ('A' for Active; 'I' for Inactive)
REMARK    1  A    between atoms: C_1  and  O_2
REMARK    2  A    between atoms: O_2  and  C_3
REMARK    3  A    between atoms: C_6  and  O_7
REMARK    4  A    between atoms: C_8  and  C_9
REMARK    5  A    between atoms: C_9  and  N_10
REMARK    6  A    between atoms: N_10  and  N_11
REMARK    7  A    between atoms: C_12  and  C_13
REMARK                            x       y       z     vdW  Elec       q    Type
REMARK                         _______ _______ _______ _____ _____    ______ ____
ROOT
ATOM      1  N   UNL     1       1.956   7.640  20.081  0.00  0.00    +0.000 N 
ATOM      2  C   UNL     1       2.183   7.967  18.720  0.00  0.00    +0.000 A 
ATOM      3  N   UNL     1       1.621   8.995  18.152  0.00  0.00    +0.000 NA
ATOM      4  C   UNL     1       0.743   9.796  18.904  0.00  0.00    +0.000 A 
ATOM      5  C   UNL     1       0.018  10.810  18.281  0.00  0.00    +0.000 A 
ATOM      6  C   UNL     1      -0.901  11.583  19.003  0.00  0.00    +0.000 A 
ATOM      7  C   UNL     1      -1.110  11.357  20.360  0.00  0.00    +0.000 A 
ATOM      8  C   UNL     1      -0.383  10.366  20.998  0.00  0.00    +0.000 A 
ATOM      9  C   UNL     1       0.536   9.597  20.267  0.00  0.00    +0.000 A 
ATOM     10  C   UNL     1       1.277   8.529  20.924  0.00  0.00    +0.000 A 
ATOM     11  O   UNL     1       1.233   8.512  22.155  0.00  0.00    +0.000 OA
ENDROOT
BRANCH   2  12
ATOM     12  C   UNL     1       3.040   7.063  17.857  0.00  0.00    +0.000 A 
ATOM     13  C   UNL     1       2.632   5.732  17.688  0.00  0.00    +0.000 A 
ATOM     14  C   UNL     1       3.488   4.795  17.093  0.00  0.00    +0.000 A 
ATOM     15  C   UNL     1       4.756   5.187  16.670  0.00  0.00    +0.000 A 
ATOM     16 BR   UNL     1       5.978   3.899  16.023  0.00  0.00    +0.000 Br
ATOM     17  C   UNL     1       5.136   6.523  16.744  0.00  0.00    +0.000 A 
ATOM     18  C   UNL     1       4.259   7.464  17.290  0.00  0.00    +0.000 A 
ENDBRANCH   2  12
BRANCH   1  19
ATOM     19  N   UNL     1       2.508   6.421  20.626  0.00  0.00    +0.000 N 
ATOM     20  H   UNL     1       3.087   5.999  19.887  0.00  0.00    +0.000 HD
BRANCH  19  21
ATOM     21  C   UNL     1       1.555   5.358  20.954  0.00  0.00    +0.000 C 
BRANCH  21  26
ATOM     22  C   UNL     1       3.880   2.478  20.125  0.00  0.00    +0.000 A 
ATOM     23  C   UNL     1       3.010   1.584  19.496  0.00  0.00    +0.000 A 
ATOM     24  C   UNL     1       1.659   1.901  19.322  0.00  0.00    +0.000 A 
ATOM     25  C   UNL     1       1.174   3.121  19.785  0.00  0.00    +0.000 A 
ATOM     26  C   UNL     1       2.024   4.029  20.419  0.00  0.00    +0.000 A 
ATOM     27  C   UNL     1       3.380   3.692  20.581  0.00  0.00    +0.000 A 
BRANCH  22  29
ATOM     28  C   UNL     1       5.413   0.939  21.077  0.00  0.00    +0.000 C 
ATOM     29  O   UNL     1       5.182   2.064  20.237  0.00  0.00    +0.000 OA
ENDBRANCH  22  29
BRANCH  25  30
ATOM     30  O   UNL     1      -0.140   3.458  19.616  0.00  0.00    +0.000 OA
ATOM     31  H   UNL     1      -0.681   2.890  20.191  0.00  0.00    +0.000 HD
ENDBRANCH  25  30
ENDBRANCH  21  26
ENDBRANCH  19  21
ENDBRANCH   1  19
TORSDOF 6
ENDMDL
MODEL 9
REMARK VINA RESULT:      -7.1      4.002      6.477
REMARK  Name = 
REMARK  7 active torsions:
REMARK  status: ('A' for Active; 'I' for Inactive)
REMARK    1  A    between atoms: C_1  and  O_2
REMARK    2  A    between atoms: O_2  and  C_3
REMARK    3  A    between atoms: C_6  and  O_7
REMARK    4  A    between atoms: C_8  and  C_9
REMARK    5  A    between atoms: C_9  and  N_10
REMARK    6  A    between atoms: N_10  and  N_11
REMARK    7  A    between atoms: C_12  and  C_13
REMARK                            x       y       z     vdW  Elec       q    Type
REMARK                         _______ _______ _______ _____ _____    ______ ____
ROOT
ATOM      1  N   UNL     1       2.211   7.261  19.934  0.00  0.00    +0.000 N 
ATOM      2  C   UNL     1       2.794   7.760  18.742  0.00  0.00    +0.000 A 
ATOM      3  N   UNL     1       2.389   8.865  18.184  0.00  0.00    +0.000 NA
ATOM      4  C   UNL     1       1.325   9.577  18.768  0.00  0.00    +0.000 A 
ATOM      5  C   UNL     1       0.780  10.677  18.111  0.00  0.00    +0.000 A 
ATOM      6  C   UNL     1      -0.315  11.366  18.651  0.00  0.00    +0.000 A 
ATOM      7  C   UNL     1      -0.880  10.967  19.858  0.00  0.00    +0.000 A 
ATOM      8  C   UNL     1      -0.337   9.887  20.533  0.00  0.00    +0.000 A 
ATOM      9  C   UNL     1       0.759   9.203  19.984  0.00  0.00    +0.000 A 
ATOM     10  C   UNL     1       1.312   8.044  20.671  0.00  0.00    +0.000 A 
ATOM     11  O   UNL     1       0.935   7.865  21.830  0.00  0.00    +0.000 OA
ENDROOT
BRANCH   2  12
ATOM     12  C   UNL     1       3.869   6.962  18.034  0.00  0.00    +0.000 A 
ATOM     13  C   UNL     1       3.990   7.107  16.644  0.00  0.00    +0.000 A 
ATOM     14  C   UNL     1       4.806   6.239  15.906  0.00  0.00    +0.000 A 
ATOM     15  C   UNL     1       5.500   5.221  16.557  0.00  0.00    +0.000 A 
ATOM     16 BR   UNL     1       6.467   3.944  15.554  0.00  0.00    +0.000 Br
ATOM     17  C   UNL     1       5.465   5.127  17.944  0.00  0.00    +0.000 A 
ATOM     18  C   UNL     1       4.691   6.027  18.680  0.00  0.00    +0.000 A 
ENDBRANCH   2  12
BRANCH   1  19
ATOM     19  N   UNL     1       2.615   5.970  20.443  0.00  0.00    +0.000 N 
ATOM     20  H   UNL     1       3.447   5.686  19.909  0.00  0.00    +0.000 HD
BRANCH  19  21
ATOM     21  C   UNL     1       1.684   4.859  20.229  0.00  0.00    +0.000 C 
BRANCH  21  26
ATOM     22  C   UNL     1       3.840   1.887  19.281  0.00  0.00    +0.000 A 
ATOM     23  C   UNL     1       3.527   1.729  17.930  0.00  0.00    +0.000 A 
ATOM     24  C   UNL     1       2.620   2.588  17.299  0.00  0.00    +0.000 A 
ATOM     25  C   UNL     1       2.018   3.609  18.029  0.00  0.00    +0.000 A 
ATOM     26  C   UNL     1       2.313   3.783  19.383  0.00  0.00    +0.000 A 
ATOM     27  C   UNL     1       3.230   2.911  19.997  0.00  0.00    +0.000 A 
BRANCH  22  29
ATOM     28  C   UNL     1       5.277   1.301  21.076  0.00  0.00    +0.000 C 
ATOM     29  O   UNL     1       4.744   0.992  19.792  0.00  0.00    +0.000 OA
ENDBRANCH  22  29
BRANCH  25  30
ATOM     30  O   UNL     1       1.138   4.467  17.433  0.00  0.00    +0.000 OA
ATOM     31  H   UNL     1       0.250   4.072  17.467  0.00  0.00    +0.000 HD
ENDBRANCH  25  30
ENDBRANCH  21  26
ENDBRANCH  19  21
ENDBRANCH   1  19
TORSDOF 6
ENDMDL
