MODEL 1
REMARK VINA RESULT:      -6.2      0.000      0.000
REMARK  Name = 
REMARK  10 active torsions:
REMARK  status: ('A' for Active; 'I' for Inactive)
REMARK    1  A    between atoms: C_1  and  O_2
REMARK    2  A    between atoms: O_2  and  C_3
REMARK    3  A    between atoms: C_3  and  C_4
REMARK    4  A    between atoms: C_4  and  N_5
REMARK    5  A    between atoms: N_5  and  C_6
REMARK    6  A    between atoms: C_13  and  C_14
REMARK    7  A    between atoms: C_15  and  C_16
REMARK    8  A    between atoms: C_18  and  C_19
REMARK    9  A    between atoms: C_21  and  C_22
REMARK   10  A    between atoms: C_23  and  C_24
REMARK                            x       y       z     vdW  Elec       q    Type
REMARK                         _______ _______ _______ _____ _____    ______ ____
ROOT
ATOM      1  N   UNL     1      -6.006  12.317  20.391  0.00  0.00    +0.000 N 
ATOM      2  C   UNL     1      -7.322  11.884  20.828  0.00  0.00    +0.000 C 
ATOM      3  C   UNL     1      -5.616  11.992  19.127  0.00  0.00    +0.000 A 
ATOM      4  N   UNL     1      -6.459  11.822  18.097  0.00  0.00    +0.000 NA
ATOM      5  N   UNL     1      -5.666  11.547  17.051  0.00  0.00    +0.000 N 
ATOM      6  C   UNL     1      -4.336  11.485  17.346  0.00  0.00    +0.000 A 
ATOM      7  C   UNL     1      -3.210  11.204  16.562  0.00  0.00    +0.000 A 
ATOM      8  C   UNL     1      -1.970  11.195  17.206  0.00  0.00    +0.000 A 
ATOM      9  C   UNL     1      -1.870  11.457  18.581  0.00  0.00    +0.000 A 
ATOM     10  C   UNL     1      -3.021  11.722  19.328  0.00  0.00    +0.000 A 
ATOM     11  C   UNL     1      -4.272  11.756  18.705  0.00  0.00    +0.000 A 
ATOM     12  H   UNL     1      -6.103  11.398  16.151  0.00  0.00    +0.000 HD
ENDROOT
BRANCH   9  13
ATOM     13  C   UNL     1      -0.567  11.447  19.349  0.00  0.00    +0.000 C 
ATOM     14  C   UNL     1      -0.355  12.646  20.124  0.00  0.00    +0.000 C 
ATOM     15  C   UNL     1      -0.275  12.773  21.467  0.00  0.00    +0.000 C 
ATOM     16  C   UNL     1      -0.157  14.090  22.200  0.00  0.00    +0.000 C 
ATOM     17  N   UNL     1      -0.335  11.702  22.318  0.00  0.00    +0.000 NA
ATOM     18  C   UNL     1      -0.424  10.534  21.775  0.00  0.00    +0.000 C 
ATOM     19  C   UNL     1      -0.507   9.320  22.674  0.00  0.00    +0.000 C 
ATOM     20  C   UNL     1      -0.485  10.324  20.282  0.00  0.00    +0.000 C 
BRANCH  14  21
ATOM     21  C   UNL     1      -0.307  13.897  19.262  0.00  0.00    +0.000 C 
ATOM     22  N   UNL     1      -0.267  14.934  18.546  0.00  0.00    +0.000 NA
ENDBRANCH  14  21
BRANCH  20  23
ATOM     23  C   UNL     1       0.702   9.475  19.855  0.00  0.00    +0.000 C 
ATOM     24  N   UNL     1       1.686   8.770  19.502  0.00  0.00    +0.000 NA
ENDBRANCH  20  23
ENDBRANCH   9  13
BRANCH   1  25
ATOM     25  C   UNL     1      -5.190  13.083  21.337  0.00  0.00    +0.000 C 
BRANCH  25  26
ATOM     26  C   UNL     1      -5.714  13.004  22.780  0.00  0.00    +0.000 C 
BRANCH  26  28
ATOM     27  C   UNL     1      -3.901  12.534  24.205  0.00  0.00    +0.000 C 
ATOM     28  O   UNL     1      -4.748  13.552  23.683  0.00  0.00    +0.000 OA
ENDBRANCH  26  28
ENDBRANCH  25  26
ENDBRANCH   1  25
TORSDOF 6
ENDMDL
MODEL 2
REMARK VINA RESULT:      -6.1      4.303      8.211
REMARK  Name = 
REMARK  10 active torsions:
REMARK  status: ('A' for Active; 'I' for Inactive)
REMARK    1  A    between atoms: C_1  and  O_2
REMARK    2  A    between atoms: O_2  and  C_3
REMARK    3  A    between atoms: C_3  and  C_4
REMARK    4  A    between atoms: C_4  and  N_5
REMARK    5  A    between atoms: N_5  and  C_6
REMARK    6  A    between atoms: C_13  and  C_14
REMARK    7  A    between atoms: C_15  and  C_16
REMARK    8  A    between atoms: C_18  and  C_19
REMARK    9  A    between atoms: C_21  and  C_22
REMARK   10  A    between atoms: C_23  and  C_24
REMARK                            x       y       z     vdW  Elec       q    Type
REMARK                         _______ _______ _______ _____ _____    ______ ____
ROOT
ATOM      1  N   UNL     1       3.468   6.230  17.975  0.00  0.00    +0.000 N 
ATOM      2  C   UNL     1       3.562   4.902  17.393  0.00  0.00    +0.000 C 
ATOM      3  C   UNL     1       2.772   6.368  19.137  0.00  0.00    +0.000 A 
ATOM      4  N   UNL     1       2.646   5.402  20.061  0.00  0.00    +0.000 NA
ATOM      5  N   UNL     1       1.921   5.962  21.041  0.00  0.00    +0.000 N 
ATOM      6  C   UNL     1       1.523   7.243  20.794  0.00  0.00    +0.000 A 
ATOM      7  C   UNL     1       0.749   8.146  21.532  0.00  0.00    +0.000 A 
ATOM      8  C   UNL     1       0.504   9.396  20.955  0.00  0.00    +0.000 A 
ATOM      9  C   UNL     1       1.016   9.719  19.689  0.00  0.00    +0.000 A 
ATOM     10  C   UNL     1       1.775   8.782  18.983  0.00  0.00    +0.000 A 
ATOM     11  C   UNL     1       2.052   7.532  19.544  0.00  0.00    +0.000 A 
ATOM     12  H   UNL     1       1.720   5.403  21.860  0.00  0.00    +0.000 HD
ENDROOT
BRANCH   9  13
ATOM     13  C   UNL     1       0.778  11.041  18.995  0.00  0.00    +0.000 C 
ATOM     14  C   UNL     1      -0.620  11.327  18.779  0.00  0.00    +0.000 C 
ATOM     15  C   UNL     1      -1.362  12.327  19.303  0.00  0.00    +0.000 C 
ATOM     16  C   UNL     1      -2.851  12.487  19.103  0.00  0.00    +0.000 C 
ATOM     17  N   UNL     1      -0.834  13.293  20.118  0.00  0.00    +0.000 NA
ATOM     18  C   UNL     1       0.438  13.240  20.333  0.00  0.00    +0.000 C 
ATOM     19  C   UNL     1       1.065  14.276  21.239  0.00  0.00    +0.000 C 
ATOM     20  C   UNL     1       1.326  12.167  19.751  0.00  0.00    +0.000 C 
BRANCH  14  21
ATOM     21  C   UNL     1      -1.299  10.285  17.907  0.00  0.00    +0.000 C 
ATOM     22  N   UNL     1      -1.864   9.420  17.183  0.00  0.00    +0.000 NA
ENDBRANCH  14  21
BRANCH  20  23
ATOM     23  C   UNL     1       2.380  12.824  18.874  0.00  0.00    +0.000 C 
ATOM     24  N   UNL     1       3.253  13.369  18.147  0.00  0.00    +0.000 NA
ENDBRANCH  20  23
ENDBRANCH   9  13
BRANCH   1  25
ATOM     25  C   UNL     1       4.136   7.331  17.275  0.00  0.00    +0.000 C 
BRANCH  25  26
ATOM     26  C   UNL     1       5.236   6.850  16.316  0.00  0.00    +0.000 C 
BRANCH  26  28
ATOM     27  C   UNL     1       7.215   6.296  17.464  0.00  0.00    +0.000 C 
ATOM     28  O   UNL     1       6.514   7.317  16.762  0.00  0.00    +0.000 OA
ENDBRANCH  26  28
ENDBRANCH  25  26
ENDBRANCH   1  25
TORSDOF 6
ENDMDL
MODEL 3
REMARK VINA RESULT:      -6.1      2.299      4.025
REMARK  Name = 
REMARK  10 active torsions:
REMARK  status: ('A' for Active; 'I' for Inactive)
REMARK    1  A    between atoms: C_1  and  O_2
REMARK    2  A    between atoms: O_2  and  C_3
REMARK    3  A    between atoms: C_3  and  C_4
REMARK    4  A    between atoms: C_4  and  N_5
REMARK    5  A    between atoms: N_5  and  C_6
REMARK    6  A    between atoms: C_13  and  C_14
REMARK    7  A    between atoms: C_15  and  C_16
REMARK    8  A    between atoms: C_18  and  C_19
REMARK    9  A    between atoms: C_21  and  C_22
REMARK   10  A    between atoms: C_23  and  C_24
REMARK                            x       y       z     vdW  Elec       q    Type
REMARK                         _______ _______ _______ _____ _____    ______ ____
ROOT
ATOM      1  N   UNL     1      -5.666  13.729  21.924  0.00  0.00    +0.000 N 
ATOM      2  C   UNL     1      -6.484  14.740  22.572  0.00  0.00    +0.000 C 
ATOM      3  C   UNL     1      -4.646  13.180  22.639  0.00  0.00    +0.000 A 
ATOM      4  N   UNL     1      -4.646  13.048  23.975  0.00  0.00    +0.000 NA
ATOM      5  N   UNL     1      -3.483  12.441  24.256  0.00  0.00    +0.000 N 
ATOM      6  C   UNL     1      -2.691  12.200  23.173  0.00  0.00    +0.000 A 
ATOM      7  C   UNL     1      -1.420  11.625  23.047  0.00  0.00    +0.000 A 
ATOM      8  C   UNL     1      -0.876  11.558  21.761  0.00  0.00    +0.000 A 
ATOM      9  C   UNL     1      -1.581  12.050  20.653  0.00  0.00    +0.000 A 
ATOM     10  C   UNL     1      -2.842  12.627  20.826  0.00  0.00    +0.000 A 
ATOM     11  C   UNL     1      -3.419  12.690  22.098  0.00  0.00    +0.000 A 
ATOM     12  H   UNL     1      -3.284  12.226  25.224  0.00  0.00    +0.000 HD
ENDROOT
BRANCH   9  13
ATOM     13  C   UNL     1      -1.050  12.028  19.237  0.00  0.00    +0.000 C 
ATOM     14  C   UNL     1       0.034  12.957  19.021  0.00  0.00    +0.000 C 
ATOM     15  C   UNL     1       1.320  12.687  18.706  0.00  0.00    +0.000 C 
ATOM     16  C   UNL     1       2.415  13.723  18.604  0.00  0.00    +0.000 C 
ATOM     17  N   UNL     1       1.777  11.415  18.484  0.00  0.00    +0.000 NA
ATOM     18  C   UNL     1       0.903  10.466  18.539  0.00  0.00    +0.000 C 
ATOM     19  C   UNL     1       1.363   9.043  18.315  0.00  0.00    +0.000 C 
ATOM     20  C   UNL     1      -0.553  10.707  18.855  0.00  0.00    +0.000 C 
BRANCH  14  21
ATOM     21  C   UNL     1      -0.374  14.398  19.278  0.00  0.00    +0.000 C 
ATOM     22  N   UNL     1      -0.712  15.594  19.490  0.00  0.00    +0.000 NA
ENDBRANCH  14  21
BRANCH  20  23
ATOM     23  C   UNL     1      -1.395  10.236  17.680  0.00  0.00    +0.000 C 
ATOM     24  N   UNL     1      -2.095   9.845  16.706  0.00  0.00    +0.000 NA
ENDBRANCH  20  23
ENDBRANCH   9  13
BRANCH   1  25
ATOM     25  C   UNL     1      -6.000  13.362  20.544  0.00  0.00    +0.000 C 
BRANCH  25  26
ATOM     26  C   UNL     1      -7.210  12.418  20.453  0.00  0.00    +0.000 C 
BRANCH  26  28
ATOM     27  C   UNL     1      -7.335  10.086  20.157  0.00  0.00    +0.000 C 
ATOM     28  O   UNL     1      -6.873  11.138  20.998  0.00  0.00    +0.000 OA
ENDBRANCH  26  28
ENDBRANCH  25  26
ENDBRANCH   1  25
TORSDOF 6
ENDMDL
MODEL 4
REMARK VINA RESULT:      -6.1      2.065      6.135
REMARK  Name = 
REMARK  10 active torsions:
REMARK  status: ('A' for Active; 'I' for Inactive)
REMARK    1  A    between atoms: C_1  and  O_2
REMARK    2  A    between atoms: O_2  and  C_3
REMARK    3  A    between atoms: C_3  and  C_4
REMARK    4  A    between atoms: C_4  and  N_5
REMARK    5  A    between atoms: N_5  and  C_6
REMARK    6  A    between atoms: C_13  and  C_14
REMARK    7  A    between atoms: C_15  and  C_16
REMARK    8  A    between atoms: C_18  and  C_19
REMARK    9  A    between atoms: C_21  and  C_22
REMARK   10  A    between atoms: C_23  and  C_24
REMARK                            x       y       z     vdW  Elec       q    Type
REMARK                         _______ _______ _______ _____ _____    ______ ____
ROOT
ATOM      1  N   UNL     1      -1.101  12.671  20.607  0.00  0.00    +0.000 N 
ATOM      2  C   UNL     1       0.174  13.344  20.788  0.00  0.00    +0.000 C 
ATOM      3  C   UNL     1      -1.240  11.847  19.532  0.00  0.00    +0.000 A 
ATOM      4  N   UNL     1      -0.229  11.172  18.963  0.00  0.00    +0.000 NA
ATOM      5  N   UNL     1      -0.802  10.471  17.974  0.00  0.00    +0.000 N 
ATOM      6  C   UNL     1      -2.142  10.680  17.831  0.00  0.00    +0.000 A 
ATOM      7  C   UNL     1      -3.082  10.175  16.925  0.00  0.00    +0.000 A 
ATOM      8  C   UNL     1      -4.397  10.633  17.047  0.00  0.00    +0.000 A 
ATOM      9  C   UNL     1      -4.748  11.561  18.039  0.00  0.00    +0.000 A 
ATOM     10  C   UNL     1      -3.775  12.048  18.916  0.00  0.00    +0.000 A 
ATOM     11  C   UNL     1      -2.456  11.592  18.829  0.00  0.00    +0.000 A 
ATOM     12  H   UNL     1      -0.212   9.867  17.417  0.00  0.00    +0.000 HD
ENDROOT
BRANCH   9  13
ATOM     13  C   UNL     1      -6.143  12.115  18.221  0.00  0.00    +0.000 C 
ATOM     14  C   UNL     1      -6.788  11.649  19.425  0.00  0.00    +0.000 C 
ATOM     15  C   UNL     1      -7.175  12.368  20.501  0.00  0.00    +0.000 C 
ATOM     16  C   UNL     1      -7.749  11.777  21.768  0.00  0.00    +0.000 C 
ATOM     17  N   UNL     1      -7.045  13.730  20.569  0.00  0.00    +0.000 NA
ATOM     18  C   UNL     1      -6.573  14.321  19.522  0.00  0.00    +0.000 C 
ATOM     19  C   UNL     1      -6.398  15.822  19.553  0.00  0.00    +0.000 C 
ATOM     20  C   UNL     1      -6.153  13.577  18.277  0.00  0.00    +0.000 C 
BRANCH  14  21
ATOM     21  C   UNL     1      -6.946  10.138  19.454  0.00  0.00    +0.000 C 
ATOM     22  N   UNL     1      -7.077   8.884  19.477  0.00  0.00    +0.000 NA
ENDBRANCH  14  21
BRANCH  20  23
ATOM     23  C   UNL     1      -6.992  14.064  17.106  0.00  0.00    +0.000 C 
ATOM     24  N   UNL     1      -7.686  14.467  16.134  0.00  0.00    +0.000 NA
ENDBRANCH  20  23
ENDBRANCH   9  13
BRANCH   1  25
ATOM     25  C   UNL     1      -2.151  12.920  21.599  0.00  0.00    +0.000 C 
BRANCH  25  26
ATOM     26  C   UNL     1      -1.983  12.076  22.872  0.00  0.00    +0.000 C 
BRANCH  26  28
ATOM     27  C   UNL     1      -4.230  12.771  22.976  0.00  0.00    +0.000 C 
ATOM     28  O   UNL     1      -3.256  11.870  23.494  0.00  0.00    +0.000 OA
ENDBRANCH  26  28
ENDBRANCH  25  26
ENDBRANCH   1  25
TORSDOF 6
ENDMDL
MODEL 5
REMARK VINA RESULT:      -5.9      2.257      5.074
REMARK  Name = 
REMARK  10 active torsions:
REMARK  status: ('A' for Active; 'I' for Inactive)
REMARK    1  A    between atoms: C_1  and  O_2
REMARK    2  A    between atoms: O_2  and  C_3
REMARK    3  A    between atoms: C_3  and  C_4
REMARK    4  A    between atoms: C_4  and  N_5
REMARK    5  A    between atoms: N_5  and  C_6
REMARK    6  A    between atoms: C_13  and  C_14
REMARK    7  A    between atoms: C_15  and  C_16
REMARK    8  A    between atoms: C_18  and  C_19
REMARK    9  A    between atoms: C_21  and  C_22
REMARK   10  A    between atoms: C_23  and  C_24
REMARK                            x       y       z     vdW  Elec       q    Type
REMARK                         _______ _______ _______ _____ _____    ______ ____
ROOT
ATOM      1  N   UNL     1      -5.142  12.269  18.825  0.00  0.00    +0.000 N 
ATOM      2  C   UNL     1      -6.184  12.819  17.974  0.00  0.00    +0.000 C 
ATOM      3  C   UNL     1      -5.271  12.425  20.171  0.00  0.00    +0.000 A 
ATOM      4  N   UNL     1      -6.447  12.519  20.811  0.00  0.00    +0.000 NA
ATOM      5  N   UNL     1      -6.120  12.629  22.107  0.00  0.00    +0.000 N 
ATOM      6  C   UNL     1      -4.780  12.654  22.356  0.00  0.00    +0.000 A 
ATOM      7  C   UNL     1      -4.045  12.782  23.541  0.00  0.00    +0.000 A 
ATOM      8  C   UNL     1      -2.652  12.800  23.429  0.00  0.00    +0.000 A 
ATOM      9  C   UNL     1      -2.028  12.694  22.178  0.00  0.00    +0.000 A 
ATOM     10  C   UNL     1      -2.801  12.578  21.019  0.00  0.00    +0.000 A 
ATOM     11  C   UNL     1      -4.196  12.539  21.103  0.00  0.00    +0.000 A 
ATOM     12  H   UNL     1      -6.872  12.696  22.781  0.00  0.00    +0.000 HD
ENDROOT
BRANCH   9  13
ATOM     13  C   UNL     1      -0.530  12.723  21.977  0.00  0.00    +0.000 C 
ATOM     14  C   UNL     1      -0.009  11.507  21.398  0.00  0.00    +0.000 C 
ATOM     15  C   UNL     1       0.590  11.339  20.199  0.00  0.00    +0.000 C 
ATOM     16  C   UNL     1       1.009  10.003  19.629  0.00  0.00    +0.000 C 
ATOM     17  N   UNL     1       0.847  12.378  19.346  0.00  0.00    +0.000 NA
ATOM     18  C   UNL     1       0.531  13.560  19.760  0.00  0.00    +0.000 C 
ATOM     19  C   UNL     1       0.782  14.740  18.847  0.00  0.00    +0.000 C 
ATOM     20  C   UNL     1      -0.112  13.817  21.101  0.00  0.00    +0.000 C 
BRANCH  14  21
ATOM     21  C   UNL     1      -0.278  10.288  22.265  0.00  0.00    +0.000 C 
ATOM     22  N   UNL     1      -0.501   9.278  22.985  0.00  0.00    +0.000 NA
ENDBRANCH  14  21
BRANCH  20  23
ATOM     23  C   UNL     1       0.799  14.720  21.918  0.00  0.00    +0.000 C 
ATOM     24  N   UNL     1       1.554  15.468  22.596  0.00  0.00    +0.000 NA
ENDBRANCH  20  23
ENDBRANCH   9  13
BRANCH   1  25
ATOM     25  C   UNL     1      -4.026  11.576  18.175  0.00  0.00    +0.000 C 
BRANCH  25  26
ATOM     26  C   UNL     1      -4.282  11.293  16.686  0.00  0.00    +0.000 C 
BRANCH  26  28
ATOM     27  C   UNL     1      -3.165  10.321  14.857  0.00  0.00    +0.000 C 
ATOM     28  O   UNL     1      -3.037  11.174  15.990  0.00  0.00    +0.000 OA
ENDBRANCH  26  28
ENDBRANCH  25  26
ENDBRANCH   1  25
TORSDOF 6
ENDMDL
MODEL 6
REMARK VINA RESULT:      -5.9      2.338      6.123
REMARK  Name = 
REMARK  10 active torsions:
REMARK  status: ('A' for Active; 'I' for Inactive)
REMARK    1  A    between atoms: C_1  and  O_2
REMARK    2  A    between atoms: O_2  and  C_3
REMARK    3  A    between atoms: C_3  and  C_4
REMARK    4  A    between atoms: C_4  and  N_5
REMARK    5  A    between atoms: N_5  and  C_6
REMARK    6  A    between atoms: C_13  and  C_14
REMARK    7  A    between atoms: C_15  and  C_16
REMARK    8  A    between atoms: C_18  and  C_19
REMARK    9  A    between atoms: C_21  and  C_22
REMARK   10  A    between atoms: C_23  and  C_24
REMARK                            x       y       z     vdW  Elec       q    Type
REMARK                         _______ _______ _______ _____ _____    ______ ____
ROOT
ATOM      1  N   UNL     1      -0.409  12.259  20.911  0.00  0.00    +0.000 N 
ATOM      2  C   UNL     1       1.010  12.542  20.777  0.00  0.00    +0.000 C 
ATOM      3  C   UNL     1      -1.058  11.732  19.836  0.00  0.00    +0.000 A 
ATOM      4  N   UNL     1      -0.475  10.957  18.908  0.00  0.00    +0.000 NA
ATOM      5  N   UNL     1      -1.465  10.637  18.062  0.00  0.00    +0.000 N 
ATOM      6  C   UNL     1      -2.672  11.197  18.360  0.00  0.00    +0.000 A 
ATOM      7  C   UNL     1      -3.919  11.138  17.727  0.00  0.00    +0.000 A 
ATOM      8  C   UNL     1      -4.961  11.874  18.299  0.00  0.00    +0.000 A 
ATOM      9  C   UNL     1      -4.753  12.638  19.457  0.00  0.00    +0.000 A 
ATOM     10  C   UNL     1      -3.488  12.678  20.050  0.00  0.00    +0.000 A 
ATOM     11  C   UNL     1      -2.433  11.936  19.510  0.00  0.00    +0.000 A 
ATOM     12  H   UNL     1      -1.244  10.033  17.282  0.00  0.00    +0.000 HD
ENDROOT
BRANCH   9  13
ATOM     13  C   UNL     1      -5.825  13.472  20.121  0.00  0.00    +0.000 C 
ATOM     14  C   UNL     1      -6.326  12.888  21.342  0.00  0.00    +0.000 C 
ATOM     15  C   UNL     1      -6.230  13.367  22.602  0.00  0.00    +0.000 C 
ATOM     16  C   UNL     1      -6.693  12.631  23.838  0.00  0.00    +0.000 C 
ATOM     17  N   UNL     1      -5.654  14.575  22.894  0.00  0.00    +0.000 NA
ATOM     18  C   UNL     1      -5.241  15.278  21.893  0.00  0.00    +0.000 C 
ATOM     19  C   UNL     1      -4.585  16.614  22.166  0.00  0.00    +0.000 C 
ATOM     20  C   UNL     1      -5.348  14.813  20.461  0.00  0.00    +0.000 C 
BRANCH  14  21
ATOM     21  C   UNL     1      -6.956  11.524  21.119  0.00  0.00    +0.000 C 
ATOM     22  N   UNL     1      -7.479  10.391  20.935  0.00  0.00    +0.000 NA
ENDBRANCH  14  21
BRANCH  20  23
ATOM     23  C   UNL     1      -6.204  15.802  19.686  0.00  0.00    +0.000 C 
ATOM     24  N   UNL     1      -6.913  16.623  19.044  0.00  0.00    +0.000 NA
ENDBRANCH  20  23
ENDBRANCH   9  13
BRANCH   1  25
ATOM     25  C   UNL     1      -1.046  12.554  22.198  0.00  0.00    +0.000 C 
BRANCH  25  26
ATOM     26  C   UNL     1      -1.437  11.287  22.976  0.00  0.00    +0.000 C 
BRANCH  26  28
ATOM     27  C   UNL     1      -0.213   9.278  22.877  0.00  0.00    +0.000 C 
ATOM     28  O   UNL     1      -0.259  10.598  23.410  0.00  0.00    +0.000 OA
ENDBRANCH  26  28
ENDBRANCH  25  26
ENDBRANCH   1  25
TORSDOF 6
ENDMDL
MODEL 7
REMARK VINA RESULT:      -5.8      1.265      1.320
REMARK  Name = 
REMARK  10 active torsions:
REMARK  status: ('A' for Active; 'I' for Inactive)
REMARK    1  A    between atoms: C_1  and  O_2
REMARK    2  A    between atoms: O_2  and  C_3
REMARK    3  A    between atoms: C_3  and  C_4
REMARK    4  A    between atoms: C_4  and  N_5
REMARK    5  A    between atoms: N_5  and  C_6
REMARK    6  A    between atoms: C_13  and  C_14
REMARK    7  A    between atoms: C_15  and  C_16
REMARK    8  A    between atoms: C_18  and  C_19
REMARK    9  A    between atoms: C_21  and  C_22
REMARK   10  A    between atoms: C_23  and  C_24
REMARK                            x       y       z     vdW  Elec       q    Type
REMARK                         _______ _______ _______ _____ _____    ______ ____
ROOT
ATOM      1  N   UNL     1      -5.367  12.558  19.657  0.00  0.00    +0.000 N 
ATOM      2  C   UNL     1      -6.771  12.402  19.996  0.00  0.00    +0.000 C 
ATOM      3  C   UNL     1      -4.900  11.901  18.560  0.00  0.00    +0.000 A 
ATOM      4  N   UNL     1      -5.647  11.597  17.487  0.00  0.00    +0.000 NA
ATOM      5  N   UNL     1      -4.799  10.991  16.643  0.00  0.00    +0.000 N 
ATOM      6  C   UNL     1      -3.531  10.839  17.121  0.00  0.00    +0.000 A 
ATOM      7  C   UNL     1      -2.385  10.248  16.577  0.00  0.00    +0.000 A 
ATOM      8  C   UNL     1      -1.234  10.241  17.370  0.00  0.00    +0.000 A 
ATOM      9  C   UNL     1      -1.239  10.804  18.654  0.00  0.00    +0.000 A 
ATOM     10  C   UNL     1      -2.409  11.374  19.163  0.00  0.00    +0.000 A 
ATOM     11  C   UNL     1      -3.570  11.412  18.385  0.00  0.00    +0.000 A 
ATOM     12  H   UNL     1      -5.158  10.689  15.747  0.00  0.00    +0.000 HD
ENDROOT
BRANCH   9  13
ATOM     13  C   UNL     1      -0.039  10.818  19.575  0.00  0.00    +0.000 C 
ATOM     14  C   UNL     1       0.244  12.124  20.121  0.00  0.00    +0.000 C 
ATOM     15  C   UNL     1       0.195  12.521  21.411  0.00  0.00    +0.000 C 
ATOM     16  C   UNL     1       0.405  13.942  21.881  0.00  0.00    +0.000 C 
ATOM     17  N   UNL     1      -0.097  11.666  22.441  0.00  0.00    +0.000 NA
ATOM     18  C   UNL     1      -0.279  10.426  22.131  0.00  0.00    +0.000 C 
ATOM     19  C   UNL     1      -0.618   9.445  23.231  0.00  0.00    +0.000 C 
ATOM     20  C   UNL     1      -0.206   9.913  20.713  0.00  0.00    +0.000 C 
BRANCH  14  21
ATOM     21  C   UNL     1       0.548  13.152  19.044  0.00  0.00    +0.000 C 
ATOM     22  N   UNL     1       0.801  14.005  18.151  0.00  0.00    +0.000 NA
ENDBRANCH  14  21
BRANCH  20  23
ATOM     23  C   UNL     1       0.898   8.872  20.622  0.00  0.00    +0.000 C 
ATOM     24  N   UNL     1       1.813   8.008  20.547  0.00  0.00    +0.000 NA
ENDBRANCH  20  23
ENDBRANCH   9  13
BRANCH   1  25
ATOM     25  C   UNL     1      -4.549  13.421  20.515  0.00  0.00    +0.000 C 
BRANCH  25  26
ATOM     26  C   UNL     1      -5.156  14.819  20.711  0.00  0.00    +0.000 C 
BRANCH  26  28
ATOM     27  C   UNL     1      -4.499  15.609  22.829  0.00  0.00    +0.000 C 
ATOM     28  O   UNL     1      -5.543  14.996  22.079  0.00  0.00    +0.000 OA
ENDBRANCH  26  28
ENDBRANCH  25  26
ENDBRANCH   1  25
TORSDOF 6
ENDMDL
MODEL 8
REMARK VINA RESULT:      -5.8      1.042      1.345
REMARK  Name = 
REMARK  10 active torsions:
REMARK  status: ('A' for Active; 'I' for Inactive)
REMARK    1  A    between atoms: C_1  and  O_2
REMARK    2  A    between atoms: O_2  and  C_3
REMARK    3  A    between atoms: C_3  and  C_4
REMARK    4  A    between atoms: C_4  and  N_5
REMARK    5  A    between atoms: N_5  and  C_6
REMARK    6  A    between atoms: C_13  and  C_14
REMARK    7  A    between atoms: C_15  and  C_16
REMARK    8  A    between atoms: C_18  and  C_19
REMARK    9  A    between atoms: C_21  and  C_22
REMARK   10  A    between atoms: C_23  and  C_24
REMARK                            x       y       z     vdW  Elec       q    Type
REMARK                         _______ _______ _______ _____ _____    ______ ____
ROOT
ATOM      1  N   UNL     1      -5.961  12.426  20.385  0.00  0.00    +0.000 N 
ATOM      2  C   UNL     1      -7.285  12.027  20.833  0.00  0.00    +0.000 C 
ATOM      3  C   UNL     1      -5.579  12.066  19.129  0.00  0.00    +0.000 A 
ATOM      4  N   UNL     1      -6.426  11.888  18.103  0.00  0.00    +0.000 NA
ATOM      5  N   UNL     1      -5.639  11.575  17.063  0.00  0.00    +0.000 N 
ATOM      6  C   UNL     1      -4.310  11.495  17.358  0.00  0.00    +0.000 A 
ATOM      7  C   UNL     1      -3.191  11.175  16.580  0.00  0.00    +0.000 A 
ATOM      8  C   UNL     1      -1.951  11.158  17.224  0.00  0.00    +0.000 A 
ATOM      9  C   UNL     1      -1.844  11.448  18.592  0.00  0.00    +0.000 A 
ATOM     10  C   UNL     1      -2.989  11.751  19.334  0.00  0.00    +0.000 A 
ATOM     11  C   UNL     1      -4.240  11.795  18.711  0.00  0.00    +0.000 A 
ATOM     12  H   UNL     1      -6.080  11.414  16.167  0.00  0.00    +0.000 HD
ENDROOT
BRANCH   9  13
ATOM     13  C   UNL     1      -0.541  11.432  19.359  0.00  0.00    +0.000 C 
ATOM     14  C   UNL     1      -0.317  12.634  20.127  0.00  0.00    +0.000 C 
ATOM     15  C   UNL     1      -0.235  12.768  21.469  0.00  0.00    +0.000 C 
ATOM     16  C   UNL     1      -0.105  14.088  22.194  0.00  0.00    +0.000 C 
ATOM     17  N   UNL     1      -0.304  11.702  22.327  0.00  0.00    +0.000 NA
ATOM     18  C   UNL     1      -0.404  10.532  21.791  0.00  0.00    +0.000 C 
ATOM     19  C   UNL     1      -0.497   9.325  22.697  0.00  0.00    +0.000 C 
ATOM     20  C   UNL     1      -0.468  10.313  20.298  0.00  0.00    +0.000 C 
BRANCH  14  21
ATOM     21  C   UNL     1      -0.259  13.878  19.257  0.00  0.00    +0.000 C 
ATOM     22  N   UNL     1      -0.211  14.911  18.536  0.00  0.00    +0.000 NA
ENDBRANCH  14  21
BRANCH  20  23
ATOM     23  C   UNL     1       0.711   9.451  19.876  0.00  0.00    +0.000 C 
ATOM     24  N   UNL     1       1.690   8.738  19.525  0.00  0.00    +0.000 NA
ENDBRANCH  20  23
ENDBRANCH   9  13
BRANCH   1  25
ATOM     25  C   UNL     1      -5.130  13.197  21.314  0.00  0.00    +0.000 C 
BRANCH  25  26
ATOM     26  C   UNL     1      -4.909  14.647  20.855  0.00  0.00    +0.000 C 
BRANCH  26  28
ATOM     27  C   UNL     1      -6.195  16.489  21.560  0.00  0.00    +0.000 C 
ATOM     28  O   UNL     1      -6.168  15.322  20.745  0.00  0.00    +0.000 OA
ENDBRANCH  26  28
ENDBRANCH  25  26
ENDBRANCH   1  25
TORSDOF 6
ENDMDL
MODEL 9
REMARK VINA RESULT:      -5.8      2.876      6.901
REMARK  Name = 
REMARK  10 active torsions:
REMARK  status: ('A' for Active; 'I' for Inactive)
REMARK    1  A    between atoms: C_1  and  O_2
REMARK    2  A    between atoms: O_2  and  C_3
REMARK    3  A    between atoms: C_3  and  C_4
REMARK    4  A    between atoms: C_4  and  N_5
REMARK    5  A    between atoms: N_5  and  C_6
REMARK    6  A    between atoms: C_13  and  C_14
REMARK    7  A    between atoms: C_15  and  C_16
REMARK    8  A    between atoms: C_18  and  C_19
REMARK    9  A    between atoms: C_21  and  C_22
REMARK   10  A    between atoms: C_23  and  C_24
REMARK                            x       y       z     vdW  Elec       q    Type
REMARK                         _______ _______ _______ _____ _____    ______ ____
ROOT
ATOM      1  N   UNL     1      -1.810  11.425  18.354  0.00  0.00    +0.000 N 
ATOM      2  C   UNL     1      -0.852  10.365  18.089  0.00  0.00    +0.000 C 
ATOM      3  C   UNL     1      -1.524  12.307  19.351  0.00  0.00    +0.000 A 
ATOM      4  N   UNL     1      -0.281  12.647  19.724  0.00  0.00    +0.000 NA
ATOM      5  N   UNL     1      -0.454  13.550  20.701  0.00  0.00    +0.000 N 
ATOM      6  C   UNL     1      -1.756  13.797  21.024  0.00  0.00    +0.000 A 
ATOM      7  C   UNL     1      -2.346  14.629  21.982  0.00  0.00    +0.000 A 
ATOM      8  C   UNL     1      -3.741  14.617  22.065  0.00  0.00    +0.000 A 
ATOM      9  C   UNL     1      -4.507  13.801  21.219  0.00  0.00    +0.000 A 
ATOM     10  C   UNL     1      -3.875  12.976  20.284  0.00  0.00    +0.000 A 
ATOM     11  C   UNL     1      -2.482  12.982  20.166  0.00  0.00    +0.000 A 
ATOM     12  H   UNL     1       0.371  13.958  21.120  0.00  0.00    +0.000 HD
ENDROOT
BRANCH   9  13
ATOM     13  C   UNL     1      -6.016  13.722  21.262  0.00  0.00    +0.000 C 
ATOM     14  C   UNL     1      -6.644  14.154  20.036  0.00  0.00    +0.000 C 
ATOM     15  C   UNL     1      -7.382  13.426  19.170  0.00  0.00    +0.000 C 
ATOM     16  C   UNL     1      -7.913  13.940  17.851  0.00  0.00    +0.000 C 
ATOM     17  N   UNL     1      -7.695  12.111  19.385  0.00  0.00    +0.000 NA
ATOM     18  C   UNL     1      -7.291  11.593  20.497  0.00  0.00    +0.000 C 
ATOM     19  C   UNL     1      -7.599  10.138  20.774  0.00  0.00    +0.000 C 
ATOM     20  C   UNL     1      -6.490  12.362  21.520  0.00  0.00    +0.000 C 
BRANCH  14  21
ATOM     21  C   UNL     1      -6.324  15.601  19.697  0.00  0.00    +0.000 C 
ATOM     22  N   UNL     1      -6.059  16.801  19.416  0.00  0.00    +0.000 NA
ENDBRANCH  14  21
BRANCH  20  23
ATOM     23  C   UNL     1      -7.268  12.400  22.826  0.00  0.00    +0.000 C 
ATOM     24  N   UNL     1      -7.914  12.431  23.908  0.00  0.00    +0.000 NA
ENDBRANCH  20  23
ENDBRANCH   9  13
BRANCH   1  25
ATOM     25  C   UNL     1      -3.018  11.477  17.525  0.00  0.00    +0.000 C 
BRANCH  25  26
ATOM     26  C   UNL     1      -3.074  10.353  16.479  0.00  0.00    +0.000 C 
BRANCH  26  28
ATOM     27  C   UNL     1      -3.430  10.076  14.168  0.00  0.00    +0.000 C 
ATOM     28  O   UNL     1      -2.830  10.888  15.173  0.00  0.00    +0.000 OA
ENDBRANCH  26  28
ENDBRANCH  25  26
ENDBRANCH   1  25
TORSDOF 6
ENDMDL
