MODEL 1
REMARK VINA RESULT:      -6.3      0.000      0.000
REMARK  Name = 
REMARK  3 active torsions:
REMARK  status: ('A' for Active; 'I' for Inactive)
REMARK    1  A    between atoms: O_1  and  N_2
REMARK    2  A    between atoms: C_3  and  C_4
REMARK    3  A    between atoms: C_6  and  O_7
REMARK                            x       y       z     vdW  Elec       q    Type
REMARK                         _______ _______ _______ _____ _____    ______ ____
ROOT
ATOM      1  C   UNL     1       4.804   4.131  17.352  0.00  0.00    +0.000 A 
ATOM      2  N   UNL     1       5.097   3.861  16.052  0.00  0.00    +0.000 NA
ATOM      3  C   UNL     1       6.366   4.028  15.669  0.00  0.00    +0.000 A 
ATOM      4  N   UNL     1       7.416   4.426  16.393  0.00  0.00    +0.000 NA
ATOM      5  C   UNL     1       7.051   4.676  17.658  0.00  0.00    +0.000 A 
ATOM      6  O   UNL     1       7.877   5.095  18.656  0.00  0.00    +0.000 OA
ATOM      7  N   UNL     1       7.111   5.238  19.822  0.00  0.00    +0.000 NA
ATOM      8  N   UNL     1       5.855   4.909  19.528  0.00  0.00    +0.000 NA
ATOM      9  C   UNL     1       5.797   4.562  18.212  0.00  0.00    +0.000 A 
ENDROOT
BRANCH   1  11
ATOM     10  N   UNL     1       2.521   3.371  17.102  0.00  0.00    +0.000 NA
ATOM     11  C   UNL     1       3.436   3.928  17.831  0.00  0.00    +0.000 C 
BRANCH  10  12
ATOM     12  O   UNL     1       1.338   3.296  17.846  0.00  0.00    +0.000 OA
ATOM     13  H   UNL     1       1.665   3.069  18.737  0.00  0.00    +0.000 HD
ENDBRANCH  10  12
ENDBRANCH   1  11
BRANCH   3  14
ATOM     14  O   UNL     1       6.592   3.745  14.359  0.00  0.00    +0.000 OA
ATOM     15  H   UNL     1       5.720   3.391  14.112  0.00  0.00    +0.000 HD
ENDBRANCH   3  14
TORSDOF 3
ENDMDL
MODEL 2
REMARK VINA RESULT:      -6.1      1.491      3.799
REMARK  Name = 
REMARK  3 active torsions:
REMARK  status: ('A' for Active; 'I' for Inactive)
REMARK    1  A    between atoms: O_1  and  N_2
REMARK    2  A    between atoms: C_3  and  C_4
REMARK    3  A    between atoms: C_6  and  O_7
REMARK                            x       y       z     vdW  Elec       q    Type
REMARK                         _______ _______ _______ _____ _____    ______ ____
ROOT
ATOM      1  C   UNL     1       6.946   4.773  17.475  0.00  0.00    +0.000 A 
ATOM      2  N   UNL     1       7.493   5.105  16.276  0.00  0.00    +0.000 NA
ATOM      3  C   UNL     1       6.718   4.967  15.196  0.00  0.00    +0.000 A 
ATOM      4  N   UNL     1       5.453   4.544  15.119  0.00  0.00    +0.000 NA
ATOM      5  C   UNL     1       4.984   4.233  16.336  0.00  0.00    +0.000 A 
ATOM      6  O   UNL     1       3.731   3.776  16.611  0.00  0.00    +0.000 OA
ATOM      7  N   UNL     1       3.638   3.572  17.995  0.00  0.00    +0.000 NA
ATOM      8  N   UNL     1       4.809   3.904  18.536  0.00  0.00    +0.000 NA
ATOM      9  C   UNL     1       5.644   4.310  17.539  0.00  0.00    +0.000 A 
ENDROOT
BRANCH   1  11
ATOM     10  N   UNL     1       7.229   5.389  19.797  0.00  0.00    +0.000 NA
ATOM     11  C   UNL     1       7.740   4.942  18.692  0.00  0.00    +0.000 C 
BRANCH  10  12
ATOM     12  O   UNL     1       8.228   5.409  20.778  0.00  0.00    +0.000 OA
ATOM     13  H   UNL     1       8.916   4.839  20.386  0.00  0.00    +0.000 HD
ENDBRANCH  10  12
ENDBRANCH   1  11
BRANCH   3  14
ATOM     14  O   UNL     1       7.325   5.312  14.031  0.00  0.00    +0.000 OA
ATOM     15  H   UNL     1       6.778   4.811  13.401  0.00  0.00    +0.000 HD
ENDBRANCH   3  14
TORSDOF 3
ENDMDL
MODEL 3
REMARK VINA RESULT:      -6.0      1.617      3.208
REMARK  Name = 
REMARK  3 active torsions:
REMARK  status: ('A' for Active; 'I' for Inactive)
REMARK    1  A    between atoms: O_1  and  N_2
REMARK    2  A    between atoms: C_3  and  C_4
REMARK    3  A    between atoms: C_6  and  O_7
REMARK                            x       y       z     vdW  Elec       q    Type
REMARK                         _______ _______ _______ _____ _____    ______ ____
ROOT
ATOM      1  C   UNL     1       5.333   4.529  18.147  0.00  0.00    +0.000 A 
ATOM      2  N   UNL     1       6.003   4.713  19.315  0.00  0.00    +0.000 NA
ATOM      3  C   UNL     1       7.160   5.378  19.251  0.00  0.00    +0.000 A 
ATOM      4  N   UNL     1       7.768   5.906  18.185  0.00  0.00    +0.000 NA
ATOM      5  C   UNL     1       7.053   5.682  17.074  0.00  0.00    +0.000 A 
ATOM      6  O   UNL     1       7.387   6.089  15.818  0.00  0.00    +0.000 OA
ATOM      7  N   UNL     1       6.380   5.660  14.941  0.00  0.00    +0.000 NA
ATOM      8  N   UNL     1       5.463   5.013  15.657  0.00  0.00    +0.000 NA
ATOM      9  C   UNL     1       5.855   5.015  16.963  0.00  0.00    +0.000 A 
ENDROOT
BRANCH   1  11
ATOM     10  N   UNL     1       3.898   2.623  17.742  0.00  0.00    +0.000 NA
ATOM     11  C   UNL     1       4.042   3.839  18.166  0.00  0.00    +0.000 C 
BRANCH  10  12
ATOM     12  O   UNL     1       2.563   2.241  17.916  0.00  0.00    +0.000 OA
ATOM     13  H   UNL     1       2.078   3.013  17.570  0.00  0.00    +0.000 HD
ENDBRANCH  10  12
ENDBRANCH   1  11
BRANCH   3  14
ATOM     14  O   UNL     1       7.781   5.525  20.451  0.00  0.00    +0.000 OA
ATOM     15  H   UNL     1       8.573   4.980  20.298  0.00  0.00    +0.000 HD
ENDBRANCH   3  14
TORSDOF 3
ENDMDL
MODEL 4
REMARK VINA RESULT:      -6.0      1.445      3.742
REMARK  Name = 
REMARK  3 active torsions:
REMARK  status: ('A' for Active; 'I' for Inactive)
REMARK    1  A    between atoms: O_1  and  N_2
REMARK    2  A    between atoms: C_3  and  C_4
REMARK    3  A    between atoms: C_6  and  O_7
REMARK                            x       y       z     vdW  Elec       q    Type
REMARK                         _______ _______ _______ _____ _____    ______ ____
ROOT
ATOM      1  C   UNL     1       6.005   4.341  16.474  0.00  0.00    +0.000 A 
ATOM      2  N   UNL     1       4.726   3.896  16.360  0.00  0.00    +0.000 NA
ATOM      3  C   UNL     1       4.007   3.824  17.484  0.00  0.00    +0.000 A 
ATOM      4  N   UNL     1       4.366   4.137  18.732  0.00  0.00    +0.000 NA
ATOM      5  C   UNL     1       5.637   4.563  18.766  0.00  0.00    +0.000 A 
ATOM      6  O   UNL     1       6.311   4.963  19.880  0.00  0.00    +0.000 OA
ATOM      7  N   UNL     1       7.607   5.332  19.491  0.00  0.00    +0.000 NA
ATOM      8  N   UNL     1       7.704   5.159  18.175  0.00  0.00    +0.000 NA
ATOM      9  C   UNL     1       6.511   4.690  17.713  0.00  0.00    +0.000 A 
ENDROOT
BRANCH   1  11
ATOM     10  N   UNL     1       7.356   5.601  14.912  0.00  0.00    +0.000 NA
ATOM     11  C   UNL     1       6.824   4.474  15.269  0.00  0.00    +0.000 C 
BRANCH  10  12
ATOM     12  O   UNL     1       8.096   5.398  13.741  0.00  0.00    +0.000 OA
ATOM     13  H   UNL     1       7.841   4.491  13.488  0.00  0.00    +0.000 HD
ENDBRANCH  10  12
ENDBRANCH   1  11
BRANCH   3  14
ATOM     14  O   UNL     1       2.739   3.370  17.303  0.00  0.00    +0.000 OA
ATOM     15  H   UNL     1       2.373   3.533  18.189  0.00  0.00    +0.000 HD
ENDBRANCH   3  14
TORSDOF 3
ENDMDL
MODEL 5
REMARK VINA RESULT:      -6.0      1.396      3.465
REMARK  Name = 
REMARK  3 active torsions:
REMARK  status: ('A' for Active; 'I' for Inactive)
REMARK    1  A    between atoms: O_1  and  N_2
REMARK    2  A    between atoms: C_3  and  C_4
REMARK    3  A    between atoms: C_6  and  O_7
REMARK                            x       y       z     vdW  Elec       q    Type
REMARK                         _______ _______ _______ _____ _____    ______ ____
ROOT
ATOM      1  C   UNL     1       5.526   4.305  16.884  0.00  0.00    +0.000 A 
ATOM      2  N   UNL     1       4.196   4.539  17.029  0.00  0.00    +0.000 NA
ATOM      3  C   UNL     1       3.800   5.094  18.179  0.00  0.00    +0.000 A 
ATOM      4  N   UNL     1       4.537   5.465  19.230  0.00  0.00    +0.000 NA
ATOM      5  C   UNL     1       5.834   5.200  19.015  0.00  0.00    +0.000 A 
ATOM      6  O   UNL     1       6.852   5.458  19.882  0.00  0.00    +0.000 OA
ATOM      7  N   UNL     1       8.048   5.036  19.283  0.00  0.00    +0.000 NA
ATOM      8  N   UNL     1       7.752   4.540  18.084  0.00  0.00    +0.000 NA
ATOM      9  C   UNL     1       6.404   4.631  17.900  0.00  0.00    +0.000 A 
ENDROOT
BRANCH   1  11
ATOM     10  N   UNL     1       5.679   4.210  14.471  0.00  0.00    +0.000 NA
ATOM     11  C   UNL     1       6.016   3.733  15.628  0.00  0.00    +0.000 C 
BRANCH  10  12
ATOM     12  O   UNL     1       6.327   3.471  13.474  0.00  0.00    +0.000 OA
ATOM     13  H   UNL     1       5.933   3.832  12.658  0.00  0.00    +0.000 HD
ENDBRANCH  10  12
ENDBRANCH   1  11
BRANCH   3  14
ATOM     14  O   UNL     1       2.459   5.298  18.263  0.00  0.00    +0.000 OA
ATOM     15  H   UNL     1       2.153   4.378  18.335  0.00  0.00    +0.000 HD
ENDBRANCH   3  14
TORSDOF 3
ENDMDL
MODEL 6
REMARK VINA RESULT:      -6.0      1.472      4.460
REMARK  Name = 
REMARK  3 active torsions:
REMARK  status: ('A' for Active; 'I' for Inactive)
REMARK    1  A    between atoms: O_1  and  N_2
REMARK    2  A    between atoms: C_3  and  C_4
REMARK    3  A    between atoms: C_6  and  O_7
REMARK                            x       y       z     vdW  Elec       q    Type
REMARK                         _______ _______ _______ _____ _____    ______ ____
ROOT
ATOM      1  C   UNL     1       6.471   4.756  17.047  0.00  0.00    +0.000 A 
ATOM      2  N   UNL     1       7.343   5.187  17.997  0.00  0.00    +0.000 NA
ATOM      3  C   UNL     1       6.924   5.150  19.265  0.00  0.00    +0.000 A 
ATOM      4  N   UNL     1       5.749   4.739  19.750  0.00  0.00    +0.000 NA
ATOM      5  C   UNL     1       4.944   4.333  18.757  0.00  0.00    +0.000 A 
ATOM      6  O   UNL     1       3.679   3.851  18.907  0.00  0.00    +0.000 OA
ATOM      7  N   UNL     1       3.181   3.538  17.634  0.00  0.00    +0.000 NA
ATOM      8  N   UNL     1       4.129   3.824  16.743  0.00  0.00    +0.000 NA
ATOM      9  C   UNL     1       5.213   4.311  17.409  0.00  0.00    +0.000 A 
ENDROOT
BRANCH   1  11
ATOM     10  N   UNL     1       7.634   5.673  15.134  0.00  0.00    +0.000 NA
ATOM     11  C   UNL     1       6.894   4.740  15.646  0.00  0.00    +0.000 C 
BRANCH  10  12
ATOM     12  O   UNL     1       7.888   5.361  13.793  0.00  0.00    +0.000 OA
ATOM     13  H   UNL     1       7.835   4.386  13.793  0.00  0.00    +0.000 HD
ENDBRANCH  10  12
ENDBRANCH   1  11
BRANCH   3  14
ATOM     14  O   UNL     1       7.839   5.598  20.164  0.00  0.00    +0.000 OA
ATOM     15  H   UNL     1       8.656   5.278  19.745  0.00  0.00    +0.000 HD
ENDBRANCH   3  14
TORSDOF 3
ENDMDL
MODEL 7
REMARK VINA RESULT:      -5.9      1.352      4.273
REMARK  Name = 
REMARK  3 active torsions:
REMARK  status: ('A' for Active; 'I' for Inactive)
REMARK    1  A    between atoms: O_1  and  N_2
REMARK    2  A    between atoms: C_3  and  C_4
REMARK    3  A    between atoms: C_6  and  O_7
REMARK                            x       y       z     vdW  Elec       q    Type
REMARK                         _______ _______ _______ _____ _____    ______ ____
ROOT
ATOM      1  C   UNL     1       6.314   4.732  17.690  0.00  0.00    +0.000 A 
ATOM      2  N   UNL     1       5.140   4.175  18.088  0.00  0.00    +0.000 NA
ATOM      3  C   UNL     1       4.281   3.820  17.127  0.00  0.00    +0.000 A 
ATOM      4  N   UNL     1       4.411   3.930  15.802  0.00  0.00    +0.000 NA
ATOM      5  C   UNL     1       5.589   4.490  15.487  0.00  0.00    +0.000 A 
ATOM      6  O   UNL     1       6.037   4.741  14.226  0.00  0.00    +0.000 OA
ATOM      7  N   UNL     1       7.307   5.327  14.327  0.00  0.00    +0.000 NA
ATOM      8  N   UNL     1       7.612   5.421  15.619  0.00  0.00    +0.000 NA
ATOM      9  C   UNL     1       6.576   4.915  16.345  0.00  0.00    +0.000 A 
ENDROOT
BRANCH   1  11
ATOM     10  N   UNL     1       7.023   5.150  19.965  0.00  0.00    +0.000 NA
ATOM     11  C   UNL     1       7.305   5.104  18.701  0.00  0.00    +0.000 C 
BRANCH  10  12
ATOM     12  O   UNL     1       8.178   5.508  20.671  0.00  0.00    +0.000 OA
ATOM     13  H   UNL     1       8.488   4.648  21.013  0.00  0.00    +0.000 HD
ENDBRANCH  10  12
ENDBRANCH   1  11
BRANCH   3  14
ATOM     14  O   UNL     1       3.127   3.274  17.590  0.00  0.00    +0.000 OA
ATOM     15  H   UNL     1       3.087   2.473  17.039  0.00  0.00    +0.000 HD
ENDBRANCH   3  14
TORSDOF 3
ENDMDL
MODEL 8
REMARK VINA RESULT:      -5.8      1.074      1.074
REMARK  Name = 
REMARK  3 active torsions:
REMARK  status: ('A' for Active; 'I' for Inactive)
REMARK    1  A    between atoms: O_1  and  N_2
REMARK    2  A    between atoms: C_3  and  C_4
REMARK    3  A    between atoms: C_6  and  O_7
REMARK                            x       y       z     vdW  Elec       q    Type
REMARK                         _______ _______ _______ _____ _____    ______ ____
ROOT
ATOM      1  C   UNL     1       5.147   4.447  17.311  0.00  0.00    +0.000 A 
ATOM      2  N   UNL     1       5.364   4.622  15.981  0.00  0.00    +0.000 NA
ATOM      3  C   UNL     1       6.494   5.242  15.627  0.00  0.00    +0.000 A 
ATOM      4  N   UNL     1       7.467   5.723  16.406  0.00  0.00    +0.000 NA
ATOM      5  C   UNL     1       7.182   5.518  17.700  0.00  0.00    +0.000 A 
ATOM      6  O   UNL     1       7.965   5.882  18.753  0.00  0.00    +0.000 OA
ATOM      7  N   UNL     1       7.315   5.488  19.932  0.00  0.00    +0.000 NA
ATOM      8  N   UNL     1       6.171   4.899  19.591  0.00  0.00    +0.000 NA
ATOM      9  C   UNL     1       6.071   4.907  18.232  0.00  0.00    +0.000 A 
ENDROOT
BRANCH   1  11
ATOM     10  N   UNL     1       3.842   2.449  17.707  0.00  0.00    +0.000 NA
ATOM     11  C   UNL     1       3.943   3.741  17.751  0.00  0.00    +0.000 C 
BRANCH  10  12
ATOM     12  O   UNL     1       2.592   2.079  18.217  0.00  0.00    +0.000 OA
ATOM     13  H   UNL     1       2.835   1.542  18.995  0.00  0.00    +0.000 HD
ENDBRANCH  10  12
ENDBRANCH   1  11
BRANCH   3  14
ATOM     14  O   UNL     1       6.648   5.389  14.285  0.00  0.00    +0.000 OA
ATOM     15  H   UNL     1       5.889   5.965  14.091  0.00  0.00    +0.000 HD
ENDBRANCH   3  14
TORSDOF 3
ENDMDL
MODEL 9
REMARK VINA RESULT:      -5.8      2.710      4.690
REMARK  Name = 
REMARK  3 active torsions:
REMARK  status: ('A' for Active; 'I' for Inactive)
REMARK    1  A    between atoms: O_1  and  N_2
REMARK    2  A    between atoms: C_3  and  C_4
REMARK    3  A    between atoms: C_6  and  O_7
REMARK                            x       y       z     vdW  Elec       q    Type
REMARK                         _______ _______ _______ _____ _____    ______ ____
ROOT
ATOM      1  C   UNL     1       3.533   2.559  19.628  0.00  0.00    +0.000 A 
ATOM      2  N   UNL     1       2.268   2.082  19.488  0.00  0.00    +0.000 NA
ATOM      3  C   UNL     1       1.592   2.466  18.400  0.00  0.00    +0.000 A 
ATOM      4  N   UNL     1       1.987   3.264  17.405  0.00  0.00    +0.000 NA
ATOM      5  C   UNL     1       3.239   3.697  17.614  0.00  0.00    +0.000 A 
ATOM      6  O   UNL     1       3.943   4.522  16.790  0.00  0.00    +0.000 OA
ATOM      7  N   UNL     1       5.205   4.732  17.363  0.00  0.00    +0.000 NA
ATOM      8  N   UNL     1       5.256   4.046  18.502  0.00  0.00    +0.000 NA
ATOM      9  C   UNL     1       4.065   3.406  18.674  0.00  0.00    +0.000 A 
ENDROOT
BRANCH   1  11
ATOM     10  N   UNL     1       5.300   1.286  20.682  0.00  0.00    +0.000 NA
ATOM     11  C   UNL     1       4.329   2.139  20.782  0.00  0.00    +0.000 C 
BRANCH  10  12
ATOM     12  O   UNL     1       5.879   1.114  21.944  0.00  0.00    +0.000 OA
ATOM     13  H   UNL     1       5.198   1.483  22.538  0.00  0.00    +0.000 HD
ENDBRANCH  10  12
ENDBRANCH   1  11
BRANCH   3  14
ATOM     14  O   UNL     1       0.335   1.958  18.321  0.00  0.00    +0.000 OA
ATOM     15  H   UNL     1      -0.085   2.434  19.058  0.00  0.00    +0.000 HD
ENDBRANCH   3  14
TORSDOF 3
ENDMDL
