MODEL 1
REMARK VINA RESULT:      -8.1      0.000      0.000
REMARK  Name = 
REMARK  7 active torsions:
REMARK  status: ('A' for Active; 'I' for Inactive)
REMARK    1  A    between atoms: C_2  and  C_3
REMARK    2  A    between atoms: C_3  and  N_4
REMARK    3  A    between atoms: N_18  and  N_19
REMARK    4  A    between atoms: N_19  and  C_20
REMARK    5  A    between atoms: C_20  and  N_22
REMARK    6  A    between atoms: N_22  and  C_23
REMARK    7  A    between atoms: C_23  and  C_24
REMARK                            x       y       z     vdW  Elec       q    Type
REMARK                         _______ _______ _______ _____ _____    ______ ____
ROOT
ATOM      1  O   UNL     1       2.404   8.620  17.156  0.00  0.00    +0.000 OA
ATOM      2  C   UNL     1       1.985   8.809  18.295  0.00  0.00    +0.000 C 
ATOM      3  N   UNL     1       1.899   7.789  19.236  0.00  0.00    +0.000 N 
ATOM      4  H   UNL     1       1.493   7.944  20.158  0.00  0.00    +0.000 HD
ENDROOT
BRANCH   3   5
ATOM      5  N   UNL     1       1.991   6.447  18.830  0.00  0.00    +0.000 N 
ATOM      6  H   UNL     1       1.810   6.260  17.847  0.00  0.00    +0.000 HD
BRANCH   5   7
ATOM      7  C   UNL     1       2.301   5.468  19.762  0.00  0.00    +0.000 C 
ATOM      8  S   UNL     1       1.141   4.443  20.416  0.00  0.00    +0.000 S 
BRANCH   7   9
ATOM      9  N   UNL     1       3.653   5.412  20.033  0.00  0.00    +0.000 N 
ATOM     10  H   UNL     1       4.047   6.210  20.509  0.00  0.00    +0.000 HD
BRANCH   9  11
ATOM     11  C   UNL     1       4.628   4.613  19.295  0.00  0.00    +0.000 C 
BRANCH  11  12
ATOM     12  C   UNL     1       5.682   5.506  18.682  0.00  0.00    +0.000 A 
ATOM     13  C   UNL     1       6.969   5.571  19.232  0.00  0.00    +0.000 A 
ATOM     14  C   UNL     1       7.923   6.424  18.688  0.00  0.00    +0.000 A 
ATOM     15  C   UNL     1       7.604   7.238  17.599  0.00  0.00    +0.000 A 
ATOM     16  C   UNL     1       6.329   7.190  17.048  0.00  0.00    +0.000 A 
ATOM     17  C   UNL     1       5.374   6.328  17.585  0.00  0.00    +0.000 A 
ENDBRANCH  11  12
ENDBRANCH   9  11
ENDBRANCH   7   9
ENDBRANCH   5   7
ENDBRANCH   3   5
BRANCH   2  18
ATOM     18  C   UNL     1       1.432  10.154  18.788  0.00  0.00    +0.000 C 
BRANCH  18  19
ATOM     19  N   UNL     1       0.047  10.086  19.311  0.00  0.00    +0.000 N 
ATOM     20  C   UNL     1      -0.987  10.407  18.400  0.00  0.00    +0.000 A 
ATOM     21  C   UNL     1      -1.108   9.695  17.193  0.00  0.00    +0.000 A 
ATOM     22  C   UNL     1      -2.213   9.874  16.355  0.00  0.00    +0.000 A 
ATOM     23  C   UNL     1      -3.209  10.782  16.699  0.00  0.00    +0.000 A 
ATOM     24  C   UNL     1      -3.100  11.511  17.882  0.00  0.00    +0.000 A 
ATOM     25  C   UNL     1      -2.007  11.316  18.738  0.00  0.00    +0.000 A 
ATOM     26  S   UNL     1      -1.957  12.244  20.264  0.00  0.00    +0.000 S 
ATOM     27  C   UNL     1      -1.029  11.101  21.279  0.00  0.00    +0.000 A 
ATOM     28  C   UNL     1      -1.231  11.139  22.666  0.00  0.00    +0.000 A 
ATOM     29  C   UNL     1      -0.565  10.241  23.497  0.00  0.00    +0.000 A 
ATOM     30  C   UNL     1       0.312   9.311  22.950  0.00  0.00    +0.000 A 
ATOM     31  C   UNL     1       0.537   9.287  21.572  0.00  0.00    +0.000 A 
ATOM     32  C   UNL     1      -0.121  10.185  20.713  0.00  0.00    +0.000 A 
ENDBRANCH  18  19
ENDBRANCH   2  18
TORSDOF 7
ENDMDL
MODEL 2
REMARK VINA RESULT:      -8.1      2.397      4.506
REMARK  Name = 
REMARK  7 active torsions:
REMARK  status: ('A' for Active; 'I' for Inactive)
REMARK    1  A    between atoms: C_2  and  C_3
REMARK    2  A    between atoms: C_3  and  N_4
REMARK    3  A    between atoms: N_18  and  N_19
REMARK    4  A    between atoms: N_19  and  C_20
REMARK    5  A    between atoms: C_20  and  N_22
REMARK    6  A    between atoms: N_22  and  C_23
REMARK    7  A    between atoms: C_23  and  C_24
REMARK                            x       y       z     vdW  Elec       q    Type
REMARK                         _______ _______ _______ _____ _____    ______ ____
ROOT
ATOM      1  O   UNL     1       1.972   9.180  17.107  0.00  0.00    +0.000 OA
ATOM      2  C   UNL     1       1.863   8.917  18.301  0.00  0.00    +0.000 C 
ATOM      3  N   UNL     1       2.373   7.750  18.856  0.00  0.00    +0.000 N 
ATOM      4  H   UNL     1       2.224   7.513  19.837  0.00  0.00    +0.000 HD
ENDROOT
BRANCH   3   5
ATOM      5  N   UNL     1       2.756   6.683  18.025  0.00  0.00    +0.000 N 
ATOM      6  H   UNL     1       2.007   6.209  17.528  0.00  0.00    +0.000 HD
BRANCH   5   7
ATOM      7  C   UNL     1       4.094   6.328  17.938  0.00  0.00    +0.000 C 
ATOM      8  S   UNL     1       5.033   6.670  16.587  0.00  0.00    +0.000 S 
BRANCH   7   9
ATOM      9  N   UNL     1       4.553   5.728  19.093  0.00  0.00    +0.000 N 
ATOM     10  H   UNL     1       5.216   6.258  19.639  0.00  0.00    +0.000 HD
BRANCH   9  11
ATOM     11  C   UNL     1       4.592   4.288  19.336  0.00  0.00    +0.000 C 
BRANCH  11  12
ATOM     12  C   UNL     1       3.189   3.738  19.454  0.00  0.00    +0.000 A 
ATOM     13  C   UNL     1       2.386   4.065  20.555  0.00  0.00    +0.000 A 
ATOM     14  C   UNL     1       1.110   3.526  20.678  0.00  0.00    +0.000 A 
ATOM     15  C   UNL     1       0.621   2.640  19.716  0.00  0.00    +0.000 A 
ATOM     16  C   UNL     1       1.410   2.301  18.622  0.00  0.00    +0.000 A 
ATOM     17  C   UNL     1       2.685   2.849  18.491  0.00  0.00    +0.000 A 
ENDBRANCH  11  12
ENDBRANCH   9  11
ENDBRANCH   7   9
ENDBRANCH   5   7
ENDBRANCH   3   5
BRANCH   2  18
ATOM     18  C   UNL     1       1.087   9.790  19.299  0.00  0.00    +0.000 C 
BRANCH  18  19
ATOM     19  N   UNL     1       0.410  10.956  18.685  0.00  0.00    +0.000 N 
ATOM     20  C   UNL     1       1.050  12.208  18.836  0.00  0.00    +0.000 A 
ATOM     21  C   UNL     1       2.371  12.384  18.385  0.00  0.00    +0.000 A 
ATOM     22  C   UNL     1       2.968  13.647  18.367  0.00  0.00    +0.000 A 
ATOM     23  C   UNL     1       2.262  14.758  18.818  0.00  0.00    +0.000 A 
ATOM     24  C   UNL     1       0.959  14.605  19.286  0.00  0.00    +0.000 A 
ATOM     25  C   UNL     1       0.347  13.344  19.281  0.00  0.00    +0.000 A 
ATOM     26  S   UNL     1      -1.345  13.227  19.844  0.00  0.00    +0.000 S 
ATOM     27  C   UNL     1      -1.887  11.823  18.879  0.00  0.00    +0.000 A 
ATOM     28  C   UNL     1      -3.250  11.726  18.567  0.00  0.00    +0.000 A 
ATOM     29  C   UNL     1      -3.716  10.675  17.780  0.00  0.00    +0.000 A 
ATOM     30  C   UNL     1      -2.828   9.713  17.312  0.00  0.00    +0.000 A 
ATOM     31  C   UNL     1      -1.473   9.791  17.643  0.00  0.00    +0.000 A 
ATOM     32  C   UNL     1      -0.979  10.840  18.438  0.00  0.00    +0.000 A 
ENDBRANCH  18  19
ENDBRANCH   2  18
TORSDOF 7
ENDMDL
MODEL 3
REMARK VINA RESULT:      -8.1      1.010      1.351
REMARK  Name = 
REMARK  7 active torsions:
REMARK  status: ('A' for Active; 'I' for Inactive)
REMARK    1  A    between atoms: C_2  and  C_3
REMARK    2  A    between atoms: C_3  and  N_4
REMARK    3  A    between atoms: N_18  and  N_19
REMARK    4  A    between atoms: N_19  and  C_20
REMARK    5  A    between atoms: C_20  and  N_22
REMARK    6  A    between atoms: N_22  and  C_23
REMARK    7  A    between atoms: C_23  and  C_24
REMARK                            x       y       z     vdW  Elec       q    Type
REMARK                         _______ _______ _______ _____ _____    ______ ____
ROOT
ATOM      1  O   UNL     1       2.266   8.758  17.122  0.00  0.00    +0.000 OA
ATOM      2  C   UNL     1       1.907   8.955  18.279  0.00  0.00    +0.000 C 
ATOM      3  N   UNL     1       1.917   7.954  19.243  0.00  0.00    +0.000 N 
ATOM      4  H   UNL     1       1.560   8.113  20.185  0.00  0.00    +0.000 HD
ENDROOT
BRANCH   3   5
ATOM      5  N   UNL     1       2.039   6.607  18.860  0.00  0.00    +0.000 N 
ATOM      6  H   UNL     1       1.717   6.375  17.924  0.00  0.00    +0.000 HD
BRANCH   5   7
ATOM      7  C   UNL     1       2.563   5.685  19.753  0.00  0.00    +0.000 C 
ATOM      8  S   UNL     1       1.594   4.641  20.646  0.00  0.00    +0.000 S 
BRANCH   7   9
ATOM      9  N   UNL     1       3.943   5.697  19.769  0.00  0.00    +0.000 N 
ATOM     10  H   UNL     1       4.381   6.603  19.860  0.00  0.00    +0.000 HD
BRANCH   9  11
ATOM     11  C   UNL     1       4.802   4.672  19.183  0.00  0.00    +0.000 C 
BRANCH  11  12
ATOM     12  C   UNL     1       5.019   4.947  17.713  0.00  0.00    +0.000 A 
ATOM     13  C   UNL     1       5.279   3.897  16.823  0.00  0.00    +0.000 A 
ATOM     14  C   UNL     1       5.515   4.159  15.478  0.00  0.00    +0.000 A 
ATOM     15  C   UNL     1       5.514   5.472  15.003  0.00  0.00    +0.000 A 
ATOM     16  C   UNL     1       5.265   6.525  15.876  0.00  0.00    +0.000 A 
ATOM     17  C   UNL     1       5.016   6.263  17.223  0.00  0.00    +0.000 A 
ENDBRANCH  11  12
ENDBRANCH   9  11
ENDBRANCH   7   9
ENDBRANCH   5   7
ENDBRANCH   3   5
BRANCH   2  18
ATOM     18  C   UNL     1       1.331  10.288  18.777  0.00  0.00    +0.000 C 
BRANCH  18  19
ATOM     19  N   UNL     1      -0.051  10.194  19.302  0.00  0.00    +0.000 N 
ATOM     20  C   UNL     1      -1.093  10.493  18.394  0.00  0.00    +0.000 A 
ATOM     21  C   UNL     1      -1.203   9.777  17.187  0.00  0.00    +0.000 A 
ATOM     22  C   UNL     1      -2.312   9.933  16.352  0.00  0.00    +0.000 A 
ATOM     23  C   UNL     1      -3.325  10.821  16.696  0.00  0.00    +0.000 A 
ATOM     24  C   UNL     1      -3.229  11.554  17.878  0.00  0.00    +0.000 A 
ATOM     25  C   UNL     1      -2.131  11.382  18.732  0.00  0.00    +0.000 A 
ATOM     26  S   UNL     1      -2.096  12.313  20.257  0.00  0.00    +0.000 S 
ATOM     27  C   UNL     1      -1.143  11.191  21.271  0.00  0.00    +0.000 A 
ATOM     28  C   UNL     1      -1.343  11.227  22.658  0.00  0.00    +0.000 A 
ATOM     29  C   UNL     1      -0.658  10.344  23.490  0.00  0.00    +0.000 A 
ATOM     30  C   UNL     1       0.236   9.430  22.942  0.00  0.00    +0.000 A 
ATOM     31  C   UNL     1       0.459   9.408  21.564  0.00  0.00    +0.000 A 
ATOM     32  C   UNL     1      -0.218  10.292  20.705  0.00  0.00    +0.000 A 
ENDBRANCH  18  19
ENDBRANCH   2  18
TORSDOF 7
ENDMDL
MODEL 4
REMARK VINA RESULT:      -7.9      1.963      8.513
REMARK  Name = 
REMARK  7 active torsions:
REMARK  status: ('A' for Active; 'I' for Inactive)
REMARK    1  A    between atoms: C_2  and  C_3
REMARK    2  A    between atoms: C_3  and  N_4
REMARK    3  A    between atoms: N_18  and  N_19
REMARK    4  A    between atoms: N_19  and  C_20
REMARK    5  A    between atoms: C_20  and  N_22
REMARK    6  A    between atoms: N_22  and  C_23
REMARK    7  A    between atoms: C_23  and  C_24
REMARK                            x       y       z     vdW  Elec       q    Type
REMARK                         _______ _______ _______ _____ _____    ______ ____
ROOT
ATOM      1  O   UNL     1       2.298   7.204  17.777  0.00  0.00    +0.000 OA
ATOM      2  C   UNL     1       2.497   7.340  18.981  0.00  0.00    +0.000 C 
ATOM      3  N   UNL     1       1.747   8.205  19.768  0.00  0.00    +0.000 N 
ATOM      4  H   UNL     1       1.961   8.355  20.754  0.00  0.00    +0.000 HD
ENDROOT
BRANCH   3   5
ATOM      5  N   UNL     1       0.943   9.188  19.165  0.00  0.00    +0.000 N 
ATOM      6  H   UNL     1       0.948   9.212  18.149  0.00  0.00    +0.000 HD
BRANCH   5   7
ATOM      7  C   UNL     1       0.215  10.061  19.960  0.00  0.00    +0.000 C 
ATOM      8  S   UNL     1       0.139   9.911  21.632  0.00  0.00    +0.000 S 
BRANCH   7   9
ATOM      9  N   UNL     1      -0.373  11.070  19.226  0.00  0.00    +0.000 N 
ATOM     10  H   UNL     1       0.245  11.790  18.879  0.00  0.00    +0.000 HD
BRANCH   9  11
ATOM     11  C   UNL     1      -1.773  11.478  19.323  0.00  0.00    +0.000 C 
BRANCH  11  12
ATOM     12  C   UNL     1      -2.514  11.111  18.059  0.00  0.00    +0.000 A 
ATOM     13  C   UNL     1      -1.905  10.312  17.082  0.00  0.00    +0.000 A 
ATOM     14  C   UNL     1      -2.577  10.008  15.903  0.00  0.00    +0.000 A 
ATOM     15  C   UNL     1      -3.860  10.510  15.672  0.00  0.00    +0.000 A 
ATOM     16  C   UNL     1      -4.474  11.311  16.629  0.00  0.00    +0.000 A 
ATOM     17  C   UNL     1      -3.806  11.607  17.816  0.00  0.00    +0.000 A 
ENDBRANCH  11  12
ENDBRANCH   9  11
ENDBRANCH   7   9
ENDBRANCH   5   7
ENDBRANCH   3   5
BRANCH   2  18
ATOM     18  C   UNL     1       3.637   6.645  19.740  0.00  0.00    +0.000 C 
BRANCH  18  19
ATOM     19  N   UNL     1       3.888   5.249  19.310  0.00  0.00    +0.000 N 
ATOM     20  C   UNL     1       4.895   5.060  18.335  0.00  0.00    +0.000 A 
ATOM     21  C   UNL     1       6.203   5.518  18.575  0.00  0.00    +0.000 A 
ATOM     22  C   UNL     1       7.252   5.199  17.708  0.00  0.00    +0.000 A 
ATOM     23  C   UNL     1       7.010   4.432  16.573  0.00  0.00    +0.000 A 
ATOM     24  C   UNL     1       5.718   3.983  16.306  0.00  0.00    +0.000 A 
ATOM     25  C   UNL     1       4.668   4.278  17.187  0.00  0.00    +0.000 A 
ATOM     26  S   UNL     1       3.047   3.625  16.812  0.00  0.00    +0.000 S 
ATOM     27  C   UNL     1       2.391   3.484  18.470  0.00  0.00    +0.000 A 
ATOM     28  C   UNL     1       1.405   2.516  18.706  0.00  0.00    +0.000 A 
ATOM     29  C   UNL     1       0.892   2.335  19.989  0.00  0.00    +0.000 A 
ATOM     30  C   UNL     1       1.353   3.126  21.037  0.00  0.00    +0.000 A 
ATOM     31  C   UNL     1       2.316   4.109  20.800  0.00  0.00    +0.000 A 
ATOM     32  C   UNL     1       2.846   4.313  19.514  0.00  0.00    +0.000 A 
ENDBRANCH  18  19
ENDBRANCH   2  18
TORSDOF 7
ENDMDL
MODEL 5
REMARK VINA RESULT:      -7.9      2.097      8.380
REMARK  Name = 
REMARK  7 active torsions:
REMARK  status: ('A' for Active; 'I' for Inactive)
REMARK    1  A    between atoms: C_2  and  C_3
REMARK    2  A    between atoms: C_3  and  N_4
REMARK    3  A    between atoms: N_18  and  N_19
REMARK    4  A    between atoms: N_19  and  C_20
REMARK    5  A    between atoms: C_20  and  N_22
REMARK    6  A    between atoms: N_22  and  C_23
REMARK    7  A    between atoms: C_23  and  C_24
REMARK                            x       y       z     vdW  Elec       q    Type
REMARK                         _______ _______ _______ _____ _____    ______ ____
ROOT
ATOM      1  O   UNL     1       1.795   5.657  20.387  0.00  0.00    +0.000 OA
ATOM      2  C   UNL     1       2.200   6.636  19.766  0.00  0.00    +0.000 C 
ATOM      3  N   UNL     1       2.221   7.911  20.317  0.00  0.00    +0.000 N 
ATOM      4  H   UNL     1       2.503   8.726  19.772  0.00  0.00    +0.000 HD
ENDROOT
BRANCH   3   5
ATOM      5  N   UNL     1       1.493   8.186  21.487  0.00  0.00    +0.000 N 
ATOM      6  H   UNL     1       1.735   7.636  22.307  0.00  0.00    +0.000 HD
BRANCH   5   7
ATOM      7  C   UNL     1       0.499   9.152  21.465  0.00  0.00    +0.000 C 
ATOM      8  S   UNL     1      -0.304   9.655  22.854  0.00  0.00    +0.000 S 
BRANCH   7   9
ATOM      9  N   UNL     1       0.300   9.670  20.202  0.00  0.00    +0.000 N 
ATOM     10  H   UNL     1       0.878   9.289  19.466  0.00  0.00    +0.000 HD
BRANCH   9  11
ATOM     11  C   UNL     1      -0.247  10.993  19.910  0.00  0.00    +0.000 C 
BRANCH  11  12
ATOM     12  C   UNL     1      -1.313  10.895  18.843  0.00  0.00    +0.000 A 
ATOM     13  C   UNL     1      -2.493  11.643  18.945  0.00  0.00    +0.000 A 
ATOM     14  C   UNL     1      -3.489  11.520  17.981  0.00  0.00    +0.000 A 
ATOM     15  C   UNL     1      -3.330  10.638  16.911  0.00  0.00    +0.000 A 
ATOM     16  C   UNL     1      -2.167   9.884  16.801  0.00  0.00    +0.000 A 
ATOM     17  C   UNL     1      -1.164  10.014  17.760  0.00  0.00    +0.000 A 
ENDBRANCH  11  12
ENDBRANCH   9  11
ENDBRANCH   7   9
ENDBRANCH   5   7
ENDBRANCH   3   5
BRANCH   2  18
ATOM     18  C   UNL     1       2.647   6.588  18.298  0.00  0.00    +0.000 C 
BRANCH  18  19
ATOM     19  N   UNL     1       3.712   5.596  18.020  0.00  0.00    +0.000 N 
ATOM     20  C   UNL     1       3.378   4.237  18.226  0.00  0.00    +0.000 A 
ATOM     21  C   UNL     1       2.284   3.670  17.546  0.00  0.00    +0.000 A 
ATOM     22  C   UNL     1       2.032   2.296  17.599  0.00  0.00    +0.000 A 
ATOM     23  C   UNL     1       2.858   1.465  18.347  0.00  0.00    +0.000 A 
ATOM     24  C   UNL     1       3.937   2.007  19.043  0.00  0.00    +0.000 A 
ATOM     25  C   UNL     1       4.209   3.380  18.972  0.00  0.00    +0.000 A 
ATOM     26  S   UNL     1       5.639   4.002  19.845  0.00  0.00    +0.000 S 
ATOM     27  C   UNL     1       6.037   5.403  18.808  0.00  0.00    +0.000 A 
ATOM     28  C   UNL     1       7.370   5.835  18.769  0.00  0.00    +0.000 A 
ATOM     29  C   UNL     1       7.741   6.895  17.944  0.00  0.00    +0.000 A 
ATOM     30  C   UNL     1       6.783   7.533  17.164  0.00  0.00    +0.000 A 
ATOM     31  C   UNL     1       5.449   7.124  17.219  0.00  0.00    +0.000 A 
ATOM     32  C   UNL     1       5.050   6.059  18.047  0.00  0.00    +0.000 A 
ENDBRANCH  18  19
ENDBRANCH   2  18
TORSDOF 7
ENDMDL
MODEL 6
REMARK VINA RESULT:      -7.9      1.949      8.026
REMARK  Name = 
REMARK  7 active torsions:
REMARK  status: ('A' for Active; 'I' for Inactive)
REMARK    1  A    between atoms: C_2  and  C_3
REMARK    2  A    between atoms: C_3  and  N_4
REMARK    3  A    between atoms: N_18  and  N_19
REMARK    4  A    between atoms: N_19  and  C_20
REMARK    5  A    between atoms: C_20  and  N_22
REMARK    6  A    between atoms: N_22  and  C_23
REMARK    7  A    between atoms: C_23  and  C_24
REMARK                            x       y       z     vdW  Elec       q    Type
REMARK                         _______ _______ _______ _____ _____    ______ ____
ROOT
ATOM      1  O   UNL     1       3.115   7.633  17.099  0.00  0.00    +0.000 OA
ATOM      2  C   UNL     1       2.728   7.728  18.261  0.00  0.00    +0.000 C 
ATOM      3  N   UNL     1       1.686   8.568  18.633  0.00  0.00    +0.000 N 
ATOM      4  H   UNL     1       1.413   8.685  19.609  0.00  0.00    +0.000 HD
ENDROOT
BRANCH   3   5
ATOM      5  N   UNL     1       1.242   9.572  17.755  0.00  0.00    +0.000 N 
ATOM      6  H   UNL     1       1.730   9.639  16.866  0.00  0.00    +0.000 HD
BRANCH   5   7
ATOM      7  C   UNL     1       0.202  10.405  18.136  0.00  0.00    +0.000 C 
ATOM      8  S   UNL     1      -1.410   9.935  18.056  0.00  0.00    +0.000 S 
BRANCH   7   9
ATOM      9  N   UNL     1       0.652  11.614  18.627  0.00  0.00    +0.000 N 
ATOM     10  H   UNL     1       0.793  12.348  17.949  0.00  0.00    +0.000 HD
BRANCH   9  11
ATOM     11  C   UNL     1       1.403  11.792  19.868  0.00  0.00    +0.000 C 
BRANCH  11  12
ATOM     12  C   UNL     1       0.593  11.301  21.046  0.00  0.00    +0.000 A 
ATOM     13  C   UNL     1       0.886  10.071  21.648  0.00  0.00    +0.000 A 
ATOM     14  C   UNL     1       0.114   9.605  22.706  0.00  0.00    +0.000 A 
ATOM     15  C   UNL     1      -0.973  10.350  23.170  0.00  0.00    +0.000 A 
ATOM     16  C   UNL     1      -1.280  11.570  22.577  0.00  0.00    +0.000 A 
ATOM     17  C   UNL     1      -0.500  12.043  21.523  0.00  0.00    +0.000 A 
ENDBRANCH  11  12
ENDBRANCH   9  11
ENDBRANCH   7   9
ENDBRANCH   5   7
ENDBRANCH   3   5
BRANCH   2  18
ATOM     18  C   UNL     1       3.393   7.006  19.442  0.00  0.00    +0.000 C 
BRANCH  18  19
ATOM     19  N   UNL     1       3.744   5.593  19.168  0.00  0.00    +0.000 N 
ATOM     20  C   UNL     1       4.923   5.369  18.419  0.00  0.00    +0.000 A 
ATOM     21  C   UNL     1       6.153   5.880  18.872  0.00  0.00    +0.000 A 
ATOM     22  C   UNL     1       7.355   5.535  18.247  0.00  0.00    +0.000 A 
ATOM     23  C   UNL     1       7.348   4.688  17.144  0.00  0.00    +0.000 A 
ATOM     24  C   UNL     1       6.140   4.184  16.667  0.00  0.00    +0.000 A 
ATOM     25  C   UNL     1       4.935   4.506  17.307  0.00  0.00    +0.000 A 
ATOM     26  S   UNL     1       3.427   3.783  16.677  0.00  0.00    +0.000 S 
ATOM     27  C   UNL     1       2.466   3.732  18.184  0.00  0.00    +0.000 A 
ATOM     28  C   UNL     1       1.468   2.754  18.295  0.00  0.00    +0.000 A 
ATOM     29  C   UNL     1       0.721   2.644  19.466  0.00  0.00    +0.000 A 
ATOM     30  C   UNL     1       0.958   3.515  20.523  0.00  0.00    +0.000 A 
ATOM     31  C   UNL     1       1.932   4.509  20.407  0.00  0.00    +0.000 A 
ATOM     32  C   UNL     1       2.697   4.642  19.234  0.00  0.00    +0.000 A 
ENDBRANCH  18  19
ENDBRANCH   2  18
TORSDOF 7
ENDMDL
MODEL 7
REMARK VINA RESULT:      -7.8      2.192      3.536
REMARK  Name = 
REMARK  7 active torsions:
REMARK  status: ('A' for Active; 'I' for Inactive)
REMARK    1  A    between atoms: C_2  and  C_3
REMARK    2  A    between atoms: C_3  and  N_4
REMARK    3  A    between atoms: N_18  and  N_19
REMARK    4  A    between atoms: N_19  and  C_20
REMARK    5  A    between atoms: C_20  and  N_22
REMARK    6  A    between atoms: N_22  and  C_23
REMARK    7  A    between atoms: C_23  and  C_24
REMARK                            x       y       z     vdW  Elec       q    Type
REMARK                         _______ _______ _______ _____ _____    ______ ____
ROOT
ATOM      1  O   UNL     1       1.914   9.021  17.409  0.00  0.00    +0.000 OA
ATOM      2  C   UNL     1       1.754   8.879  18.618  0.00  0.00    +0.000 C 
ATOM      3  N   UNL     1       2.180   7.745  19.298  0.00  0.00    +0.000 N 
ATOM      4  H   UNL     1       1.988   7.611  20.291  0.00  0.00    +0.000 HD
ENDROOT
BRANCH   3   5
ATOM      5  N   UNL     1       2.526   6.584  18.585  0.00  0.00    +0.000 N 
ATOM      6  H   UNL     1       2.722   6.706  17.595  0.00  0.00    +0.000 HD
BRANCH   5   7
ATOM      7  C   UNL     1       2.568   5.363  19.240  0.00  0.00    +0.000 C 
ATOM      8  S   UNL     1       1.734   5.076  20.671  0.00  0.00    +0.000 S 
BRANCH   7   9
ATOM      9  N   UNL     1       3.316   4.427  18.556  0.00  0.00    +0.000 N 
ATOM     10  H   UNL     1       4.109   4.041  19.049  0.00  0.00    +0.000 HD
BRANCH   9  11
ATOM     11  C   UNL     1       3.402   4.315  17.102  0.00  0.00    +0.000 C 
BRANCH  11  12
ATOM     12  C   UNL     1       4.842   4.419  16.653  0.00  0.00    +0.000 A 
ATOM     13  C   UNL     1       5.871   4.579  17.590  0.00  0.00    +0.000 A 
ATOM     14  C   UNL     1       7.189   4.713  17.170  0.00  0.00    +0.000 A 
ATOM     15  C   UNL     1       7.501   4.708  15.809  0.00  0.00    +0.000 A 
ATOM     16  C   UNL     1       6.489   4.558  14.867  0.00  0.00    +0.000 A 
ATOM     17  C   UNL     1       5.168   4.412  15.287  0.00  0.00    +0.000 A 
ENDBRANCH  11  12
ENDBRANCH   9  11
ENDBRANCH   7   9
ENDBRANCH   5   7
ENDBRANCH   3   5
BRANCH   2  18
ATOM     18  C   UNL     1       1.000   9.884  19.502  0.00  0.00    +0.000 C 
BRANCH  18  19
ATOM     19  N   UNL     1       0.368  10.995  18.753  0.00  0.00    +0.000 N 
ATOM     20  C   UNL     1       1.033  12.243  18.796  0.00  0.00    +0.000 A 
ATOM     21  C   UNL     1       2.370  12.344  18.369  0.00  0.00    +0.000 A 
ATOM     22  C   UNL     1       2.997  13.586  18.241  0.00  0.00    +0.000 A 
ATOM     23  C   UNL     1       2.306  14.752  18.555  0.00  0.00    +0.000 A 
ATOM     24  C   UNL     1       0.986  14.675  18.997  0.00  0.00    +0.000 A 
ATOM     25  C   UNL     1       0.345  13.432  19.101  0.00  0.00    +0.000 A 
ATOM     26  S   UNL     1      -1.365  13.409  19.622  0.00  0.00    +0.000 S 
ATOM     27  C   UNL     1      -1.912  11.925  18.788  0.00  0.00    +0.000 A 
ATOM     28  C   UNL     1      -3.267  11.825  18.446  0.00  0.00    +0.000 A 
ATOM     29  C   UNL     1      -3.737  10.709  17.756  0.00  0.00    +0.000 A 
ATOM     30  C   UNL     1      -2.858   9.686  17.415  0.00  0.00    +0.000 A 
ATOM     31  C   UNL     1      -1.512   9.769  17.777  0.00  0.00    +0.000 A 
ATOM     32  C   UNL     1      -1.016  10.884  18.477  0.00  0.00    +0.000 A 
ENDBRANCH  18  19
ENDBRANCH   2  18
TORSDOF 7
ENDMDL
MODEL 8
REMARK VINA RESULT:      -7.7      2.290      8.903
REMARK  Name = 
REMARK  7 active torsions:
REMARK  status: ('A' for Active; 'I' for Inactive)
REMARK    1  A    between atoms: C_2  and  C_3
REMARK    2  A    between atoms: C_3  and  N_4
REMARK    3  A    between atoms: N_18  and  N_19
REMARK    4  A    between atoms: N_19  and  C_20
REMARK    5  A    between atoms: C_20  and  N_22
REMARK    6  A    between atoms: N_22  and  C_23
REMARK    7  A    between atoms: C_23  and  C_24
REMARK                            x       y       z     vdW  Elec       q    Type
REMARK                         _______ _______ _______ _____ _____    ______ ____
ROOT
ATOM      1  O   UNL     1       2.669   7.108  17.479  0.00  0.00    +0.000 OA
ATOM      2  C   UNL     1       2.578   7.377  18.673  0.00  0.00    +0.000 C 
ATOM      3  N   UNL     1       1.807   8.434  19.142  0.00  0.00    +0.000 N 
ATOM      4  H   UNL     1       1.788   8.686  20.130  0.00  0.00    +0.000 HD
ENDROOT
BRANCH   3   5
ATOM      5  N   UNL     1       1.354   9.424  18.254  0.00  0.00    +0.000 N 
ATOM      6  H   UNL     1       1.747   9.401  17.317  0.00  0.00    +0.000 HD
BRANCH   5   7
ATOM      7  C   UNL     1       0.433  10.365  18.688  0.00  0.00    +0.000 C 
ATOM      8  S   UNL     1       0.472  11.022  20.235  0.00  0.00    +0.000 S 
BRANCH   7   9
ATOM      9  N   UNL     1      -0.457  10.723  17.696  0.00  0.00    +0.000 N 
ATOM     10  H   UNL     1      -0.496  11.705  17.463  0.00  0.00    +0.000 HD
BRANCH   9  11
ATOM     11  C   UNL     1      -1.655   9.972  17.327  0.00  0.00    +0.000 C 
BRANCH  11  12
ATOM     12  C   UNL     1      -2.894  10.791  17.606  0.00  0.00    +0.000 A 
ATOM     13  C   UNL     1      -3.046  11.458  18.829  0.00  0.00    +0.000 A 
ATOM     14  C   UNL     1      -4.205  12.178  19.097  0.00  0.00    +0.000 A 
ATOM     15  C   UNL     1      -5.237  12.230  18.158  0.00  0.00    +0.000 A 
ATOM     16  C   UNL     1      -5.103  11.567  16.943  0.00  0.00    +0.000 A 
ATOM     17  C   UNL     1      -3.937  10.854  16.668  0.00  0.00    +0.000 A 
ENDBRANCH  11  12
ENDBRANCH   9  11
ENDBRANCH   7   9
ENDBRANCH   5   7
ENDBRANCH   3   5
BRANCH   2  18
ATOM     18  C   UNL     1       3.360   6.645  19.774  0.00  0.00    +0.000 C 
BRANCH  18  19
ATOM     19  N   UNL     1       3.795   5.278  19.402  0.00  0.00    +0.000 N 
ATOM     20  C   UNL     1       5.028   5.173  18.718  0.00  0.00    +0.000 A 
ATOM     21  C   UNL     1       6.201   5.691  19.297  0.00  0.00    +0.000 A 
ATOM     22  C   UNL     1       7.455   5.455  18.726  0.00  0.00    +0.000 A 
ATOM     23  C   UNL     1       7.560   4.712  17.555  0.00  0.00    +0.000 A 
ATOM     24  C   UNL     1       6.410   4.204  16.955  0.00  0.00    +0.000 A 
ATOM     25  C   UNL     1       5.152   4.416  17.537  0.00  0.00    +0.000 A 
ATOM     26  S   UNL     1       3.724   3.691  16.744  0.00  0.00    +0.000 S 
ATOM     27  C   UNL     1       2.672   3.464  18.172  0.00  0.00    +0.000 A 
ATOM     28  C   UNL     1       1.717   2.439  18.129  0.00  0.00    +0.000 A 
ATOM     29  C   UNL     1       0.902   2.192  19.231  0.00  0.00    +0.000 A 
ATOM     30  C   UNL     1       1.029   2.972  20.375  0.00  0.00    +0.000 A 
ATOM     31  C   UNL     1       1.961   4.012  20.413  0.00  0.00    +0.000 A 
ATOM     32  C   UNL     1       2.792   4.283  19.312  0.00  0.00    +0.000 A 
ENDBRANCH  18  19
ENDBRANCH   2  18
TORSDOF 7
ENDMDL
MODEL 9
REMARK VINA RESULT:      -7.7      2.163      8.537
REMARK  Name = 
REMARK  7 active torsions:
REMARK  status: ('A' for Active; 'I' for Inactive)
REMARK    1  A    between atoms: C_2  and  C_3
REMARK    2  A    between atoms: C_3  and  N_4
REMARK    3  A    between atoms: N_18  and  N_19
REMARK    4  A    between atoms: N_19  and  C_20
REMARK    5  A    between atoms: C_20  and  N_22
REMARK    6  A    between atoms: N_22  and  C_23
REMARK    7  A    between atoms: C_23  and  C_24
REMARK                            x       y       z     vdW  Elec       q    Type
REMARK                         _______ _______ _______ _____ _____    ______ ____
ROOT
ATOM      1  O   UNL     1       3.252   6.582  20.148  0.00  0.00    +0.000 OA
ATOM      2  C   UNL     1       2.604   7.117  19.253  0.00  0.00    +0.000 C 
ATOM      3  N   UNL     1       1.742   8.181  19.491  0.00  0.00    +0.000 N 
ATOM      4  H   UNL     1       1.163   8.578  18.751  0.00  0.00    +0.000 HD
ENDROOT
BRANCH   3   5
ATOM      5  N   UNL     1       1.341   8.483  20.804  0.00  0.00    +0.000 N 
ATOM      6  H   UNL     1       1.770   7.932  21.543  0.00  0.00    +0.000 HD
BRANCH   5   7
ATOM      7  C   UNL     1       0.397   9.474  21.021  0.00  0.00    +0.000 C 
ATOM      8  S   UNL     1      -0.354   9.698  22.508  0.00  0.00    +0.000 S 
BRANCH   7   9
ATOM      9  N   UNL     1       0.202  10.266  19.907  0.00  0.00    +0.000 N 
ATOM     10  H   UNL     1       0.993  10.367  19.287  0.00  0.00    +0.000 HD
BRANCH   9  11
ATOM     11  C   UNL     1      -0.788  11.333  19.793  0.00  0.00    +0.000 C 
BRANCH  11  12
ATOM     12  C   UNL     1      -1.768  11.022  18.686  0.00  0.00    +0.000 A 
ATOM     13  C   UNL     1      -1.435  10.111  17.675  0.00  0.00    +0.000 A 
ATOM     14  C   UNL     1      -2.324   9.857  16.636  0.00  0.00    +0.000 A 
ATOM     15  C   UNL     1      -3.552  10.520  16.580  0.00  0.00    +0.000 A 
ATOM     16  C   UNL     1      -3.893  11.433  17.572  0.00  0.00    +0.000 A 
ATOM     17  C   UNL     1      -3.007  11.680  18.620  0.00  0.00    +0.000 A 
ENDBRANCH  11  12
ENDBRANCH   9  11
ENDBRANCH   7   9
ENDBRANCH   5   7
ENDBRANCH   3   5
BRANCH   2  18
ATOM     18  C   UNL     1       2.599   6.631  17.796  0.00  0.00    +0.000 C 
BRANCH  18  19
ATOM     19  N   UNL     1       3.228   5.304  17.598  0.00  0.00    +0.000 N 
ATOM     20  C   UNL     1       2.643   4.219  18.292  0.00  0.00    +0.000 A 
ATOM     21  C   UNL     1       1.283   3.914  18.104  0.00  0.00    +0.000 A 
ATOM     22  C   UNL     1       0.720   2.753  18.643  0.00  0.00    +0.000 A 
ATOM     23  C   UNL     1       1.503   1.884  19.395  0.00  0.00    +0.000 A 
ATOM     24  C   UNL     1       2.849   2.174  19.608  0.00  0.00    +0.000 A 
ATOM     25  C   UNL     1       3.424   3.324  19.048  0.00  0.00    +0.000 A 
ATOM     26  S   UNL     1       5.168   3.609  19.315  0.00  0.00    +0.000 S 
ATOM     27  C   UNL     1       5.553   4.525  17.829  0.00  0.00    +0.000 A 
ATOM     28  C   UNL     1       6.865   4.465  17.341  0.00  0.00    +0.000 A 
ATOM     29  C   UNL     1       7.207   5.126  16.163  0.00  0.00    +0.000 A 
ATOM     30  C   UNL     1       6.244   5.855  15.473  0.00  0.00    +0.000 A 
ATOM     31  C   UNL     1       4.942   5.940  15.970  0.00  0.00    +0.000 A 
ATOM     32  C   UNL     1       4.574   5.285  17.159  0.00  0.00    +0.000 A 
ENDBRANCH  18  19
ENDBRANCH   2  18
TORSDOF 7
ENDMDL
