MODEL 1
REMARK VINA RESULT:      -8.3      0.000      0.000
REMARK  Name = 
REMARK  11 active torsions:
REMARK  status: ('A' for Active; 'I' for Inactive)
REMARK    1  A    between atoms: N_1  and  C_2
REMARK    2  A    between atoms: C_2  and  C_3
REMARK    3  A    between atoms: C_3  and  C_4
REMARK    4  A    between atoms: C_10  and  O_11
REMARK    5  A    between atoms: O_11  and  C_12
REMARK    6  A    between atoms: C_12  and  C_13
REMARK    7  A    between atoms: C_13  and  O_14
REMARK    8  A    between atoms: O_14  and  C_15
REMARK    9  A    between atoms: C_18  and  O_19
REMARK   10  A    between atoms: O_19  and  C_20
REMARK   11  A    between atoms: C_25  and  N_26
REMARK                            x       y       z     vdW  Elec       q    Type
REMARK                         _______ _______ _______ _____ _____    ______ ____
ROOT
ATOM      1  C   UNL     1       2.281   4.466  20.111  0.00  0.00    +0.000 C 
ENDROOT
BRANCH   1   2
ATOM      2  C   UNL     1       2.354   3.784  18.741  0.00  0.00    +0.000 C 
BRANCH   2   3
ATOM      3  O   UNL     1       3.599   3.224  18.533  0.00  0.00    +0.000 OA
BRANCH   3  10
ATOM      4  C   UNL     1       6.002   4.296  14.392  0.00  0.00    +0.000 A 
ATOM      5  C   UNL     1       7.176   5.033  14.282  0.00  0.00    +0.000 A 
ATOM      6  N   UNL     1       7.577   5.452  15.502  0.00  0.00    +0.000 N 
ATOM      7  C   UNL     1       6.671   4.987  16.379  0.00  0.00    +0.000 A 
ATOM      8  C   UNL     1       6.677   5.153  17.757  0.00  0.00    +0.000 A 
ATOM      9  C   UNL     1       5.639   4.563  18.496  0.00  0.00    +0.000 A 
ATOM     10  C   UNL     1       4.607   3.824  17.845  0.00  0.00    +0.000 A 
ATOM     11  C   UNL     1       4.633   3.690  16.442  0.00  0.00    +0.000 A 
ATOM     12  C   UNL     1       5.686   4.280  15.738  0.00  0.00    +0.000 A 
ATOM     13  H   UNL     1       8.428   6.019  15.717  0.00  0.00    +0.000 HD
BRANCH   4  14
ATOM     14  C   UNL     1       5.265   3.646  13.261  0.00  0.00    +0.000 C 
BRANCH  14  15
ATOM     15  C   UNL     1       6.240   3.259  12.146  0.00  0.00    +0.000 C 
BRANCH  15  16
ATOM     16  N   UNL     1       5.958   1.913  11.655  0.00  0.00    +0.000 NA
ATOM     17  H   UNL     1       5.805   1.969  10.621  0.00  0.00    +0.000 HD
ATOM     18  H   UNL     1       6.781   1.288  11.816  0.00  0.00    +0.000 HD
ENDBRANCH  15  16
ENDBRANCH  14  15
ENDBRANCH   4  14
ENDBRANCH   3  10
ENDBRANCH   2   3
ENDBRANCH   1   2
BRANCH   1  19
ATOM     19  O   UNL     1       2.908   5.703  20.160  0.00  0.00    +0.000 OA
BRANCH  19  20
ATOM     20  C   UNL     1       2.409   6.886  19.703  0.00  0.00    +0.000 A 
ATOM     21  C   UNL     1       1.634   7.668  20.574  0.00  0.00    +0.000 A 
ATOM     22  C   UNL     1       1.062   8.874  20.139  0.00  0.00    +0.000 A 
ATOM     23  C   UNL     1       1.282   9.328  18.832  0.00  0.00    +0.000 A 
ATOM     24  C   UNL     1       2.060   8.540  17.964  0.00  0.00    +0.000 A 
ATOM     25  C   UNL     1       2.610   7.337  18.387  0.00  0.00    +0.000 A 
BRANCH  23  26
ATOM     26  O   UNL     1       0.737  10.507  18.421  0.00  0.00    +0.000 OA
BRANCH  26  27
ATOM     27  C   UNL     1      -0.597  10.782  18.400  0.00  0.00    +0.000 A 
ATOM     28  C   UNL     1      -1.445  10.078  17.517  0.00  0.00    +0.000 A 
ATOM     29  C   UNL     1      -2.813  10.326  17.486  0.00  0.00    +0.000 A 
ATOM     30  C   UNL     1      -3.365  11.285  18.328  0.00  0.00    +0.000 A 
ATOM     31  C   UNL     1      -2.545  12.009  19.197  0.00  0.00    +0.000 A 
ATOM     32  C   UNL     1      -1.154  11.778  19.247  0.00  0.00    +0.000 A 
BRANCH  32  33
ATOM     33  N   UNL     1      -0.349  12.538  20.154  0.00  0.00    +0.000 N 
ATOM     34  O   UNL     1      -0.111  12.139  21.249  0.00  0.00    +0.000 OA
ATOM     35  O   UNL     1       0.134  13.709  19.789  0.00  0.00    +0.000 OA
ENDBRANCH  32  33
ENDBRANCH  26  27
ENDBRANCH  23  26
ENDBRANCH  19  20
ENDBRANCH   1  19
TORSDOF 11
ENDMDL
MODEL 2
REMARK VINA RESULT:      -8.2      6.597      9.467
REMARK  Name = 
REMARK  11 active torsions:
REMARK  status: ('A' for Active; 'I' for Inactive)
REMARK    1  A    between atoms: N_1  and  C_2
REMARK    2  A    between atoms: C_2  and  C_3
REMARK    3  A    between atoms: C_3  and  C_4
REMARK    4  A    between atoms: C_10  and  O_11
REMARK    5  A    between atoms: O_11  and  C_12
REMARK    6  A    between atoms: C_12  and  C_13
REMARK    7  A    between atoms: C_13  and  O_14
REMARK    8  A    between atoms: O_14  and  C_15
REMARK    9  A    between atoms: C_18  and  O_19
REMARK   10  A    between atoms: O_19  and  C_20
REMARK   11  A    between atoms: C_25  and  N_26
REMARK                            x       y       z     vdW  Elec       q    Type
REMARK                         _______ _______ _______ _____ _____    ______ ____
ROOT
ATOM      1  C   UNL     1       7.533   8.771  17.531  0.00  0.00    +0.000 C 
ENDROOT
BRANCH   1   2
ATOM      2  C   UNL     1       8.621   9.081  18.564  0.00  0.00    +0.000 C 
BRANCH   2   3
ATOM      3  O   UNL     1       9.432  10.112  18.135  0.00  0.00    +0.000 OA
BRANCH   3  10
ATOM      4  C   UNL     1      11.583  14.476  18.766  0.00  0.00    +0.000 A 
ATOM      5  C   UNL     1      11.638  15.211  19.946  0.00  0.00    +0.000 A 
ATOM      6  N   UNL     1      10.981  14.558  20.929  0.00  0.00    +0.000 N 
ATOM      7  C   UNL     1      10.515  13.421  20.385  0.00  0.00    +0.000 A 
ATOM      8  C   UNL     1       9.791  12.422  21.022  0.00  0.00    +0.000 A 
ATOM      9  C   UNL     1       9.416  11.299  20.268  0.00  0.00    +0.000 A 
ATOM     10  C   UNL     1       9.763  11.195  18.888  0.00  0.00    +0.000 A 
ATOM     11  C   UNL     1      10.489  12.238  18.278  0.00  0.00    +0.000 A 
ATOM     12  C   UNL     1      10.855  13.337  19.059  0.00  0.00    +0.000 A 
ATOM     13  H   UNL     1      10.867  14.874  21.919  0.00  0.00    +0.000 HD
BRANCH   4  14
ATOM     14  C   UNL     1      12.214  14.861  17.463  0.00  0.00    +0.000 C 
BRANCH  14  15
ATOM     15  C   UNL     1      11.690  16.225  17.003  0.00  0.00    +0.000 C 
BRANCH  15  16
ATOM     16  N   UNL     1      10.570  16.066  16.079  0.00  0.00    +0.000 NA
ATOM     17  H   UNL     1      10.448  16.966  15.560  0.00  0.00    +0.000 HD
ATOM     18  H   UNL     1      10.784  15.324  15.375  0.00  0.00    +0.000 HD
ENDBRANCH  15  16
ENDBRANCH  14  15
ENDBRANCH   4  14
ENDBRANCH   3  10
ENDBRANCH   2   3
ENDBRANCH   1   2
BRANCH   1  19
ATOM     19  O   UNL     1       7.595   7.485  17.015  0.00  0.00    +0.000 OA
BRANCH  19  20
ATOM     20  C   UNL     1       6.736   6.461  17.279  0.00  0.00    +0.000 A 
ATOM     21  C   UNL     1       6.667   5.963  18.590  0.00  0.00    +0.000 A 
ATOM     22  C   UNL     1       5.830   4.881  18.905  0.00  0.00    +0.000 A 
ATOM     23  C   UNL     1       5.028   4.299  17.914  0.00  0.00    +0.000 A 
ATOM     24  C   UNL     1       5.101   4.801  16.602  0.00  0.00    +0.000 A 
ATOM     25  C   UNL     1       5.944   5.859  16.285  0.00  0.00    +0.000 A 
BRANCH  23  26
ATOM     26  O   UNL     1       4.206   3.259  18.229  0.00  0.00    +0.000 OA
BRANCH  26  27
ATOM     27  C   UNL     1       3.328   3.248  19.271  0.00  0.00    +0.000 A 
ATOM     28  C   UNL     1       3.627   2.503  20.433  0.00  0.00    +0.000 A 
ATOM     29  C   UNL     1       2.758   2.488  21.518  0.00  0.00    +0.000 A 
ATOM     30  C   UNL     1       1.570   3.208  21.467  0.00  0.00    +0.000 A 
ATOM     31  C   UNL     1       1.242   3.938  20.323  0.00  0.00    +0.000 A 
ATOM     32  C   UNL     1       2.105   3.968  19.207  0.00  0.00    +0.000 A 
BRANCH  32  33
ATOM     33  N   UNL     1       1.734   4.732  18.054  0.00  0.00    +0.000 N 
ATOM     34  O   UNL     1       2.059   5.871  17.939  0.00  0.00    +0.000 OA
ATOM     35  O   UNL     1       1.011   4.181  17.100  0.00  0.00    +0.000 OA
ENDBRANCH  32  33
ENDBRANCH  26  27
ENDBRANCH  23  26
ENDBRANCH  19  20
ENDBRANCH   1  19
TORSDOF 11
ENDMDL
MODEL 3
REMARK VINA RESULT:      -8.0      1.883      2.648
REMARK  Name = 
REMARK  11 active torsions:
REMARK  status: ('A' for Active; 'I' for Inactive)
REMARK    1  A    between atoms: N_1  and  C_2
REMARK    2  A    between atoms: C_2  and  C_3
REMARK    3  A    between atoms: C_3  and  C_4
REMARK    4  A    between atoms: C_10  and  O_11
REMARK    5  A    between atoms: O_11  and  C_12
REMARK    6  A    between atoms: C_12  and  C_13
REMARK    7  A    between atoms: C_13  and  O_14
REMARK    8  A    between atoms: O_14  and  C_15
REMARK    9  A    between atoms: C_18  and  O_19
REMARK   10  A    between atoms: O_19  and  C_20
REMARK   11  A    between atoms: C_25  and  N_26
REMARK                            x       y       z     vdW  Elec       q    Type
REMARK                         _______ _______ _______ _____ _____    ______ ____
ROOT
ATOM      1  C   UNL     1       2.340   2.355  17.605  0.00  0.00    +0.000 C 
ENDROOT
BRANCH   1   2
ATOM      2  C   UNL     1       3.695   1.972  18.208  0.00  0.00    +0.000 C 
BRANCH   2   3
ATOM      3  O   UNL     1       4.413   3.096  18.566  0.00  0.00    +0.000 OA
BRANCH   3  10
ATOM      4  C   UNL     1       6.141   4.257  14.124  0.00  0.00    +0.000 A 
ATOM      5  C   UNL     1       7.221   5.088  13.845  0.00  0.00    +0.000 A 
ATOM      6  N   UNL     1       7.742   5.572  14.993  0.00  0.00    +0.000 N 
ATOM      7  C   UNL     1       7.005   5.056  15.991  0.00  0.00    +0.000 A 
ATOM      8  C   UNL     1       7.180   5.258  17.354  0.00  0.00    +0.000 A 
ATOM      9  C   UNL     1       6.306   4.602  18.234  0.00  0.00    +0.000 A 
ATOM     10  C   UNL     1       5.264   3.761  17.739  0.00  0.00    +0.000 A 
ATOM     11  C   UNL     1       5.115   3.592  16.348  0.00  0.00    +0.000 A 
ATOM     12  C   UNL     1       6.009   4.251  15.500  0.00  0.00    +0.000 A 
ATOM     13  H   UNL     1       8.561   6.215  15.083  0.00  0.00    +0.000 HD
BRANCH   4  14
ATOM     14  C   UNL     1       5.320   3.517  13.112  0.00  0.00    +0.000 C 
BRANCH  14  15
ATOM     15  C   UNL     1       6.203   3.049  11.952  0.00  0.00    +0.000 C 
BRANCH  15  16
ATOM     16  N   UNL     1       5.928   1.654  11.620  0.00  0.00    +0.000 NA
ATOM     17  H   UNL     1       5.899   1.567  10.578  0.00  0.00    +0.000 HD
ATOM     18  H   UNL     1       6.700   1.040  11.965  0.00  0.00    +0.000 HD
ENDBRANCH  15  16
ENDBRANCH  14  15
ENDBRANCH   4  14
ENDBRANCH   3  10
ENDBRANCH   2   3
ENDBRANCH   1   2
BRANCH   1  19
ATOM     19  O   UNL     1       1.473   2.959  18.504  0.00  0.00    +0.000 OA
BRANCH  19  20
ATOM     20  C   UNL     1       1.566   4.226  18.998  0.00  0.00    +0.000 A 
ATOM     21  C   UNL     1       1.986   5.252  18.137  0.00  0.00    +0.000 A 
ATOM     22  C   UNL     1       2.140   6.566  18.608  0.00  0.00    +0.000 A 
ATOM     23  C   UNL     1       1.847   6.876  19.942  0.00  0.00    +0.000 A 
ATOM     24  C   UNL     1       1.426   5.843  20.800  0.00  0.00    +0.000 A 
ATOM     25  C   UNL     1       1.293   4.539  20.341  0.00  0.00    +0.000 A 
BRANCH  23  26
ATOM     26  O   UNL     1       1.984   8.155  20.389  0.00  0.00    +0.000 OA
BRANCH  26  27
ATOM     27  C   UNL     1       1.182   9.195  20.027  0.00  0.00    +0.000 A 
ATOM     28  C   UNL     1       1.332   9.788  18.754  0.00  0.00    +0.000 A 
ATOM     29  C   UNL     1       0.517  10.839  18.351  0.00  0.00    +0.000 A 
ATOM     30  C   UNL     1      -0.461  11.329  19.210  0.00  0.00    +0.000 A 
ATOM     31  C   UNL     1      -0.618  10.773  20.481  0.00  0.00    +0.000 A 
ATOM     32  C   UNL     1       0.198   9.707  20.915  0.00  0.00    +0.000 A 
BRANCH  32  33
ATOM     33  N   UNL     1       0.004   9.163  22.225  0.00  0.00    +0.000 N 
ATOM     34  O   UNL     1      -0.692   8.213  22.400  0.00  0.00    +0.000 OA
ATOM     35  O   UNL     1       0.588   9.720  23.267  0.00  0.00    +0.000 OA
ENDBRANCH  32  33
ENDBRANCH  26  27
ENDBRANCH  23  26
ENDBRANCH  19  20
ENDBRANCH   1  19
TORSDOF 11
ENDMDL
MODEL 4
REMARK VINA RESULT:      -7.9      1.697      2.414
REMARK  Name = 
REMARK  11 active torsions:
REMARK  status: ('A' for Active; 'I' for Inactive)
REMARK    1  A    between atoms: N_1  and  C_2
REMARK    2  A    between atoms: C_2  and  C_3
REMARK    3  A    between atoms: C_3  and  C_4
REMARK    4  A    between atoms: C_10  and  O_11
REMARK    5  A    between atoms: O_11  and  C_12
REMARK    6  A    between atoms: C_12  and  C_13
REMARK    7  A    between atoms: C_13  and  O_14
REMARK    8  A    between atoms: O_14  and  C_15
REMARK    9  A    between atoms: C_18  and  O_19
REMARK   10  A    between atoms: O_19  and  C_20
REMARK   11  A    between atoms: C_25  and  N_26
REMARK                            x       y       z     vdW  Elec       q    Type
REMARK                         _______ _______ _______ _____ _____    ______ ____
ROOT
ATOM      1  C   UNL     1       2.171   4.730  19.756  0.00  0.00    +0.000 C 
ENDROOT
BRANCH   1   2
ATOM      2  C   UNL     1       2.459   3.700  18.660  0.00  0.00    +0.000 C 
BRANCH   2   3
ATOM      3  O   UNL     1       3.787   3.322  18.673  0.00  0.00    +0.000 OA
BRANCH   3  10
ATOM      4  C   UNL     1       5.956   4.285  14.380  0.00  0.00    +0.000 A 
ATOM      5  C   UNL     1       7.129   5.009  14.187  0.00  0.00    +0.000 A 
ATOM      6  N   UNL     1       7.602   5.449  15.372  0.00  0.00    +0.000 N 
ATOM      7  C   UNL     1       6.744   5.011  16.310  0.00  0.00    +0.000 A 
ATOM      8  C   UNL     1       6.832   5.205  17.682  0.00  0.00    +0.000 A 
ATOM      9  C   UNL     1       5.833   4.641  18.491  0.00  0.00    +0.000 A 
ATOM     10  C   UNL     1       4.759   3.897  17.916  0.00  0.00    +0.000 A 
ATOM     11  C   UNL     1       4.703   3.735  16.517  0.00  0.00    +0.000 A 
ATOM     12  C   UNL     1       5.718   4.300  15.742  0.00  0.00    +0.000 A 
ATOM     13  H   UNL     1       8.468   6.012  15.527  0.00  0.00    +0.000 HD
BRANCH   4  14
ATOM     14  C   UNL     1       5.150   3.619  13.307  0.00  0.00    +0.000 C 
BRANCH  14  15
ATOM     15  C   UNL     1       6.039   3.286  12.105  0.00  0.00    +0.000 C 
BRANCH  15  16
ATOM     16  N   UNL     1       5.914   1.877  11.742  0.00  0.00    +0.000 NA
ATOM     17  H   UNL     1       6.470   1.716  10.871  0.00  0.00    +0.000 HD
ATOM     18  H   UNL     1       6.321   1.272  12.491  0.00  0.00    +0.000 HD
ENDBRANCH  15  16
ENDBRANCH  14  15
ENDBRANCH   4  14
ENDBRANCH   3  10
ENDBRANCH   2   3
ENDBRANCH   1   2
BRANCH   1  19
ATOM     19  O   UNL     1       2.852   5.928  19.599  0.00  0.00    +0.000 OA
BRANCH  19  20
ATOM     20  C   UNL     1       2.300   7.160  19.416  0.00  0.00    +0.000 A 
ATOM     21  C   UNL     1       2.463   7.790  18.171  0.00  0.00    +0.000 A 
ATOM     22  C   UNL     1       1.951   9.077  17.945  0.00  0.00    +0.000 A 
ATOM     23  C   UNL     1       1.243   9.742  18.955  0.00  0.00    +0.000 A 
ATOM     24  C   UNL     1       1.082   9.106  20.200  0.00  0.00    +0.000 A 
ATOM     25  C   UNL     1       1.606   7.841  20.432  0.00  0.00    +0.000 A 
BRANCH  23  26
ATOM     26  O   UNL     1       0.735  10.984  18.725  0.00  0.00    +0.000 OA
BRANCH  26  27
ATOM     27  C   UNL     1       1.384  12.152  18.990  0.00  0.00    +0.000 A 
ATOM     28  C   UNL     1       2.434  12.578  18.148  0.00  0.00    +0.000 A 
ATOM     29  C   UNL     1       3.103  13.774  18.384  0.00  0.00    +0.000 A 
ATOM     30  C   UNL     1       2.745  14.568  19.467  0.00  0.00    +0.000 A 
ATOM     31  C   UNL     1       1.722  14.161  20.326  0.00  0.00    +0.000 A 
ATOM     32  C   UNL     1       1.030  12.951  20.111  0.00  0.00    +0.000 A 
BRANCH  32  33
ATOM     33  N   UNL     1      -0.015  12.569  21.012  0.00  0.00    +0.000 N 
ATOM     34  O   UNL     1       0.225  11.990  22.023  0.00  0.00    +0.000 OA
ATOM     35  O   UNL     1      -1.271  12.847  20.725  0.00  0.00    +0.000 OA
ENDBRANCH  32  33
ENDBRANCH  26  27
ENDBRANCH  23  26
ENDBRANCH  19  20
ENDBRANCH   1  19
TORSDOF 11
ENDMDL
MODEL 5
REMARK VINA RESULT:      -7.9      6.239      9.527
REMARK  Name = 
REMARK  11 active torsions:
REMARK  status: ('A' for Active; 'I' for Inactive)
REMARK    1  A    between atoms: N_1  and  C_2
REMARK    2  A    between atoms: C_2  and  C_3
REMARK    3  A    between atoms: C_3  and  C_4
REMARK    4  A    between atoms: C_10  and  O_11
REMARK    5  A    between atoms: O_11  and  C_12
REMARK    6  A    between atoms: C_12  and  C_13
REMARK    7  A    between atoms: C_13  and  O_14
REMARK    8  A    between atoms: O_14  and  C_15
REMARK    9  A    between atoms: C_18  and  O_19
REMARK   10  A    between atoms: O_19  and  C_20
REMARK   11  A    between atoms: C_25  and  N_26
REMARK                            x       y       z     vdW  Elec       q    Type
REMARK                         _______ _______ _______ _____ _____    ______ ____
ROOT
ATOM      1  C   UNL     1       8.194   8.211  18.018  0.00  0.00    +0.000 C 
ENDROOT
BRANCH   1   2
ATOM      2  C   UNL     1       8.235   9.716  17.739  0.00  0.00    +0.000 C 
BRANCH   2   3
ATOM      3  O   UNL     1       9.201  10.336  18.506  0.00  0.00    +0.000 OA
BRANCH   3  10
ATOM      4  C   UNL     1       8.953  15.197  17.891  0.00  0.00    +0.000 A 
ATOM      5  C   UNL     1       9.989  16.037  17.496  0.00  0.00    +0.000 A 
ATOM      6  N   UNL     1      11.122  15.323  17.317  0.00  0.00    +0.000 N 
ATOM      7  C   UNL     1      10.812  14.045  17.592  0.00  0.00    +0.000 A 
ATOM      8  C   UNL     1      11.657  12.945  17.526  0.00  0.00    +0.000 A 
ATOM      9  C   UNL     1      11.123  11.685  17.838  0.00  0.00    +0.000 A 
ATOM     10  C   UNL     1       9.754  11.544  18.217  0.00  0.00    +0.000 A 
ATOM     11  C   UNL     1       8.934  12.689  18.282  0.00  0.00    +0.000 A 
ATOM     12  C   UNL     1       9.495  13.926  17.955  0.00  0.00    +0.000 A 
ATOM     13  H   UNL     1      12.051  15.695  17.015  0.00  0.00    +0.000 HD
BRANCH   4  14
ATOM     14  C   UNL     1       7.540  15.615  18.165  0.00  0.00    +0.000 C 
BRANCH  14  15
ATOM     15  C   UNL     1       7.497  17.083  18.598  0.00  0.00    +0.000 C 
BRANCH  15  16
ATOM     16  N   UNL     1       7.683  17.204  20.042  0.00  0.00    +0.000 NA
ATOM     17  H   UNL     1       8.301  18.028  20.222  0.00  0.00    +0.000 HD
ATOM     18  H   UNL     1       6.768  17.390  20.511  0.00  0.00    +0.000 HD
ENDBRANCH  15  16
ENDBRANCH  14  15
ENDBRANCH   4  14
ENDBRANCH   3  10
ENDBRANCH   2   3
ENDBRANCH   1   2
BRANCH   1  19
ATOM     19  O   UNL     1       7.453   7.485  17.096  0.00  0.00    +0.000 OA
BRANCH  19  20
ATOM     20  C   UNL     1       6.619   6.442  17.363  0.00  0.00    +0.000 A 
ATOM     21  C   UNL     1       6.491   6.009  18.693  0.00  0.00    +0.000 A 
ATOM     22  C   UNL     1       5.678   4.911  19.016  0.00  0.00    +0.000 A 
ATOM     23  C   UNL     1       4.959   4.248  18.013  0.00  0.00    +0.000 A 
ATOM     24  C   UNL     1       5.090   4.686  16.682  0.00  0.00    +0.000 A 
ATOM     25  C   UNL     1       5.910   5.759  16.359  0.00  0.00    +0.000 A 
BRANCH  23  26
ATOM     26  O   UNL     1       4.159   3.193  18.335  0.00  0.00    +0.000 OA
BRANCH  26  27
ATOM     27  C   UNL     1       3.243   3.189  19.343  0.00  0.00    +0.000 A 
ATOM     28  C   UNL     1       3.493   2.443  20.516  0.00  0.00    +0.000 A 
ATOM     29  C   UNL     1       2.584   2.435  21.567  0.00  0.00    +0.000 A 
ATOM     30  C   UNL     1       1.404   3.163  21.472  0.00  0.00    +0.000 A 
ATOM     31  C   UNL     1       1.123   3.893  20.316  0.00  0.00    +0.000 A 
ATOM     32  C   UNL     1       2.028   3.917  19.233  0.00  0.00    +0.000 A 
BRANCH  32  33
ATOM     33  N   UNL     1       1.705   4.681  18.066  0.00  0.00    +0.000 N 
ATOM     34  O   UNL     1       1.990   5.834  17.987  0.00  0.00    +0.000 OA
ATOM     35  O   UNL     1       1.071   4.115  17.059  0.00  0.00    +0.000 OA
ENDBRANCH  32  33
ENDBRANCH  26  27
ENDBRANCH  23  26
ENDBRANCH  19  20
ENDBRANCH   1  19
TORSDOF 11
ENDMDL
MODEL 6
REMARK VINA RESULT:      -7.9      0.875      1.259
REMARK  Name = 
REMARK  11 active torsions:
REMARK  status: ('A' for Active; 'I' for Inactive)
REMARK    1  A    between atoms: N_1  and  C_2
REMARK    2  A    between atoms: C_2  and  C_3
REMARK    3  A    between atoms: C_3  and  C_4
REMARK    4  A    between atoms: C_10  and  O_11
REMARK    5  A    between atoms: O_11  and  C_12
REMARK    6  A    between atoms: C_12  and  C_13
REMARK    7  A    between atoms: C_13  and  O_14
REMARK    8  A    between atoms: O_14  and  C_15
REMARK    9  A    between atoms: C_18  and  O_19
REMARK   10  A    between atoms: O_19  and  C_20
REMARK   11  A    between atoms: C_25  and  N_26
REMARK                            x       y       z     vdW  Elec       q    Type
REMARK                         _______ _______ _______ _____ _____    ______ ____
ROOT
ATOM      1  C   UNL     1       3.024   5.299  20.218  0.00  0.00    +0.000 C 
ENDROOT
BRANCH   1   2
ATOM      2  C   UNL     1       3.620   3.994  19.681  0.00  0.00    +0.000 C 
BRANCH   2   3
ATOM      3  O   UNL     1       3.625   3.983  18.301  0.00  0.00    +0.000 OA
BRANCH   3  10
ATOM      4  C   UNL     1       6.016   4.264  14.027  0.00  0.00    +0.000 A 
ATOM      5  C   UNL     1       7.269   4.828  13.813  0.00  0.00    +0.000 A 
ATOM      6  N   UNL     1       7.756   5.328  14.969  0.00  0.00    +0.000 N 
ATOM      7  C   UNL     1       6.826   5.084  15.909  0.00  0.00    +0.000 A 
ATOM      8  C   UNL     1       6.895   5.402  17.259  0.00  0.00    +0.000 A 
ATOM      9  C   UNL     1       5.815   5.038  18.077  0.00  0.00    +0.000 A 
ATOM     10  C   UNL     1       4.679   4.367  17.532  0.00  0.00    +0.000 A 
ATOM     11  C   UNL     1       4.645   4.074  16.154  0.00  0.00    +0.000 A 
ATOM     12  C   UNL     1       5.741   4.441  15.370  0.00  0.00    +0.000 A 
ATOM     13  H   UNL     1       8.677   5.802  15.104  0.00  0.00    +0.000 HD
BRANCH   4  14
ATOM     14  C   UNL     1       5.169   3.590  12.990  0.00  0.00    +0.000 C 
BRANCH  14  15
ATOM     15  C   UNL     1       6.043   3.085  11.838  0.00  0.00    +0.000 C 
BRANCH  15  16
ATOM     16  N   UNL     1       5.764   1.680  11.554  0.00  0.00    +0.000 NA
ATOM     17  H   UNL     1       4.953   1.637  10.894  0.00  0.00    +0.000 HD
ATOM     18  H   UNL     1       6.581   1.238  11.075  0.00  0.00    +0.000 HD
ENDBRANCH  15  16
ENDBRANCH  14  15
ENDBRANCH   4  14
ENDBRANCH   3  10
ENDBRANCH   2   3
ENDBRANCH   1   2
BRANCH   1  19
ATOM     19  O   UNL     1       3.205   6.389  19.379  0.00  0.00    +0.000 OA
BRANCH  19  20
ATOM     20  C   UNL     1       2.386   7.471  19.264  0.00  0.00    +0.000 A 
ATOM     21  C   UNL     1       2.355   8.162  18.042  0.00  0.00    +0.000 A 
ATOM     22  C   UNL     1       1.561   9.309  17.885  0.00  0.00    +0.000 A 
ATOM     23  C   UNL     1       0.763   9.764  18.943  0.00  0.00    +0.000 A 
ATOM     24  C   UNL     1       0.797   9.068  20.165  0.00  0.00    +0.000 A 
ATOM     25  C   UNL     1       1.598   7.945  20.328  0.00  0.00    +0.000 A 
BRANCH  23  26
ATOM     26  O   UNL     1      -0.018  10.868  18.779  0.00  0.00    +0.000 OA
BRANCH  26  27
ATOM     27  C   UNL     1      -1.306  10.852  18.336  0.00  0.00    +0.000 A 
ATOM     28  C   UNL     1      -1.670  10.005  17.266  0.00  0.00    +0.000 A 
ATOM     29  C   UNL     1      -2.980   9.955  16.804  0.00  0.00    +0.000 A 
ATOM     30  C   UNL     1      -3.955  10.753  17.392  0.00  0.00    +0.000 A 
ATOM     31  C   UNL     1      -3.618  11.614  18.438  0.00  0.00    +0.000 A 
ATOM     32  C   UNL     1      -2.295  11.685  18.924  0.00  0.00    +0.000 A 
BRANCH  32  33
ATOM     33  N   UNL     1      -1.991  12.578  20.001  0.00  0.00    +0.000 N 
ATOM     34  O   UNL     1      -2.219  12.280  21.131  0.00  0.00    +0.000 OA
ATOM     35  O   UNL     1      -1.460  13.758  19.753  0.00  0.00    +0.000 OA
ENDBRANCH  32  33
ENDBRANCH  26  27
ENDBRANCH  23  26
ENDBRANCH  19  20
ENDBRANCH   1  19
TORSDOF 11
ENDMDL
MODEL 7
REMARK VINA RESULT:      -7.8      1.657      2.290
REMARK  Name = 
REMARK  11 active torsions:
REMARK  status: ('A' for Active; 'I' for Inactive)
REMARK    1  A    between atoms: N_1  and  C_2
REMARK    2  A    between atoms: C_2  and  C_3
REMARK    3  A    between atoms: C_3  and  C_4
REMARK    4  A    between atoms: C_10  and  O_11
REMARK    5  A    between atoms: O_11  and  C_12
REMARK    6  A    between atoms: C_12  and  C_13
REMARK    7  A    between atoms: C_13  and  O_14
REMARK    8  A    between atoms: O_14  and  C_15
REMARK    9  A    between atoms: C_18  and  O_19
REMARK   10  A    between atoms: O_19  and  C_20
REMARK   11  A    between atoms: C_25  and  N_26
REMARK                            x       y       z     vdW  Elec       q    Type
REMARK                         _______ _______ _______ _____ _____    ______ ____
ROOT
ATOM      1  C   UNL     1       2.348   4.969  19.146  0.00  0.00    +0.000 C 
ENDROOT
BRANCH   1   2
ATOM      2  C   UNL     1       3.244   3.827  19.633  0.00  0.00    +0.000 C 
BRANCH   2   3
ATOM      3  O   UNL     1       3.900   3.226  18.577  0.00  0.00    +0.000 OA
BRANCH   3  10
ATOM      4  C   UNL     1       6.031   4.300  14.291  0.00  0.00    +0.000 A 
ATOM      5  C   UNL     1       7.196   5.038  14.106  0.00  0.00    +0.000 A 
ATOM      6  N   UNL     1       7.673   5.458  15.297  0.00  0.00    +0.000 N 
ATOM      7  C   UNL     1       6.826   4.992  16.231  0.00  0.00    +0.000 A 
ATOM      8  C   UNL     1       6.920   5.158  17.606  0.00  0.00    +0.000 A 
ATOM      9  C   UNL     1       5.932   4.568  18.410  0.00  0.00    +0.000 A 
ATOM     10  C   UNL     1       4.861   3.827  17.826  0.00  0.00    +0.000 A 
ATOM     11  C   UNL     1       4.797   3.693  16.424  0.00  0.00    +0.000 A 
ATOM     12  C   UNL     1       5.802   4.284  15.655  0.00  0.00    +0.000 A 
ATOM     13  H   UNL     1       8.535   6.026  15.458  0.00  0.00    +0.000 HD
BRANCH   4  14
ATOM     14  C   UNL     1       5.224   3.649  13.209  0.00  0.00    +0.000 C 
BRANCH  14  15
ATOM     15  C   UNL     1       6.136   3.202  12.064  0.00  0.00    +0.000 C 
BRANCH  15  16
ATOM     16  N   UNL     1       5.832   1.830  11.665  0.00  0.00    +0.000 NA
ATOM     17  H   UNL     1       4.845   1.622  11.942  0.00  0.00    +0.000 HD
ATOM     18  H   UNL     1       5.894   1.732  10.626  0.00  0.00    +0.000 HD
ENDBRANCH  15  16
ENDBRANCH  14  15
ENDBRANCH   4  14
ENDBRANCH   3  10
ENDBRANCH   2   3
ENDBRANCH   1   2
BRANCH   1  19
ATOM     19  O   UNL     1       2.908   6.229  19.295  0.00  0.00    +0.000 OA
BRANCH  19  20
ATOM     20  C   UNL     1       2.242   7.418  19.319  0.00  0.00    +0.000 A 
ATOM     21  C   UNL     1       1.654   7.833  20.524  0.00  0.00    +0.000 A 
ATOM     22  C   UNL     1       0.920   9.028  20.591  0.00  0.00    +0.000 A 
ATOM     23  C   UNL     1       0.789   9.839  19.457  0.00  0.00    +0.000 A 
ATOM     24  C   UNL     1       1.382   9.419  18.252  0.00  0.00    +0.000 A 
ATOM     25  C   UNL     1       2.090   8.227  18.179  0.00  0.00    +0.000 A 
BRANCH  23  26
ATOM     26  O   UNL     1       0.090  11.005  19.532  0.00  0.00    +0.000 OA
BRANCH  26  27
ATOM     27  C   UNL     1       0.593  12.188  19.983  0.00  0.00    +0.000 A 
ATOM     28  C   UNL     1       1.528  12.898  19.198  0.00  0.00    +0.000 A 
ATOM     29  C   UNL     1       2.046  14.115  19.625  0.00  0.00    +0.000 A 
ATOM     30  C   UNL     1       1.650  14.649  20.846  0.00  0.00    +0.000 A 
ATOM     31  C   UNL     1       0.741  13.959  21.650  0.00  0.00    +0.000 A 
ATOM     32  C   UNL     1       0.203  12.720  21.241  0.00  0.00    +0.000 A 
BRANCH  32  33
ATOM     33  N   UNL     1      -0.729  12.045  22.093  0.00  0.00    +0.000 N 
ATOM     34  O   UNL     1      -0.357  11.301  22.945  0.00  0.00    +0.000 OA
ATOM     35  O   UNL     1      -2.024  12.230  21.936  0.00  0.00    +0.000 OA
ENDBRANCH  32  33
ENDBRANCH  26  27
ENDBRANCH  23  26
ENDBRANCH  19  20
ENDBRANCH   1  19
TORSDOF 11
ENDMDL
MODEL 8
REMARK VINA RESULT:      -7.8      0.849      1.406
REMARK  Name = 
REMARK  11 active torsions:
REMARK  status: ('A' for Active; 'I' for Inactive)
REMARK    1  A    between atoms: N_1  and  C_2
REMARK    2  A    between atoms: C_2  and  C_3
REMARK    3  A    between atoms: C_3  and  C_4
REMARK    4  A    between atoms: C_10  and  O_11
REMARK    5  A    between atoms: O_11  and  C_12
REMARK    6  A    between atoms: C_12  and  C_13
REMARK    7  A    between atoms: C_13  and  O_14
REMARK    8  A    between atoms: O_14  and  C_15
REMARK    9  A    between atoms: C_18  and  O_19
REMARK   10  A    between atoms: O_19  and  C_20
REMARK   11  A    between atoms: C_25  and  N_26
REMARK                            x       y       z     vdW  Elec       q    Type
REMARK                         _______ _______ _______ _____ _____    ______ ____
ROOT
ATOM      1  C   UNL     1       2.478   5.104  18.727  0.00  0.00    +0.000 C 
ENDROOT
BRANCH   1   2
ATOM      2  C   UNL     1       2.754   3.713  19.306  0.00  0.00    +0.000 C 
BRANCH   2   3
ATOM      3  O   UNL     1       3.811   3.107  18.657  0.00  0.00    +0.000 OA
BRANCH   3  10
ATOM      4  C   UNL     1       6.010   4.371  14.458  0.00  0.00    +0.000 A 
ATOM      5  C   UNL     1       7.137   5.175  14.320  0.00  0.00    +0.000 A 
ATOM      6  N   UNL     1       7.554   5.599  15.533  0.00  0.00    +0.000 N 
ATOM      7  C   UNL     1       6.706   5.071  16.432  0.00  0.00    +0.000 A 
ATOM      8  C   UNL     1       6.750   5.217  17.812  0.00  0.00    +0.000 A 
ATOM      9  C   UNL     1       5.772   4.560  18.575  0.00  0.00    +0.000 A 
ATOM     10  C   UNL     1       4.761   3.772  17.946  0.00  0.00    +0.000 A 
ATOM     11  C   UNL     1       4.747   3.661  16.541  0.00  0.00    +0.000 A 
ATOM     12  C   UNL     1       5.741   4.319  15.813  0.00  0.00    +0.000 A 
ATOM     13  H   UNL     1       8.379   6.209  15.730  0.00  0.00    +0.000 HD
BRANCH   4  14
ATOM     14  C   UNL     1       5.272   3.697  13.341  0.00  0.00    +0.000 C 
BRANCH  14  15
ATOM     15  C   UNL     1       6.246   3.294  12.230  0.00  0.00    +0.000 C 
BRANCH  15  16
ATOM     16  N   UNL     1       5.923   1.967  11.713  0.00  0.00    +0.000 NA
ATOM     17  H   UNL     1       4.890   1.827  11.802  0.00  0.00    +0.000 HD
ATOM     18  H   UNL     1       6.161   1.905  10.697  0.00  0.00    +0.000 HD
ENDBRANCH  15  16
ENDBRANCH  14  15
ENDBRANCH   4  14
ENDBRANCH   3  10
ENDBRANCH   2   3
ENDBRANCH   1   2
BRANCH   1  19
ATOM     19  O   UNL     1       2.663   6.139  19.633  0.00  0.00    +0.000 OA
BRANCH  19  20
ATOM     20  C   UNL     1       2.128   7.390  19.559  0.00  0.00    +0.000 A 
ATOM     21  C   UNL     1       2.176   8.068  18.330  0.00  0.00    +0.000 A 
ATOM     22  C   UNL     1       1.678   9.375  18.211  0.00  0.00    +0.000 A 
ATOM     23  C   UNL     1       1.100  10.012  19.317  0.00  0.00    +0.000 A 
ATOM     24  C   UNL     1       1.054   9.328  20.545  0.00  0.00    +0.000 A 
ATOM     25  C   UNL     1       1.564   8.042  20.669  0.00  0.00    +0.000 A 
BRANCH  23  26
ATOM     26  O   UNL     1       0.604  11.275  19.191  0.00  0.00    +0.000 OA
BRANCH  26  27
ATOM     27  C   UNL     1      -0.701  11.621  19.373  0.00  0.00    +0.000 A 
ATOM     28  C   UNL     1      -1.628  11.441  18.323  0.00  0.00    +0.000 A 
ATOM     29  C   UNL     1      -2.969  11.769  18.487  0.00  0.00    +0.000 A 
ATOM     30  C   UNL     1      -3.415  12.290  19.696  0.00  0.00    +0.000 A 
ATOM     31  C   UNL     1      -2.515  12.496  20.744  0.00  0.00    +0.000 A 
ATOM     32  C   UNL     1      -1.149  12.173  20.603  0.00  0.00    +0.000 A 
BRANCH  32  33
ATOM     33  N   UNL     1      -0.258  12.396  21.702  0.00  0.00    +0.000 N 
ATOM     34  O   UNL     1       0.675  13.127  21.600  0.00  0.00    +0.000 OA
ATOM     35  O   UNL     1      -0.455  11.778  22.849  0.00  0.00    +0.000 OA
ENDBRANCH  32  33
ENDBRANCH  26  27
ENDBRANCH  23  26
ENDBRANCH  19  20
ENDBRANCH   1  19
TORSDOF 11
ENDMDL
MODEL 9
REMARK VINA RESULT:      -7.8      0.750      1.147
REMARK  Name = 
REMARK  11 active torsions:
REMARK  status: ('A' for Active; 'I' for Inactive)
REMARK    1  A    between atoms: N_1  and  C_2
REMARK    2  A    between atoms: C_2  and  C_3
REMARK    3  A    between atoms: C_3  and  C_4
REMARK    4  A    between atoms: C_10  and  O_11
REMARK    5  A    between atoms: O_11  and  C_12
REMARK    6  A    between atoms: C_12  and  C_13
REMARK    7  A    between atoms: C_13  and  O_14
REMARK    8  A    between atoms: O_14  and  C_15
REMARK    9  A    between atoms: C_18  and  O_19
REMARK   10  A    between atoms: O_19  and  C_20
REMARK   11  A    between atoms: C_25  and  N_26
REMARK                            x       y       z     vdW  Elec       q    Type
REMARK                         _______ _______ _______ _____ _____    ______ ____
ROOT
ATOM      1  C   UNL     1       1.949   4.332  20.483  0.00  0.00    +0.000 C 
ENDROOT
BRANCH   1   2
ATOM      2  C   UNL     1       2.707   3.156  19.858  0.00  0.00    +0.000 C 
BRANCH   2   3
ATOM      3  O   UNL     1       2.957   3.383  18.520  0.00  0.00    +0.000 OA
BRANCH   3  10
ATOM      4  C   UNL     1       6.013   4.402  14.820  0.00  0.00    +0.000 A 
ATOM      5  C   UNL     1       7.320   4.866  14.927  0.00  0.00    +0.000 A 
ATOM      6  N   UNL     1       7.649   5.028  16.227  0.00  0.00    +0.000 N 
ATOM      7  C   UNL     1       6.567   4.671  16.940  0.00  0.00    +0.000 A 
ATOM      8  C   UNL     1       6.441   4.656  18.322  0.00  0.00    +0.000 A 
ATOM      9  C   UNL     1       5.222   4.226  18.868  0.00  0.00    +0.000 A 
ATOM     10  C   UNL     1       4.144   3.823  18.023  0.00  0.00    +0.000 A 
ATOM     11  C   UNL     1       4.310   3.865  16.624  0.00  0.00    +0.000 A 
ATOM     12  C   UNL     1       5.540   4.288  16.115  0.00  0.00    +0.000 A 
ATOM     13  H   UNL     1       8.567   5.359  16.601  0.00  0.00    +0.000 HD
BRANCH   4  14
ATOM     14  C   UNL     1       5.298   4.081  13.542  0.00  0.00    +0.000 C 
BRANCH  14  15
ATOM     15  C   UNL     1       6.177   3.199  12.651  0.00  0.00    +0.000 C 
BRANCH  15  16
ATOM     16  N   UNL     1       6.996   4.015  11.759  0.00  0.00    +0.000 NA
ATOM     17  H   UNL     1       7.577   3.372  11.173  0.00  0.00    +0.000 HD
ATOM     18  H   UNL     1       6.388   4.567  11.112  0.00  0.00    +0.000 HD
ENDBRANCH  15  16
ENDBRANCH  14  15
ENDBRANCH   4  14
ENDBRANCH   3  10
ENDBRANCH   2   3
ENDBRANCH   1   2
BRANCH   1  19
ATOM     19  O   UNL     1       2.652   5.528  20.466  0.00  0.00    +0.000 OA
BRANCH  19  20
ATOM     20  C   UNL     1       2.193   6.735  20.030  0.00  0.00    +0.000 A 
ATOM     21  C   UNL     1       2.511   7.143  18.725  0.00  0.00    +0.000 A 
ATOM     22  C   UNL     1       2.099   8.395  18.243  0.00  0.00    +0.000 A 
ATOM     23  C   UNL     1       1.338   9.247  19.054  0.00  0.00    +0.000 A 
ATOM     24  C   UNL     1       1.022   8.834  20.361  0.00  0.00    +0.000 A 
ATOM     25  C   UNL     1       1.447   7.603  20.846  0.00  0.00    +0.000 A 
BRANCH  23  26
ATOM     26  O   UNL     1       0.928  10.454  18.575  0.00  0.00    +0.000 OA
BRANCH  26  27
ATOM     27  C   UNL     1      -0.330  10.959  18.710  0.00  0.00    +0.000 A 
ATOM     28  C   UNL     1      -1.383  10.438  17.928  0.00  0.00    +0.000 A 
ATOM     29  C   UNL     1      -2.680  10.922  18.057  0.00  0.00    +0.000 A 
ATOM     30  C   UNL     1      -2.955  11.940  18.963  0.00  0.00    +0.000 A 
ATOM     31  C   UNL     1      -1.928  12.486  19.735  0.00  0.00    +0.000 A 
ATOM     32  C   UNL     1      -0.603  12.015  19.622  0.00  0.00    +0.000 A 
BRANCH  32  33
ATOM     33  N   UNL     1       0.422  12.598  20.434  0.00  0.00    +0.000 N 
ATOM     34  O   UNL     1       0.670  12.168  21.515  0.00  0.00    +0.000 OA
ATOM     35  O   UNL     1       1.101  13.639  19.996  0.00  0.00    +0.000 OA
ENDBRANCH  32  33
ENDBRANCH  26  27
ENDBRANCH  23  26
ENDBRANCH  19  20
ENDBRANCH   1  19
TORSDOF 11
ENDMDL
