MODEL 1
REMARK VINA RESULT:      -8.1      0.000      0.000
REMARK  Name = 
REMARK  2 active torsions:
REMARK  status: ('A' for Active; 'I' for Inactive)
REMARK    1  A    between atoms: C_2  and  C_3
REMARK    2  A    between atoms: C_11  and  C_12
REMARK                            x       y       z     vdW  Elec       q    Type
REMARK                         _______ _______ _______ _____ _____    ______ ____
ROOT
ATOM      1  O   UNL     1       2.608   9.402  17.916  0.00  0.00    +0.000 OA
ATOM      2  C   UNL     1       2.211   8.436  18.577  0.00  0.00    +0.000 C 
ATOM      3  N   UNL     1       2.884   7.216  18.512  0.00  0.00    +0.000 N 
ATOM      4  C   UNL     1       3.933   7.115  17.492  0.00  0.00    +0.000 C 
ATOM      5  C   UNL     1       4.311   5.630  17.436  0.00  0.00    +0.000 C 
ATOM      6  C   UNL     1       2.905   4.973  17.630  0.00  0.00    +0.000 C 
ATOM      7  C   UNL     1       2.230   5.921  18.657  0.00  0.00    +0.000 C 
ATOM      8  C   UNL     1       2.254   5.203  20.031  0.00  0.00    +0.000 C 
ATOM      9  C   UNL     1       1.146   4.139  19.886  0.00  0.00    +0.000 C 
ATOM     10  C   UNL     1       1.460   3.283  18.630  0.00  0.00    +0.000 C 
ATOM     11  N   UNL     1       2.824   3.553  18.090  0.00  0.00    +0.000 NA
ATOM     12  C   UNL     1       3.777   3.335  19.194  0.00  0.00    +0.000 C 
ATOM     13  C   UNL     1       3.540   4.374  20.308  0.00  0.00    +0.000 C 
ENDROOT
BRANCH   5  14
ATOM     14  C   UNL     1       5.146   5.238  16.232  0.00  0.00    +0.000 A 
ATOM     15  C   UNL     1       6.548   5.462  16.263  0.00  0.00    +0.000 A 
ATOM     16  C   UNL     1       7.377   5.063  15.210  0.00  0.00    +0.000 A 
ATOM     17  C   UNL     1       6.792   4.442  14.133  0.00  0.00    +0.000 A 
ATOM     18  C   UNL     1       5.438   4.210  14.088  0.00  0.00    +0.000 A 
ATOM     19  C   UNL     1       4.597   4.587  15.116  0.00  0.00    +0.000 A 
ATOM     20  O   UNL     1       5.058   3.575  12.946  0.00  0.00    +0.000 OA
ATOM     21  C   UNL     1       6.325   3.456  12.269  0.00  0.00    +0.000 C 
ATOM     22  O   UNL     1       7.435   3.977  13.028  0.00  0.00    +0.000 OA
ENDBRANCH   5  14
BRANCH   2  23
ATOM     23  C   UNL     1       1.009   8.592  19.518  0.00  0.00    +0.000 C 
ATOM     24  C   UNL     1       0.300   9.934  19.254  0.00  0.00    +0.000 C 
ATOM     25  C   UNL     1      -0.752  10.233  20.315  0.00  0.00    +0.000 C 
ATOM     26  O   UNL     1      -0.168  10.205  21.616  0.00  0.00    +0.000 OA
ATOM     27  C   UNL     1       0.378   8.935  21.939  0.00  0.00    +0.000 C 
ATOM     28  C   UNL     1       1.492   8.549  20.973  0.00  0.00    +0.000 C 
ENDBRANCH   2  23
TORSDOF 2
ENDMDL
MODEL 2
REMARK VINA RESULT:      -7.9      1.600      7.827
REMARK  Name = 
REMARK  2 active torsions:
REMARK  status: ('A' for Active; 'I' for Inactive)
REMARK    1  A    between atoms: C_2  and  C_3
REMARK    2  A    between atoms: C_11  and  C_12
REMARK                            x       y       z     vdW  Elec       q    Type
REMARK                         _______ _______ _______ _____ _____    ______ ____
ROOT
ATOM      1  O   UNL     1       4.721   7.763  16.628  0.00  0.00    +0.000 OA
ATOM      2  C   UNL     1       4.473   6.635  17.071  0.00  0.00    +0.000 C 
ATOM      3  N   UNL     1       3.386   6.438  17.922  0.00  0.00    +0.000 N 
ATOM      4  C   UNL     1       2.707   7.651  18.388  0.00  0.00    +0.000 C 
ATOM      5  C   UNL     1       1.758   7.190  19.501  0.00  0.00    +0.000 C 
ATOM      6  C   UNL     1       2.638   6.095  20.187  0.00  0.00    +0.000 C 
ATOM      7  C   UNL     1       3.356   5.436  18.979  0.00  0.00    +0.000 C 
ATOM      8  C   UNL     1       2.663   4.073  18.720  0.00  0.00    +0.000 C 
ATOM      9  C   UNL     1       3.202   3.187  19.863  0.00  0.00    +0.000 C 
ATOM     10  C   UNL     1       2.895   3.896  21.209  0.00  0.00    +0.000 C 
ATOM     11  N   UNL     1       1.977   5.059  21.038  0.00  0.00    +0.000 NA
ATOM     12  C   UNL     1       0.768   4.559  20.358  0.00  0.00    +0.000 C 
ATOM     13  C   UNL     1       1.123   4.076  18.938  0.00  0.00    +0.000 C 
ENDROOT
BRANCH   5  14
ATOM     14  C   UNL     1       1.188   8.313  20.347  0.00  0.00    +0.000 A 
ATOM     15  C   UNL     1       1.220   8.195  21.761  0.00  0.00    +0.000 A 
ATOM     16  C   UNL     1       0.768   9.225  22.593  0.00  0.00    +0.000 A 
ATOM     17  C   UNL     1       0.288  10.365  21.997  0.00  0.00    +0.000 A 
ATOM     18  C   UNL     1       0.256  10.502  20.629  0.00  0.00    +0.000 A 
ATOM     19  C   UNL     1       0.702   9.504  19.785  0.00  0.00    +0.000 A 
ATOM     20  O   UNL     1      -0.242  11.706  20.239  0.00  0.00    +0.000 OA
ATOM     21  C   UNL     1      -0.541  12.302  21.517  0.00  0.00    +0.000 C 
ATOM     22  O   UNL     1      -0.181  11.470  22.639  0.00  0.00    +0.000 OA
ENDBRANCH   5  14
BRANCH   2  23
ATOM     23  C   UNL     1       5.329   5.436  16.639  0.00  0.00    +0.000 C 
ATOM     24  C   UNL     1       6.665   5.436  17.406  0.00  0.00    +0.000 C 
ATOM     25  C   UNL     1       7.635   4.403  16.845  0.00  0.00    +0.000 C 
ATOM     26  O   UNL     1       7.840   4.620  15.450  0.00  0.00    +0.000 OA
ATOM     27  C   UNL     1       6.642   4.495  14.699  0.00  0.00    +0.000 C 
ATOM     28  C   UNL     1       5.606   5.524  15.133  0.00  0.00    +0.000 C 
ENDBRANCH   2  23
TORSDOF 2
ENDMDL
MODEL 3
REMARK VINA RESULT:      -7.9      1.604      7.915
REMARK  Name = 
REMARK  2 active torsions:
REMARK  status: ('A' for Active; 'I' for Inactive)
REMARK    1  A    between atoms: C_2  and  C_3
REMARK    2  A    between atoms: C_11  and  C_12
REMARK                            x       y       z     vdW  Elec       q    Type
REMARK                         _______ _______ _______ _____ _____    ______ ____
ROOT
ATOM      1  O   UNL     1       4.704   7.642  16.454  0.00  0.00    +0.000 OA
ATOM      2  C   UNL     1       4.474   6.540  16.964  0.00  0.00    +0.000 C 
ATOM      3  N   UNL     1       3.378   6.372  17.811  0.00  0.00    +0.000 N 
ATOM      4  C   UNL     1       2.668   7.598  18.191  0.00  0.00    +0.000 C 
ATOM      5  C   UNL     1       1.712   7.186  19.318  0.00  0.00    +0.000 C 
ATOM      6  C   UNL     1       2.605   6.156  20.084  0.00  0.00    +0.000 C 
ATOM      7  C   UNL     1       3.354   5.438  18.929  0.00  0.00    +0.000 C 
ATOM      8  C   UNL     1       2.694   4.047  18.748  0.00  0.00    +0.000 C 
ATOM      9  C   UNL     1       3.235   3.247  19.952  0.00  0.00    +0.000 C 
ATOM     10  C   UNL     1       2.894   4.032  21.246  0.00  0.00    +0.000 C 
ATOM     11  N   UNL     1       1.954   5.162  20.990  0.00  0.00    +0.000 NA
ATOM     12  C   UNL     1       0.765   4.593  20.327  0.00  0.00    +0.000 C 
ATOM     13  C   UNL     1       1.152   4.029  18.945  0.00  0.00    +0.000 C 
ENDROOT
BRANCH   5  14
ATOM     14  C   UNL     1       1.106   8.347  20.084  0.00  0.00    +0.000 A 
ATOM     15  C   UNL     1       1.054   9.626  19.469  0.00  0.00    +0.000 A 
ATOM     16  C   UNL     1       0.449  10.718  20.101  0.00  0.00    +0.000 A 
ATOM     17  C   UNL     1      -0.099  10.516  21.344  0.00  0.00    +0.000 A 
ATOM     18  C   UNL     1      -0.065   9.284  21.952  0.00  0.00    +0.000 A 
ATOM     19  C   UNL     1       0.519   8.188  21.349  0.00  0.00    +0.000 A 
ATOM     20  O   UNL     1      -0.670   9.290  23.171  0.00  0.00    +0.000 OA
ATOM     21  C   UNL     1      -1.067  10.672  23.269  0.00  0.00    +0.000 C 
ATOM     22  O   UNL     1      -0.735  11.451  22.102  0.00  0.00    +0.000 OA
ENDBRANCH   5  14
BRANCH   2  23
ATOM     23  C   UNL     1       5.361   5.335  16.621  0.00  0.00    +0.000 C 
ATOM     24  C   UNL     1       6.706   5.438  17.365  0.00  0.00    +0.000 C 
ATOM     25  C   UNL     1       7.700   4.392  16.878  0.00  0.00    +0.000 C 
ATOM     26  O   UNL     1       7.881   4.498  15.467  0.00  0.00    +0.000 OA
ATOM     27  C   UNL     1       6.678   4.275  14.746  0.00  0.00    +0.000 C 
ATOM     28  C   UNL     1       5.616   5.306  15.109  0.00  0.00    +0.000 C 
ENDBRANCH   2  23
TORSDOF 2
ENDMDL
MODEL 4
REMARK VINA RESULT:      -7.7      0.625      1.263
REMARK  Name = 
REMARK  2 active torsions:
REMARK  status: ('A' for Active; 'I' for Inactive)
REMARK    1  A    between atoms: C_2  and  C_3
REMARK    2  A    between atoms: C_11  and  C_12
REMARK                            x       y       z     vdW  Elec       q    Type
REMARK                         _______ _______ _______ _____ _____    ______ ____
ROOT
ATOM      1  O   UNL     1       2.611   9.311  17.918  0.00  0.00    +0.000 OA
ATOM      2  C   UNL     1       2.208   8.373  18.615  0.00  0.00    +0.000 C 
ATOM      3  N   UNL     1       2.847   7.134  18.564  0.00  0.00    +0.000 N 
ATOM      4  C   UNL     1       3.864   6.979  17.519  0.00  0.00    +0.000 C 
ATOM      5  C   UNL     1       4.202   5.484  17.492  0.00  0.00    +0.000 C 
ATOM      6  C   UNL     1       2.786   4.869  17.742  0.00  0.00    +0.000 C 
ATOM      7  C   UNL     1       2.165   5.862  18.761  0.00  0.00    +0.000 C 
ATOM      8  C   UNL     1       2.209   5.179  20.153  0.00  0.00    +0.000 C 
ATOM      9  C   UNL     1       1.070   4.141  20.067  0.00  0.00    +0.000 C 
ATOM     10  C   UNL     1       1.327   3.245  18.826  0.00  0.00    +0.000 C 
ATOM     11  N   UNL     1       2.681   3.464  18.241  0.00  0.00    +0.000 NA
ATOM     12  C   UNL     1       3.659   3.251  19.324  0.00  0.00    +0.000 C 
ATOM     13  C   UNL     1       3.480   4.324  20.417  0.00  0.00    +0.000 C 
ENDROOT
BRANCH   5  14
ATOM     14  C   UNL     1       4.993   5.039  16.276  0.00  0.00    +0.000 A 
ATOM     15  C   UNL     1       4.473   4.003  15.456  0.00  0.00    +0.000 A 
ATOM     16  C   UNL     1       5.125   3.597  14.288  0.00  0.00    +0.000 A 
ATOM     17  C   UNL     1       6.296   4.234  13.953  0.00  0.00    +0.000 A 
ATOM     18  C   UNL     1       6.811   5.243  14.729  0.00  0.00    +0.000 A 
ATOM     19  C   UNL     1       6.184   5.670  15.884  0.00  0.00    +0.000 A 
ATOM     20  O   UNL     1       7.966   5.751  14.221  0.00  0.00    +0.000 OA
ATOM     21  C   UNL     1       8.130   4.929  13.049  0.00  0.00    +0.000 C 
ATOM     22  O   UNL     1       7.059   3.983  12.854  0.00  0.00    +0.000 OA
ENDBRANCH   5  14
BRANCH   2  23
ATOM     23  C   UNL     1       1.037   8.585  19.585  0.00  0.00    +0.000 C 
ATOM     24  C   UNL     1       0.360   9.942  19.309  0.00  0.00    +0.000 C 
ATOM     25  C   UNL     1      -0.653  10.295  20.390  0.00  0.00    +0.000 C 
ATOM     26  O   UNL     1      -0.035  10.279  21.675  0.00  0.00    +0.000 OA
ATOM     27  C   UNL     1       0.484   9.001  22.013  0.00  0.00    +0.000 C 
ATOM     28  C   UNL     1       1.559   8.560  21.027  0.00  0.00    +0.000 C 
ENDBRANCH   2  23
TORSDOF 2
ENDMDL
MODEL 5
REMARK VINA RESULT:      -7.4      3.862      7.223
REMARK  Name = 
REMARK  2 active torsions:
REMARK  status: ('A' for Active; 'I' for Inactive)
REMARK    1  A    between atoms: C_2  and  C_3
REMARK    2  A    between atoms: C_11  and  C_12
REMARK                            x       y       z     vdW  Elec       q    Type
REMARK                         _______ _______ _______ _____ _____    ______ ____
ROOT
ATOM      1  O   UNL     1      -3.280   9.710  16.773  0.00  0.00    +0.000 OA
ATOM      2  C   UNL     1      -3.086  10.623  17.583  0.00  0.00    +0.000 C 
ATOM      3  N   UNL     1      -1.816  10.823  18.126  0.00  0.00    +0.000 N 
ATOM      4  C   UNL     1      -0.820   9.789  17.826  0.00  0.00    +0.000 C 
ATOM      5  C   UNL     1       0.371  10.087  18.745  0.00  0.00    +0.000 C 
ATOM      6  C   UNL     1      -0.378  10.544  20.040  0.00  0.00    +0.000 C 
ATOM      7  C   UNL     1      -1.582  11.340  19.468  0.00  0.00    +0.000 C 
ATOM      8  C   UNL     1      -1.269  12.847  19.661  0.00  0.00    +0.000 C 
ATOM      9  C   UNL     1      -1.506  13.059  21.172  0.00  0.00    +0.000 C 
ATOM     10  C   UNL     1      -0.622  12.044  21.946  0.00  0.00    +0.000 C 
ATOM     11  N   UNL     1       0.357  11.355  21.057  0.00  0.00    +0.000 NA
ATOM     12  C   UNL     1       1.139  12.406  20.379  0.00  0.00    +0.000 C 
ATOM     13  C   UNL     1       0.223  13.233  19.455  0.00  0.00    +0.000 C 
ENDROOT
BRANCH   5  14
ATOM     14  C   UNL     1       1.388   8.965  18.840  0.00  0.00    +0.000 A 
ATOM     15  C   UNL     1       1.375   8.118  19.980  0.00  0.00    +0.000 A 
ATOM     16  C   UNL     1       2.246   7.029  20.092  0.00  0.00    +0.000 A 
ATOM     17  C   UNL     1       3.122   6.800  19.059  0.00  0.00    +0.000 A 
ATOM     18  C   UNL     1       3.144   7.604  17.945  0.00  0.00    +0.000 A 
ATOM     19  C   UNL     1       2.291   8.681  17.804  0.00  0.00    +0.000 A 
ATOM     20  O   UNL     1       4.071   7.203  17.034  0.00  0.00    +0.000 OA
ATOM     21  C   UNL     1       4.646   6.069  17.714  0.00  0.00    +0.000 C 
ATOM     22  O   UNL     1       4.030   5.788  18.987  0.00  0.00    +0.000 OA
ENDBRANCH   5  14
BRANCH   2  23
ATOM     23  C   UNL     1      -4.230  11.578  17.952  0.00  0.00    +0.000 C 
ATOM     24  C   UNL     1      -5.224  10.874  18.895  0.00  0.00    +0.000 C 
ATOM     25  C   UNL     1      -6.487  11.701  19.100  0.00  0.00    +0.000 C 
ATOM     26  O   UNL     1      -7.092  12.004  17.844  0.00  0.00    +0.000 OA
ATOM     27  C   UNL     1      -6.243  12.769  17.002  0.00  0.00    +0.000 C 
ATOM     28  C   UNL     1      -4.960  12.014  16.676  0.00  0.00    +0.000 C 
ENDBRANCH   2  23
TORSDOF 2
ENDMDL
MODEL 6
REMARK VINA RESULT:      -7.2      4.245      8.161
REMARK  Name = 
REMARK  2 active torsions:
REMARK  status: ('A' for Active; 'I' for Inactive)
REMARK    1  A    between atoms: C_2  and  C_3
REMARK    2  A    between atoms: C_11  and  C_12
REMARK                            x       y       z     vdW  Elec       q    Type
REMARK                         _______ _______ _______ _____ _____    ______ ____
ROOT
ATOM      1  O   UNL     1      -4.141  10.619  17.752  0.00  0.00    +0.000 OA
ATOM      2  C   UNL     1      -3.839  11.541  18.517  0.00  0.00    +0.000 C 
ATOM      3  N   UNL     1      -2.522  11.688  18.954  0.00  0.00    +0.000 N 
ATOM      4  C   UNL     1      -1.606  10.597  18.608  0.00  0.00    +0.000 C 
ATOM      5  C   UNL     1      -0.332  10.856  19.423  0.00  0.00    +0.000 C 
ATOM      6  C   UNL     1      -0.953  11.384  20.758  0.00  0.00    +0.000 C 
ATOM      7  C   UNL     1      -2.157  12.227  20.258  0.00  0.00    +0.000 C 
ATOM      8  C   UNL     1      -1.755  13.720  20.382  0.00  0.00    +0.000 C 
ATOM      9  C   UNL     1      -1.861  13.982  21.899  0.00  0.00    +0.000 C 
ATOM     10  C   UNL     1      -0.971  12.943  22.632  0.00  0.00    +0.000 C 
ATOM     11  N   UNL     1      -0.100  12.181  21.691  0.00  0.00    +0.000 NA
ATOM     12  C   UNL     1       0.678  13.172  20.923  0.00  0.00    +0.000 C 
ATOM     13  C   UNL     1      -0.266  14.022  20.049  0.00  0.00    +0.000 C 
ENDROOT
BRANCH   5  14
ATOM     14  C   UNL     1       0.632   9.685  19.472  0.00  0.00    +0.000 A 
ATOM     15  C   UNL     1       0.700   8.897  20.651  0.00  0.00    +0.000 A 
ATOM     16  C   UNL     1       1.522   7.768  20.731  0.00  0.00    +0.000 A 
ATOM     17  C   UNL     1       2.269   7.440  19.626  0.00  0.00    +0.000 A 
ATOM     18  C   UNL     1       2.211   8.186  18.473  0.00  0.00    +0.000 A 
ATOM     19  C   UNL     1       1.403   9.301  18.364  0.00  0.00    +0.000 A 
ATOM     20  O   UNL     1       3.014   7.691  17.493  0.00  0.00    +0.000 OA
ATOM     21  C   UNL     1       3.601   6.561  18.170  0.00  0.00    +0.000 C 
ATOM     22  O   UNL     1       3.112   6.378  19.514  0.00  0.00    +0.000 OA
ENDBRANCH   5  14
BRANCH   2  23
ATOM     23  C   UNL     1      -4.901  12.563  18.945  0.00  0.00    +0.000 C 
ATOM     24  C   UNL     1      -5.497  12.168  20.310  0.00  0.00    +0.000 C 
ATOM     25  C   UNL     1      -6.709  13.020  20.662  0.00  0.00    +0.000 C 
ATOM     26  O   UNL     1      -7.689  12.942  19.629  0.00  0.00    +0.000 OA
ATOM     27  C   UNL     1      -7.207  13.425  18.384  0.00  0.00    +0.000 C 
ATOM     28  C   UNL     1      -6.018  12.607  17.895  0.00  0.00    +0.000 C 
ENDBRANCH   2  23
TORSDOF 2
ENDMDL
MODEL 7
REMARK VINA RESULT:      -7.2      4.052      7.111
REMARK  Name = 
REMARK  2 active torsions:
REMARK  status: ('A' for Active; 'I' for Inactive)
REMARK    1  A    between atoms: C_2  and  C_3
REMARK    2  A    between atoms: C_11  and  C_12
REMARK                            x       y       z     vdW  Elec       q    Type
REMARK                         _______ _______ _______ _____ _____    ______ ____
ROOT
ATOM      1  O   UNL     1      -3.237   9.746  16.543  0.00  0.00    +0.000 OA
ATOM      2  C   UNL     1      -3.086  10.516  17.499  0.00  0.00    +0.000 C 
ATOM      3  N   UNL     1      -1.836  10.649  18.102  0.00  0.00    +0.000 N 
ATOM      4  C   UNL     1      -0.807   9.700  17.663  0.00  0.00    +0.000 C 
ATOM      5  C   UNL     1       0.354   9.865  18.652  0.00  0.00    +0.000 C 
ATOM      6  C   UNL     1      -0.437  10.085  19.983  0.00  0.00    +0.000 C 
ATOM      7  C   UNL     1      -1.646  10.941  19.517  0.00  0.00    +0.000 C 
ATOM      8  C   UNL     1      -1.376  12.400  19.967  0.00  0.00    +0.000 C 
ATOM      9  C   UNL     1      -1.654  12.353  21.484  0.00  0.00    +0.000 C 
ATOM     10  C   UNL     1      -0.765  11.242  22.104  0.00  0.00    +0.000 C 
ATOM     11  N   UNL     1       0.253  10.731  21.141  0.00  0.00    +0.000 NA
ATOM     12  C   UNL     1       1.025  11.896  20.668  0.00  0.00    +0.000 C 
ATOM     13  C   UNL     1       0.110  12.846  19.868  0.00  0.00    +0.000 C 
ENDROOT
BRANCH   5  14
ATOM     14  C   UNL     1       1.396   8.765  18.588  0.00  0.00    +0.000 A 
ATOM     15  C   UNL     1       2.383   8.808  17.569  0.00  0.00    +0.000 A 
ATOM     16  C   UNL     1       3.407   7.858  17.499  0.00  0.00    +0.000 A 
ATOM     17  C   UNL     1       3.431   6.871  18.455  0.00  0.00    +0.000 A 
ATOM     18  C   UNL     1       2.489   6.816  19.454  0.00  0.00    +0.000 A 
ATOM     19  C   UNL     1       1.472   7.746  19.551  0.00  0.00    +0.000 A 
ATOM     20  O   UNL     1       2.694   5.775  20.304  0.00  0.00    +0.000 OA
ATOM     21  C   UNL     1       3.859   5.167  19.711  0.00  0.00    +0.000 C 
ATOM     22  O   UNL     1       4.351   5.873  18.554  0.00  0.00    +0.000 OA
ENDBRANCH   5  14
BRANCH   2  23
ATOM     23  C   UNL     1      -4.262  11.372  17.988  0.00  0.00    +0.000 C 
ATOM     24  C   UNL     1      -5.282  10.493  18.738  0.00  0.00    +0.000 C 
ATOM     25  C   UNL     1      -6.567  11.253  19.037  0.00  0.00    +0.000 C 
ATOM     26  O   UNL     1      -7.125  11.780  17.835  0.00  0.00    +0.000 OA
ATOM     27  C   UNL     1      -6.256  12.699  17.189  0.00  0.00    +0.000 C 
ATOM     28  C   UNL     1      -4.946  12.033  16.785  0.00  0.00    +0.000 C 
ENDBRANCH   2  23
TORSDOF 2
ENDMDL
MODEL 8
REMARK VINA RESULT:      -7.2      9.010     12.490
REMARK  Name = 
REMARK  2 active torsions:
REMARK  status: ('A' for Active; 'I' for Inactive)
REMARK    1  A    between atoms: C_2  and  C_3
REMARK    2  A    between atoms: C_11  and  C_12
REMARK                            x       y       z     vdW  Elec       q    Type
REMARK                         _______ _______ _______ _____ _____    ______ ____
ROOT
ATOM      1  O   UNL     1       9.471  10.780  20.880  0.00  0.00    +0.000 OA
ATOM      2  C   UNL     1       9.466  12.014  20.944  0.00  0.00    +0.000 C 
ATOM      3  N   UNL     1       9.114  12.656  22.131  0.00  0.00    +0.000 N 
ATOM      4  C   UNL     1       8.583  11.795  23.193  0.00  0.00    +0.000 C 
ATOM      5  C   UNL     1       8.022  12.749  24.254  0.00  0.00    +0.000 C 
ATOM      6  C   UNL     1       7.415  13.863  23.341  0.00  0.00    +0.000 C 
ATOM      7  C   UNL     1       8.448  13.951  22.186  0.00  0.00    +0.000 C 
ATOM      8  C   UNL     1       9.289  15.233  22.418  0.00  0.00    +0.000 C 
ATOM      9  C   UNL     1       8.324  16.362  21.996  0.00  0.00    +0.000 C 
ATOM     10  C   UNL     1       7.016  16.211  22.817  0.00  0.00    +0.000 C 
ATOM     11  N   UNL     1       7.153  15.216  23.920  0.00  0.00    +0.000 NA
ATOM     12  C   UNL     1       8.307  15.634  24.739  0.00  0.00    +0.000 C 
ATOM     13  C   UNL     1       9.603  15.542  23.909  0.00  0.00    +0.000 C 
ENDROOT
BRANCH   5  14
ATOM     14  C   UNL     1       7.138  12.085  25.293  0.00  0.00    +0.000 A 
ATOM     15  C   UNL     1       7.401  12.313  26.669  0.00  0.00    +0.000 A 
ATOM     16  C   UNL     1       6.581  11.780  27.670  0.00  0.00    +0.000 A 
ATOM     17  C   UNL     1       5.504  11.023  27.279  0.00  0.00    +0.000 A 
ATOM     18  C   UNL     1       5.228  10.798  25.952  0.00  0.00    +0.000 A 
ATOM     19  C   UNL     1       6.016  11.317  24.943  0.00  0.00    +0.000 A 
ATOM     20  O   UNL     1       4.115  10.037  25.774  0.00  0.00    +0.000 OA
ATOM     21  C   UNL     1       3.735   9.790  27.143  0.00  0.00    +0.000 C 
ATOM     22  O   UNL     1       4.595  10.436  28.104  0.00  0.00    +0.000 OA
ENDBRANCH   5  14
BRANCH   2  23
ATOM     23  C   UNL     1       9.903  12.846  19.730  0.00  0.00    +0.000 C 
ATOM     24  C   UNL     1       9.834  11.993  18.449  0.00  0.00    +0.000 C 
ATOM     25  C   UNL     1      10.475  12.703  17.264  0.00  0.00    +0.000 C 
ATOM     26  O   UNL     1      11.820  13.067  17.571  0.00  0.00    +0.000 OA
ATOM     27  C   UNL     1      11.904  13.962  18.669  0.00  0.00    +0.000 C 
ATOM     28  C   UNL     1      11.341  13.336  19.939  0.00  0.00    +0.000 C 
ENDBRANCH   2  23
TORSDOF 2
ENDMDL
MODEL 9
REMARK VINA RESULT:      -6.9      4.209      8.152
REMARK  Name = 
REMARK  2 active torsions:
REMARK  status: ('A' for Active; 'I' for Inactive)
REMARK    1  A    between atoms: C_2  and  C_3
REMARK    2  A    between atoms: C_11  and  C_12
REMARK                            x       y       z     vdW  Elec       q    Type
REMARK                         _______ _______ _______ _____ _____    ______ ____
ROOT
ATOM      1  O   UNL     1      -2.378  11.598  23.399  0.00  0.00    +0.000 OA
ATOM      2  C   UNL     1      -1.936  12.544  22.736  0.00  0.00    +0.000 C 
ATOM      3  N   UNL     1      -1.188  12.305  21.584  0.00  0.00    +0.000 N 
ATOM      4  C   UNL     1      -0.815  10.908  21.339  0.00  0.00    +0.000 C 
ATOM      5  C   UNL     1       0.213  10.949  20.202  0.00  0.00    +0.000 C 
ATOM      6  C   UNL     1       1.004  12.244  20.582  0.00  0.00    +0.000 C 
ATOM      7  C   UNL     1      -0.116  13.176  21.118  0.00  0.00    +0.000 C 
ATOM      8  C   UNL     1      -0.410  14.224  20.014  0.00  0.00    +0.000 C 
ATOM      9  C   UNL     1       0.799  15.179  20.112  0.00  0.00    +0.000 C 
ATOM     10  C   UNL     1       2.094  14.336  19.967  0.00  0.00    +0.000 C 
ATOM     11  N   UNL     1       1.811  12.937  19.533  0.00  0.00    +0.000 NA
ATOM     12  C   UNL     1       1.030  13.021  18.284  0.00  0.00    +0.000 C 
ATOM     13  C   UNL     1      -0.339  13.674  18.561  0.00  0.00    +0.000 C 
ENDROOT
BRANCH   5  14
ATOM     14  C   UNL     1       0.977   9.654  19.996  0.00  0.00    +0.000 A 
ATOM     15  C   UNL     1       0.961   8.674  21.023  0.00  0.00    +0.000 A 
ATOM     16  C   UNL     1       1.592   7.436  20.864  0.00  0.00    +0.000 A 
ATOM     17  C   UNL     1       2.234   7.193  19.674  0.00  0.00    +0.000 A 
ATOM     18  C   UNL     1       2.254   8.126  18.665  0.00  0.00    +0.000 A 
ATOM     19  C   UNL     1       1.633   9.354  18.792  0.00  0.00    +0.000 A 
ATOM     20  O   UNL     1       2.929   7.690  17.567  0.00  0.00    +0.000 OA
ATOM     21  C   UNL     1       3.351   6.385  18.010  0.00  0.00    +0.000 C 
ATOM     22  O   UNL     1       2.889   6.049  19.335  0.00  0.00    +0.000 OA
ENDBRANCH   5  14
BRANCH   2  23
ATOM     23  C   UNL     1      -2.259  13.987  23.148  0.00  0.00    +0.000 C 
ATOM     24  C   UNL     1      -1.262  14.467  24.220  0.00  0.00    +0.000 C 
ATOM     25  C   UNL     1      -1.683  15.802  24.822  0.00  0.00    +0.000 C 
ATOM     26  O   UNL     1      -3.006  15.715  25.348  0.00  0.00    +0.000 OA
ATOM     27  C   UNL     1      -3.968  15.403  24.352  0.00  0.00    +0.000 C 
ATOM     28  C   UNL     1      -3.683  14.049  23.712  0.00  0.00    +0.000 C 
ENDBRANCH   2  23
TORSDOF 2
ENDMDL
