MODEL 1
REMARK VINA RESULT:      -7.3      0.000      0.000
REMARK  Name = 
REMARK  6 active torsions:
REMARK  status: ('A' for Active; 'I' for Inactive)
REMARK    1  A    between atoms: C_1  and  C_2
REMARK    2  A    between atoms: C_2  and  O_3
REMARK    3  A    between atoms: O_3  and  C_4
REMARK    4  A    between atoms: C_4  and  C_6
REMARK    5  A    between atoms: C_9  and  N_10
REMARK    6  A    between atoms: C_11  and  C_13
REMARK                            x       y       z     vdW  Elec       q    Type
REMARK                         _______ _______ _______ _____ _____    ______ ____
ROOT
ATOM      1  C   UNL     1       6.402   5.177  17.216  0.00  0.00    +0.000 A 
ATOM      2  C   UNL     1       7.134   4.917  18.376  0.00  0.00    +0.000 A 
ATOM      3  C   UNL     1       7.895   5.924  18.974  0.00  0.00    +0.000 A 
ATOM      4  C   UNL     1       7.941   7.206  18.427  0.00  0.00    +0.000 A 
ATOM      5  C   UNL     1       7.186   7.476  17.277  0.00  0.00    +0.000 A 
ATOM      6  C   UNL     1       6.420   6.468  16.674  0.00  0.00    +0.000 A 
ENDROOT
BRANCH   4   7
ATOM      7  N   UNL     1       8.736   8.247  18.954  0.00  0.00    +0.000 N 
ATOM      8  C   UNL     1       8.697   9.582  18.595  0.00  0.00    +0.000 C 
ATOM      9  O   UNL     1       7.997  10.080  17.725  0.00  0.00    +0.000 OA
ATOM     10  H   UNL     1       9.367   7.995  19.701  0.00  0.00    +0.000 HD
BRANCH   8  11
ATOM     11  C   UNL     1       9.582  10.513  19.365  0.00  0.00    +0.000 C 
ATOM     12  C   UNL     1      10.646  11.302  18.634  0.00  0.00    +0.000 C 
ATOM     13  C   UNL     1      12.005  11.593  19.203  0.00  0.00    +0.000 C 
ATOM     14  C   UNL     1      12.134  13.111  19.345  0.00  0.00    +0.000 C 
ATOM     15  C   UNL     1      11.098  13.701  20.317  0.00  0.00    +0.000 C 
ATOM     16  C   UNL     1       9.872  12.810  20.553  0.00  0.00    +0.000 C 
ATOM     17  C   UNL     1       9.513  12.023  19.322  0.00  0.00    +0.000 C 
ENDBRANCH   8  11
ENDBRANCH   4   7
BRANCH   1  18
ATOM     18  C   UNL     1       5.715   4.032  16.564  0.00  0.00    +0.000 C 
ATOM     19  O   UNL     1       5.950   3.663  15.422  0.00  0.00    +0.000 OA
BRANCH  18  20
ATOM     20  O   UNL     1       4.725   3.567  17.363  0.00  0.00    +0.000 OA
BRANCH  20  22
ATOM     21  C   UNL     1       2.350   3.439  17.545  0.00  0.00    +0.000 C 
ATOM     22  C   UNL     1       3.539   4.371  17.390  0.00  0.00    +0.000 C 
ENDBRANCH  20  22
ENDBRANCH  18  20
ENDBRANCH   1  18
TORSDOF 5
ENDMDL
MODEL 2
REMARK VINA RESULT:      -7.2      0.746      1.241
REMARK  Name = 
REMARK  6 active torsions:
REMARK  status: ('A' for Active; 'I' for Inactive)
REMARK    1  A    between atoms: C_1  and  C_2
REMARK    2  A    between atoms: C_2  and  O_3
REMARK    3  A    between atoms: O_3  and  C_4
REMARK    4  A    between atoms: C_4  and  C_6
REMARK    5  A    between atoms: C_9  and  N_10
REMARK    6  A    between atoms: C_11  and  C_13
REMARK                            x       y       z     vdW  Elec       q    Type
REMARK                         _______ _______ _______ _____ _____    ______ ____
ROOT
ATOM      1  C   UNL     1       5.930   4.922  17.586  0.00  0.00    +0.000 A 
ATOM      2  C   UNL     1       6.395   5.844  16.646  0.00  0.00    +0.000 A 
ATOM      3  C   UNL     1       7.312   6.832  17.016  0.00  0.00    +0.000 A 
ATOM      4  C   UNL     1       7.779   6.919  18.326  0.00  0.00    +0.000 A 
ATOM      5  C   UNL     1       7.334   5.978  19.266  0.00  0.00    +0.000 A 
ATOM      6  C   UNL     1       6.414   4.984  18.899  0.00  0.00    +0.000 A 
ENDROOT
BRANCH   4   7
ATOM      7  N   UNL     1       8.660   7.929  18.771  0.00  0.00    +0.000 N 
ATOM      8  C   UNL     1       8.571   9.283  18.504  0.00  0.00    +0.000 C 
ATOM      9  O   UNL     1       7.738   9.830  17.795  0.00  0.00    +0.000 OA
ATOM     10  H   UNL     1       9.406   7.635  19.385  0.00  0.00    +0.000 HD
BRANCH   8  11
ATOM     11  C   UNL     1       9.580  10.168  19.167  0.00  0.00    +0.000 C 
ATOM     12  C   UNL     1      10.216  11.292  18.378  0.00  0.00    +0.000 C 
ATOM     13  C   UNL     1      11.653  11.702  18.525  0.00  0.00    +0.000 C 
ATOM     14  C   UNL     1      11.674  13.145  19.034  0.00  0.00    +0.000 C 
ATOM     15  C   UNL     1      11.015  13.290  20.417  0.00  0.00    +0.000 C 
ATOM     16  C   UNL     1      10.057  12.151  20.784  0.00  0.00    +0.000 C 
ATOM     17  C   UNL     1       9.350  11.607  19.573  0.00  0.00    +0.000 C 
ENDBRANCH   8  11
ENDBRANCH   4   7
BRANCH   1  18
ATOM     18  C   UNL     1       4.867   3.978  17.157  0.00  0.00    +0.000 C 
ATOM     19  O   UNL     1       4.840   3.442  16.058  0.00  0.00    +0.000 OA
BRANCH  18  20
ATOM     20  O   UNL     1       3.893   3.916  18.097  0.00  0.00    +0.000 OA
BRANCH  20  22
ATOM     21  C   UNL     1       1.521   4.080  17.899  0.00  0.00    +0.000 C 
ATOM     22  C   UNL     1       2.826   4.857  17.928  0.00  0.00    +0.000 C 
ENDBRANCH  20  22
ENDBRANCH  18  20
ENDBRANCH   1  18
TORSDOF 5
ENDMDL
MODEL 3
REMARK VINA RESULT:      -7.1      5.325      7.379
REMARK  Name = 
REMARK  6 active torsions:
REMARK  status: ('A' for Active; 'I' for Inactive)
REMARK    1  A    between atoms: C_1  and  C_2
REMARK    2  A    between atoms: C_2  and  O_3
REMARK    3  A    between atoms: O_3  and  C_4
REMARK    4  A    between atoms: C_4  and  C_6
REMARK    5  A    between atoms: C_9  and  N_10
REMARK    6  A    between atoms: C_11  and  C_13
REMARK                            x       y       z     vdW  Elec       q    Type
REMARK                         _______ _______ _______ _____ _____    ______ ____
ROOT
ATOM      1  C   UNL     1       5.616   5.140  16.757  0.00  0.00    +0.000 A 
ATOM      2  C   UNL     1       4.451   4.432  17.059  0.00  0.00    +0.000 A 
ATOM      3  C   UNL     1       3.360   5.080  17.645  0.00  0.00    +0.000 A 
ATOM      4  C   UNL     1       3.411   6.441  17.940  0.00  0.00    +0.000 A 
ATOM      5  C   UNL     1       4.570   7.159  17.613  0.00  0.00    +0.000 A 
ATOM      6  C   UNL     1       5.668   6.513  17.024  0.00  0.00    +0.000 A 
ENDROOT
BRANCH   4   7
ATOM      7  N   UNL     1       2.364   7.137  18.583  0.00  0.00    +0.000 N 
ATOM      8  C   UNL     1       1.955   6.989  19.896  0.00  0.00    +0.000 C 
ATOM      9  O   UNL     1       2.402   6.195  20.711  0.00  0.00    +0.000 OA
ATOM     10  H   UNL     1       1.896   7.847  18.038  0.00  0.00    +0.000 HD
BRANCH   8  11
ATOM     11  C   UNL     1       0.874   7.910  20.372  0.00  0.00    +0.000 C 
ATOM     12  C   UNL     1       1.148   8.837  21.537  0.00  0.00    +0.000 C 
ATOM     13  C   UNL     1       0.130   9.174  22.588  0.00  0.00    +0.000 C 
ATOM     14  C   UNL     1      -0.136  10.679  22.511  0.00  0.00    +0.000 C 
ATOM     15  C   UNL     1      -0.726  11.103  21.155  0.00  0.00    +0.000 C 
ATOM     16  C   UNL     1      -0.473  10.107  20.016  0.00  0.00    +0.000 C 
ATOM     17  C   UNL     1       0.849   9.408  20.172  0.00  0.00    +0.000 C 
ENDBRANCH   8  11
ENDBRANCH   4   7
BRANCH   1  18
ATOM     18  C   UNL     1       6.779   4.367  16.250  0.00  0.00    +0.000 C 
ATOM     19  O   UNL     1       7.906   4.457  16.717  0.00  0.00    +0.000 OA
BRANCH  18  20
ATOM     20  O   UNL     1       6.430   3.673  15.141  0.00  0.00    +0.000 OA
BRANCH  20  22
ATOM     21  C   UNL     1       5.979   3.546  12.801  0.00  0.00    +0.000 C 
ATOM     22  C   UNL     1       6.614   4.375  13.904  0.00  0.00    +0.000 C 
ENDBRANCH  20  22
ENDBRANCH  18  20
ENDBRANCH   1  18
TORSDOF 5
ENDMDL
MODEL 4
REMARK VINA RESULT:      -7.1      5.324      7.329
REMARK  Name = 
REMARK  6 active torsions:
REMARK  status: ('A' for Active; 'I' for Inactive)
REMARK    1  A    between atoms: C_1  and  C_2
REMARK    2  A    between atoms: C_2  and  O_3
REMARK    3  A    between atoms: O_3  and  C_4
REMARK    4  A    between atoms: C_4  and  C_6
REMARK    5  A    between atoms: C_9  and  N_10
REMARK    6  A    between atoms: C_11  and  C_13
REMARK                            x       y       z     vdW  Elec       q    Type
REMARK                         _______ _______ _______ _____ _____    ______ ____
ROOT
ATOM      1  C   UNL     1       5.538   5.033  16.755  0.00  0.00    +0.000 A 
ATOM      2  C   UNL     1       5.712   6.408  16.922  0.00  0.00    +0.000 A 
ATOM      3  C   UNL     1       4.712   7.182  17.515  0.00  0.00    +0.000 A 
ATOM      4  C   UNL     1       3.522   6.601  17.950  0.00  0.00    +0.000 A 
ATOM      5  C   UNL     1       3.355   5.216  17.807  0.00  0.00    +0.000 A 
ATOM      6  C   UNL     1       4.357   4.435  17.213  0.00  0.00    +0.000 A 
ENDROOT
BRANCH   4   7
ATOM      7  N   UNL     1       2.453   7.341  18.503  0.00  0.00    +0.000 N 
ATOM      8  C   UNL     1       2.005   8.583  18.092  0.00  0.00    +0.000 C 
ATOM      9  O   UNL     1       2.490   9.274  17.208  0.00  0.00    +0.000 OA
ATOM     10  H   UNL     1       1.936   6.894  19.247  0.00  0.00    +0.000 HD
BRANCH   8  11
ATOM     11  C   UNL     1       0.791   9.123  18.782  0.00  0.00    +0.000 C 
ATOM     12  C   UNL     1       0.916   9.665  20.190  0.00  0.00    +0.000 C 
ATOM     13  C   UNL     1      -0.136   9.488  21.246  0.00  0.00    +0.000 C 
ATOM     14  C   UNL     1      -0.646  10.878  21.632  0.00  0.00    +0.000 C 
ATOM     15  C   UNL     1      -1.307  11.610  20.450  0.00  0.00    +0.000 C 
ATOM     16  C   UNL     1      -0.901  11.079  19.070  0.00  0.00    +0.000 C 
ATOM     17  C   UNL     1       0.519  10.584  19.060  0.00  0.00    +0.000 C 
ENDBRANCH   8  11
ENDBRANCH   4   7
BRANCH   1  18
ATOM     18  C   UNL     1       6.586   4.291  16.008  0.00  0.00    +0.000 C 
ATOM     19  O   UNL     1       7.785   4.434  16.201  0.00  0.00    +0.000 OA
BRANCH  18  20
ATOM     20  O   UNL     1       6.021   3.557  15.020  0.00  0.00    +0.000 OA
BRANCH  20  22
ATOM     21  C   UNL     1       6.152   3.428  12.641  0.00  0.00    +0.000 C 
ATOM     22  C   UNL     1       5.722   4.283  13.820  0.00  0.00    +0.000 C 
ENDBRANCH  20  22
ENDBRANCH  18  20
ENDBRANCH   1  18
TORSDOF 5
ENDMDL
MODEL 5
REMARK VINA RESULT:      -7.0      5.836      8.686
REMARK  Name = 
REMARK  6 active torsions:
REMARK  status: ('A' for Active; 'I' for Inactive)
REMARK    1  A    between atoms: C_1  and  C_2
REMARK    2  A    between atoms: C_2  and  O_3
REMARK    3  A    between atoms: O_3  and  C_4
REMARK    4  A    between atoms: C_4  and  C_6
REMARK    5  A    between atoms: C_9  and  N_10
REMARK    6  A    between atoms: C_11  and  C_13
REMARK                            x       y       z     vdW  Elec       q    Type
REMARK                         _______ _______ _______ _____ _____    ______ ____
ROOT
ATOM      1  C   UNL     1       0.050  10.010  19.252  0.00  0.00    +0.000 A 
ATOM      2  C   UNL     1       0.548   9.233  20.300  0.00  0.00    +0.000 A 
ATOM      3  C   UNL     1       1.572   8.310  20.073  0.00  0.00    +0.000 A 
ATOM      4  C   UNL     1       2.116   8.144  18.801  0.00  0.00    +0.000 A 
ATOM      5  C   UNL     1       1.636   8.942  17.752  0.00  0.00    +0.000 A 
ATOM      6  C   UNL     1       0.608   9.871  17.976  0.00  0.00    +0.000 A 
ENDROOT
BRANCH   4   7
ATOM      7  N   UNL     1       3.111   7.189  18.500  0.00  0.00    +0.000 N 
ATOM      8  C   UNL     1       2.910   5.870  18.137  0.00  0.00    +0.000 C 
ATOM      9  O   UNL     1       1.834   5.293  18.060  0.00  0.00    +0.000 OA
ATOM     10  H   UNL     1       4.066   7.517  18.508  0.00  0.00    +0.000 HD
BRANCH   8  11
ATOM     11  C   UNL     1       4.128   5.076  17.778  0.00  0.00    +0.000 C 
ATOM     12  C   UNL     1       4.844   5.362  16.475  0.00  0.00    +0.000 C 
ATOM     13  C   UNL     1       5.468   4.298  15.619  0.00  0.00    +0.000 C 
ATOM     14  C   UNL     1       6.973   4.573  15.559  0.00  0.00    +0.000 C 
ATOM     15  C   UNL     1       7.639   4.490  16.944  0.00  0.00    +0.000 C 
ATOM     16  C   UNL     1       6.673   4.657  18.123  0.00  0.00    +0.000 C 
ATOM     17  C   UNL     1       5.547   5.598  17.790  0.00  0.00    +0.000 C 
ENDBRANCH   8  11
ENDBRANCH   4   7
BRANCH   1  18
ATOM     18  C   UNL     1      -1.120  10.881  19.536  0.00  0.00    +0.000 C 
ATOM     19  O   UNL     1      -1.169  11.665  20.473  0.00  0.00    +0.000 OA
BRANCH  18  20
ATOM     20  O   UNL     1      -2.140  10.577  18.697  0.00  0.00    +0.000 OA
BRANCH  20  22
ATOM     21  C   UNL     1      -3.714  11.418  17.115  0.00  0.00    +0.000 C 
ATOM     22  C   UNL     1      -3.080  11.636  18.477  0.00  0.00    +0.000 C 
ENDBRANCH  20  22
ENDBRANCH  18  20
ENDBRANCH   1  18
TORSDOF 5
ENDMDL
MODEL 6
REMARK VINA RESULT:      -7.0      5.484      7.294
REMARK  Name = 
REMARK  6 active torsions:
REMARK  status: ('A' for Active; 'I' for Inactive)
REMARK    1  A    between atoms: C_1  and  C_2
REMARK    2  A    between atoms: C_2  and  O_3
REMARK    3  A    between atoms: O_3  and  C_4
REMARK    4  A    between atoms: C_4  and  C_6
REMARK    5  A    between atoms: C_9  and  N_10
REMARK    6  A    between atoms: C_11  and  C_13
REMARK                            x       y       z     vdW  Elec       q    Type
REMARK                         _______ _______ _______ _____ _____    ______ ____
ROOT
ATOM      1  C   UNL     1       5.447   5.119  16.672  0.00  0.00    +0.000 A 
ATOM      2  C   UNL     1       4.377   4.445  17.264  0.00  0.00    +0.000 A 
ATOM      3  C   UNL     1       3.333   5.158  17.859  0.00  0.00    +0.000 A 
ATOM      4  C   UNL     1       3.337   6.552  17.877  0.00  0.00    +0.000 A 
ATOM      5  C   UNL     1       4.398   7.231  17.260  0.00  0.00    +0.000 A 
ATOM      6  C   UNL     1       5.448   6.519  16.661  0.00  0.00    +0.000 A 
ENDROOT
BRANCH   4   7
ATOM      7  N   UNL     1       2.341   7.324  18.513  0.00  0.00    +0.000 N 
ATOM      8  C   UNL     1       1.891   8.574  18.129  0.00  0.00    +0.000 C 
ATOM      9  O   UNL     1       2.315   9.245  17.198  0.00  0.00    +0.000 OA
ATOM     10  H   UNL     1       1.880   6.898  19.303  0.00  0.00    +0.000 HD
BRANCH   8  11
ATOM     11  C   UNL     1       0.757   9.153  18.917  0.00  0.00    +0.000 C 
ATOM     12  C   UNL     1       1.041  10.208  19.965  0.00  0.00    +0.000 C 
ATOM     13  C   UNL     1       0.312  10.298  21.274  0.00  0.00    +0.000 C 
ATOM     14  C   UNL     1      -0.428  11.637  21.303  0.00  0.00    +0.000 C 
ATOM     15  C   UNL     1      -1.481  11.751  20.187  0.00  0.00    +0.000 C 
ATOM     16  C   UNL     1      -1.260  10.795  19.008  0.00  0.00    +0.000 C 
ATOM     17  C   UNL     1       0.203  10.551  18.757  0.00  0.00    +0.000 C 
ENDBRANCH   8  11
ENDBRANCH   4   7
BRANCH   1  18
ATOM     18  C   UNL     1       6.581   4.302  16.168  0.00  0.00    +0.000 C 
ATOM     19  O   UNL     1       7.730   4.420  16.568  0.00  0.00    +0.000 OA
BRANCH  18  20
ATOM     20  O   UNL     1       6.173   3.529  15.134  0.00  0.00    +0.000 OA
BRANCH  20  22
ATOM     21  C   UNL     1       6.237   3.502  12.749  0.00  0.00    +0.000 C 
ATOM     22  C   UNL     1       5.737   4.248  13.973  0.00  0.00    +0.000 C 
ENDBRANCH  20  22
ENDBRANCH  18  20
ENDBRANCH   1  18
TORSDOF 5
ENDMDL
MODEL 7
REMARK VINA RESULT:      -6.9      1.425      1.952
REMARK  Name = 
REMARK  6 active torsions:
REMARK  status: ('A' for Active; 'I' for Inactive)
REMARK    1  A    between atoms: C_1  and  C_2
REMARK    2  A    between atoms: C_2  and  O_3
REMARK    3  A    between atoms: O_3  and  C_4
REMARK    4  A    between atoms: C_4  and  C_6
REMARK    5  A    between atoms: C_9  and  N_10
REMARK    6  A    between atoms: C_11  and  C_13
REMARK                            x       y       z     vdW  Elec       q    Type
REMARK                         _______ _______ _______ _____ _____    ______ ____
ROOT
ATOM      1  C   UNL     1       5.862   5.316  18.241  0.00  0.00    +0.000 A 
ATOM      2  C   UNL     1       7.120   5.451  18.831  0.00  0.00    +0.000 A 
ATOM      3  C   UNL     1       7.879   6.606  18.625  0.00  0.00    +0.000 A 
ATOM      4  C   UNL     1       7.400   7.644  17.828  0.00  0.00    +0.000 A 
ATOM      5  C   UNL     1       6.126   7.522  17.255  0.00  0.00    +0.000 A 
ATOM      6  C   UNL     1       5.359   6.365  17.460  0.00  0.00    +0.000 A 
ENDROOT
BRANCH   4   7
ATOM      7  N   UNL     1       8.144   8.808  17.538  0.00  0.00    +0.000 N 
ATOM      8  C   UNL     1       8.830   9.599  18.441  0.00  0.00    +0.000 C 
ATOM      9  O   UNL     1       8.870   9.451  19.654  0.00  0.00    +0.000 OA
ATOM     10  H   UNL     1       8.218   9.062  16.563  0.00  0.00    +0.000 HD
BRANCH   8  11
ATOM     11  C   UNL     1       9.624  10.736  17.874  0.00  0.00    +0.000 C 
ATOM     12  C   UNL     1       9.336  12.148  18.337  0.00  0.00    +0.000 C 
ATOM     13  C   UNL     1       9.382  13.346  17.433  0.00  0.00    +0.000 C 
ATOM     14  C   UNL     1      10.483  14.275  17.949  0.00  0.00    +0.000 C 
ATOM     15  C   UNL     1      11.874  13.618  17.904  0.00  0.00    +0.000 C 
ATOM     16  C   UNL     1      11.849  12.085  17.853  0.00  0.00    +0.000 C 
ATOM     17  C   UNL     1      10.681  11.522  18.615  0.00  0.00    +0.000 C 
ENDBRANCH   8  11
ENDBRANCH   4   7
BRANCH   1  18
ATOM     18  C   UNL     1       5.162   4.015  18.399  0.00  0.00    +0.000 C 
ATOM     19  O   UNL     1       5.286   3.295  19.380  0.00  0.00    +0.000 OA
BRANCH  18  20
ATOM     20  O   UNL     1       4.495   3.704  17.262  0.00  0.00    +0.000 OA
BRANCH  20  22
ATOM     21  C   UNL     1       2.622   2.269  17.611  0.00  0.00    +0.000 C 
ATOM     22  C   UNL     1       3.066   3.702  17.379  0.00  0.00    +0.000 C 
ENDBRANCH  20  22
ENDBRANCH  18  20
ENDBRANCH   1  18
TORSDOF 5
ENDMDL
MODEL 8
REMARK VINA RESULT:      -6.9      5.710      8.825
REMARK  Name = 
REMARK  6 active torsions:
REMARK  status: ('A' for Active; 'I' for Inactive)
REMARK    1  A    between atoms: C_1  and  C_2
REMARK    2  A    between atoms: C_2  and  O_3
REMARK    3  A    between atoms: O_3  and  C_4
REMARK    4  A    between atoms: C_4  and  C_6
REMARK    5  A    between atoms: C_9  and  N_10
REMARK    6  A    between atoms: C_11  and  C_13
REMARK                            x       y       z     vdW  Elec       q    Type
REMARK                         _______ _______ _______ _____ _____    ______ ____
ROOT
ATOM      1  C   UNL     1       0.041  10.114  19.544  0.00  0.00    +0.000 A 
ATOM      2  C   UNL     1       0.479   9.941  18.230  0.00  0.00    +0.000 A 
ATOM      3  C   UNL     1       1.444   8.977  17.925  0.00  0.00    +0.000 A 
ATOM      4  C   UNL     1       1.989   8.170  18.923  0.00  0.00    +0.000 A 
ATOM      5  C   UNL     1       1.531   8.324  20.240  0.00  0.00    +0.000 A 
ATOM      6  C   UNL     1       0.562   9.290  20.550  0.00  0.00    +0.000 A 
ENDROOT
BRANCH   4   7
ATOM      7  N   UNL     1       3.006   7.221  18.685  0.00  0.00    +0.000 N 
ATOM      8  C   UNL     1       2.840   5.926  18.228  0.00  0.00    +0.000 C 
ATOM      9  O   UNL     1       1.778   5.368  17.996  0.00  0.00    +0.000 OA
ATOM     10  H   UNL     1       3.956   7.537  18.822  0.00  0.00    +0.000 HD
BRANCH   8  11
ATOM     11  C   UNL     1       4.088   5.139  17.968  0.00  0.00    +0.000 C 
ATOM     12  C   UNL     1       4.776   5.259  16.625  0.00  0.00    +0.000 C 
ATOM     13  C   UNL     1       5.436   4.108  15.922  0.00  0.00    +0.000 C 
ATOM     14  C   UNL     1       6.926   4.432  15.798  0.00  0.00    +0.000 C 
ATOM     15  C   UNL     1       7.611   4.581  17.167  0.00  0.00    +0.000 C 
ATOM     16  C   UNL     1       6.652   4.879  18.326  0.00  0.00    +0.000 C 
ATOM     17  C   UNL     1       5.484   5.714  17.879  0.00  0.00    +0.000 C 
ENDBRANCH   8  11
ENDBRANCH   4   7
BRANCH   1  18
ATOM     18  C   UNL     1      -0.893  11.236  19.817  0.00  0.00    +0.000 C 
ATOM     19  O   UNL     1      -1.869  11.488  19.126  0.00  0.00    +0.000 OA
BRANCH  18  20
ATOM     20  O   UNL     1      -0.426  11.991  20.840  0.00  0.00    +0.000 OA
BRANCH  20  22
ATOM     21  C   UNL     1       1.527  13.361  20.830  0.00  0.00    +0.000 C 
ATOM     22  C   UNL     1       0.054  13.289  20.467  0.00  0.00    +0.000 C 
ENDBRANCH  20  22
ENDBRANCH  18  20
ENDBRANCH   1  18
TORSDOF 5
ENDMDL
MODEL 9
REMARK VINA RESULT:      -6.9      5.905      8.071
REMARK  Name = 
REMARK  6 active torsions:
REMARK  status: ('A' for Active; 'I' for Inactive)
REMARK    1  A    between atoms: C_1  and  C_2
REMARK    2  A    between atoms: C_2  and  O_3
REMARK    3  A    between atoms: O_3  and  C_4
REMARK    4  A    between atoms: C_4  and  C_6
REMARK    5  A    between atoms: C_9  and  N_10
REMARK    6  A    between atoms: C_11  and  C_13
REMARK                            x       y       z     vdW  Elec       q    Type
REMARK                         _______ _______ _______ _____ _____    ______ ____
ROOT
ATOM      1  C   UNL     1       4.441   5.485  17.710  0.00  0.00    +0.000 A 
ATOM      2  C   UNL     1       3.169   5.221  18.219  0.00  0.00    +0.000 A 
ATOM      3  C   UNL     1       2.230   6.248  18.348  0.00  0.00    +0.000 A 
ATOM      4  C   UNL     1       2.542   7.553  17.974  0.00  0.00    +0.000 A 
ATOM      5  C   UNL     1       3.811   7.816  17.438  0.00  0.00    +0.000 A 
ATOM      6  C   UNL     1       4.757   6.788  17.306  0.00  0.00    +0.000 A 
ENDROOT
BRANCH   4   7
ATOM      7  N   UNL     1       1.656   8.641  18.135  0.00  0.00    +0.000 N 
ATOM      8  C   UNL     1       1.202   9.170  19.329  0.00  0.00    +0.000 C 
ATOM      9  O   UNL     1       1.455   8.754  20.451  0.00  0.00    +0.000 OA
ATOM     10  H   UNL     1       1.360   9.107  17.289  0.00  0.00    +0.000 HD
BRANCH   8  11
ATOM     11  C   UNL     1       0.334  10.387  19.240  0.00  0.00    +0.000 C 
ATOM     12  C   UNL     1      -1.120  10.236  18.848  0.00  0.00    +0.000 C 
ATOM     13  C   UNL     1      -1.855  11.219  17.983  0.00  0.00    +0.000 C 
ATOM     14  C   UNL     1      -2.990  11.815  18.818  0.00  0.00    +0.000 C 
ATOM     15  C   UNL     1      -2.473  12.588  20.044  0.00  0.00    +0.000 C 
ATOM     16  C   UNL     1      -1.051  12.210  20.477  0.00  0.00    +0.000 C 
ATOM     17  C   UNL     1      -0.758  10.757  20.218  0.00  0.00    +0.000 C 
ENDBRANCH   8  11
ENDBRANCH   4   7
BRANCH   1  18
ATOM     18  C   UNL     1       5.429   4.376  17.715  0.00  0.00    +0.000 C 
ATOM     19  O   UNL     1       6.231   4.187  18.618  0.00  0.00    +0.000 OA
BRANCH  18  20
ATOM     20  O   UNL     1       5.390   3.712  16.534  0.00  0.00    +0.000 OA
BRANCH  20  22
ATOM     21  C   UNL     1       5.848   4.240  14.253  0.00  0.00    +0.000 C 
ATOM     22  C   UNL     1       6.456   4.023  15.628  0.00  0.00    +0.000 C 
ENDBRANCH  20  22
ENDBRANCH  18  20
ENDBRANCH   1  18
TORSDOF 5
ENDMDL
