MODEL 1
REMARK VINA RESULT:      -7.7      0.000      0.000
REMARK  Name = 
REMARK  7 active torsions:
REMARK  status: ('A' for Active; 'I' for Inactive)
REMARK    1  A    between atoms: C_1  and  O_2
REMARK    2  A    between atoms: O_2  and  C_3
REMARK    3  A    between atoms: C_6  and  N_7
REMARK    4  A    between atoms: C_9  and  C_10
REMARK    5  A    between atoms: C_11  and  C_12
REMARK    6  A    between atoms: C_12  and  C_13
REMARK    7  A    between atoms: C_20  and  O_21
REMARK                            x       y       z     vdW  Elec       q    Type
REMARK                         _______ _______ _______ _____ _____    ______ ____
ROOT
ATOM      1  N   UNL     1       2.080   7.923  18.900  0.00  0.00    +0.000 N 
ATOM      2  N   UNL     1       1.786   7.766  20.220  0.00  0.00    +0.000 NA
ATOM      3  C   UNL     1       1.112   8.869  20.560  0.00  0.00    +0.000 A 
ATOM      4  C   UNL     1       0.621   9.046  21.951  0.00  0.00    +0.000 C 
ATOM      5  C   UNL     1       1.014   9.794  19.488  0.00  0.00    +0.000 A 
ATOM      6  C   UNL     1       1.691   9.184  18.447  0.00  0.00    +0.000 A 
ENDROOT
BRANCH   1  10
ATOM      7  C   UNL     1       4.362   4.906  17.013  0.00  0.00    +0.000 A 
ATOM      8  C   UNL     1       4.763   6.237  16.926  0.00  0.00    +0.000 A 
ATOM      9  C   UNL     1       3.996   7.245  17.515  0.00  0.00    +0.000 A 
ATOM     10  C   UNL     1       2.806   6.928  18.183  0.00  0.00    +0.000 A 
ATOM     11  C   UNL     1       2.355   5.601  18.184  0.00  0.00    +0.000 A 
ATOM     12  C   UNL     1       3.143   4.591  17.615  0.00  0.00    +0.000 A 
BRANCH   7  14
ATOM     13  C   UNL     1       6.587   4.390  16.440  0.00  0.00    +0.000 C 
ATOM     14  O   UNL     1       5.218   4.000  16.446  0.00  0.00    +0.000 OA
ENDBRANCH   7  14
ENDBRANCH   1  10
BRANCH   6  15
ATOM     15  O   UNL     1       2.030   9.657  17.246  0.00  0.00    +0.000 OA
ATOM     16  H   UNL     1       1.425  10.383  17.024  0.00  0.00    +0.000 HD
ENDBRANCH   6  15
BRANCH   5  17
ATOM     17  C   UNL     1       0.428  11.162  19.524  0.00  0.00    +0.000 C 
BRANCH  17  18
ATOM     18  C   UNL     1      -1.005  11.072  19.055  0.00  0.00    +0.000 A 
ATOM     19  C   UNL     1      -1.969  11.947  19.584  0.00  0.00    +0.000 A 
ATOM     20  C   UNL     1      -3.274  11.959  19.080  0.00  0.00    +0.000 A 
ATOM     21  C   UNL     1      -3.628  11.093  18.049  0.00  0.00    +0.000 A 
ATOM     22 CL   UNL     1      -5.218  11.149  17.392  0.00  0.00    +0.000 Cl
ATOM     23  C   UNL     1      -2.698  10.198  17.531  0.00  0.00    +0.000 A 
ATOM     24  C   UNL     1      -1.393  10.189  18.032  0.00  0.00    +0.000 A 
ENDBRANCH  17  18
ENDBRANCH   5  17
TORSDOF 5
ENDMDL
MODEL 2
REMARK VINA RESULT:      -7.4      0.393      1.071
REMARK  Name = 
REMARK  7 active torsions:
REMARK  status: ('A' for Active; 'I' for Inactive)
REMARK    1  A    between atoms: C_1  and  O_2
REMARK    2  A    between atoms: O_2  and  C_3
REMARK    3  A    between atoms: C_6  and  N_7
REMARK    4  A    between atoms: C_9  and  C_10
REMARK    5  A    between atoms: C_11  and  C_12
REMARK    6  A    between atoms: C_12  and  C_13
REMARK    7  A    between atoms: C_20  and  O_21
REMARK                            x       y       z     vdW  Elec       q    Type
REMARK                         _______ _______ _______ _____ _____    ______ ____
ROOT
ATOM      1  N   UNL     1       2.121   7.844  18.973  0.00  0.00    +0.000 N 
ATOM      2  N   UNL     1       1.746   7.845  20.281  0.00  0.00    +0.000 NA
ATOM      3  C   UNL     1       1.079   8.990  20.451  0.00  0.00    +0.000 A 
ATOM      4  C   UNL     1       0.509   9.336  21.779  0.00  0.00    +0.000 C 
ATOM      5  C   UNL     1       1.067   9.788  19.276  0.00  0.00    +0.000 A 
ATOM      6  C   UNL     1       1.791   9.050  18.356  0.00  0.00    +0.000 A 
ENDROOT
BRANCH   1  10
ATOM      7  C   UNL     1       4.252   4.719  17.083  0.00  0.00    +0.000 A 
ATOM      8  C   UNL     1       2.984   4.478  17.608  0.00  0.00    +0.000 A 
ATOM      9  C   UNL     1       2.288   5.494  18.265  0.00  0.00    +0.000 A 
ATOM     10  C   UNL     1       2.866   6.760  18.421  0.00  0.00    +0.000 A 
ATOM     11  C   UNL     1       4.179   6.972  17.980  0.00  0.00    +0.000 A 
ATOM     12  C   UNL     1       4.862   5.956  17.296  0.00  0.00    +0.000 A 
BRANCH   7  14
ATOM     13  C   UNL     1       5.817   4.027  15.465  0.00  0.00    +0.000 C 
ATOM     14  O   UNL     1       4.817   3.668  16.413  0.00  0.00    +0.000 OA
ENDBRANCH   7  14
ENDBRANCH   1  10
BRANCH   6  15
ATOM     15  O   UNL     1       2.211   9.376  17.132  0.00  0.00    +0.000 OA
ATOM     16  H   UNL     1       3.167   9.542  17.173  0.00  0.00    +0.000 HD
ENDBRANCH   6  15
BRANCH   5  17
ATOM     17  C   UNL     1       0.512  11.159  19.119  0.00  0.00    +0.000 C 
BRANCH  17  18
ATOM     18  C   UNL     1      -0.954  11.038  18.771  0.00  0.00    +0.000 A 
ATOM     19  C   UNL     1      -1.894  11.862  19.411  0.00  0.00    +0.000 A 
ATOM     20  C   UNL     1      -3.237  11.847  19.022  0.00  0.00    +0.000 A 
ATOM     21  C   UNL     1      -3.653  11.004  17.995  0.00  0.00    +0.000 A 
ATOM     22 CL   UNL     1      -5.295  11.028  17.479  0.00  0.00    +0.000 Cl
ATOM     23  C   UNL     1      -2.745  10.158  17.368  0.00  0.00    +0.000 A 
ATOM     24  C   UNL     1      -1.402  10.175  17.755  0.00  0.00    +0.000 A 
ENDBRANCH  17  18
ENDBRANCH   5  17
TORSDOF 5
ENDMDL
MODEL 3
REMARK VINA RESULT:      -7.4      0.348      1.065
REMARK  Name = 
REMARK  7 active torsions:
REMARK  status: ('A' for Active; 'I' for Inactive)
REMARK    1  A    between atoms: C_1  and  O_2
REMARK    2  A    between atoms: O_2  and  C_3
REMARK    3  A    between atoms: C_6  and  N_7
REMARK    4  A    between atoms: C_9  and  C_10
REMARK    5  A    between atoms: C_11  and  C_12
REMARK    6  A    between atoms: C_12  and  C_13
REMARK    7  A    between atoms: C_20  and  O_21
REMARK                            x       y       z     vdW  Elec       q    Type
REMARK                         _______ _______ _______ _____ _____    ______ ____
ROOT
ATOM      1  N   UNL     1       2.080   7.872  18.887  0.00  0.00    +0.000 N 
ATOM      2  N   UNL     1       1.756   7.751  20.203  0.00  0.00    +0.000 NA
ATOM      3  C   UNL     1       1.135   8.892  20.515  0.00  0.00    +0.000 A 
ATOM      4  C   UNL     1       0.629   9.117  21.895  0.00  0.00    +0.000 C 
ATOM      5  C   UNL     1       1.105   9.805  19.429  0.00  0.00    +0.000 A 
ATOM      6  C   UNL     1       1.767   9.144  18.409  0.00  0.00    +0.000 A 
ENDROOT
BRANCH   1  10
ATOM      7  C   UNL     1       4.222   4.701  17.088  0.00  0.00    +0.000 A 
ATOM      8  C   UNL     1       4.728   5.998  17.039  0.00  0.00    +0.000 A 
ATOM      9  C   UNL     1       4.010   7.057  17.599  0.00  0.00    +0.000 A 
ATOM     10  C   UNL     1       2.765   6.828  18.198  0.00  0.00    +0.000 A 
ATOM     11  C   UNL     1       2.214   5.541  18.159  0.00  0.00    +0.000 A 
ATOM     12  C   UNL     1       2.951   4.477  17.621  0.00  0.00    +0.000 A 
BRANCH   7  14
ATOM     13  C   UNL     1       5.751   4.129  15.392  0.00  0.00    +0.000 C 
ATOM     14  O   UNL     1       5.035   3.736  16.558  0.00  0.00    +0.000 OA
ENDBRANCH   7  14
ENDBRANCH   1  10
BRANCH   6  15
ATOM     15  O   UNL     1       2.151   9.580  17.208  0.00  0.00    +0.000 OA
ATOM     16  H   UNL     1       2.511  10.476  17.310  0.00  0.00    +0.000 HD
ENDBRANCH   6  15
BRANCH   5  17
ATOM     17  C   UNL     1       0.591  11.202  19.434  0.00  0.00    +0.000 C 
BRANCH  17  18
ATOM     18  C   UNL     1      -0.828  11.184  18.917  0.00  0.00    +0.000 A 
ATOM     19  C   UNL     1      -1.215  10.219  17.973  0.00  0.00    +0.000 A 
ATOM     20  C   UNL     1      -2.550  10.111  17.569  0.00  0.00    +0.000 A 
ATOM     21  C   UNL     1      -3.508  10.971  18.101  0.00  0.00    +0.000 A 
ATOM     22 CL   UNL     1      -5.159  10.800  17.645  0.00  0.00    +0.000 Cl
ATOM     23  C   UNL     1      -3.142  11.953  19.014  0.00  0.00    +0.000 A 
ATOM     24  C   UNL     1      -1.808  12.058  19.420  0.00  0.00    +0.000 A 
ENDBRANCH  17  18
ENDBRANCH   5  17
TORSDOF 5
ENDMDL
MODEL 4
REMARK VINA RESULT:      -7.4      1.312      1.511
REMARK  Name = 
REMARK  7 active torsions:
REMARK  status: ('A' for Active; 'I' for Inactive)
REMARK    1  A    between atoms: C_1  and  O_2
REMARK    2  A    between atoms: O_2  and  C_3
REMARK    3  A    between atoms: C_6  and  N_7
REMARK    4  A    between atoms: C_9  and  C_10
REMARK    5  A    between atoms: C_11  and  C_12
REMARK    6  A    between atoms: C_12  and  C_13
REMARK    7  A    between atoms: C_20  and  O_21
REMARK                            x       y       z     vdW  Elec       q    Type
REMARK                         _______ _______ _______ _____ _____    ______ ____
ROOT
ATOM      1  N   UNL     1       2.011   7.290  19.342  0.00  0.00    +0.000 N 
ATOM      2  N   UNL     1       1.649   7.415  20.648  0.00  0.00    +0.000 NA
ATOM      3  C   UNL     1       1.152   8.651  20.754  0.00  0.00    +0.000 A 
ATOM      4  C   UNL     1       0.647   9.146  22.062  0.00  0.00    +0.000 C 
ATOM      5  C   UNL     1       1.245   9.378  19.538  0.00  0.00    +0.000 A 
ATOM      6  C   UNL     1       1.850   8.496  18.660  0.00  0.00    +0.000 A 
ENDROOT
BRANCH   1  10
ATOM      7  C   UNL     1       3.589   3.575  18.084  0.00  0.00    +0.000 A 
ATOM      8  C   UNL     1       4.346   4.411  18.903  0.00  0.00    +0.000 A 
ATOM      9  C   UNL     1       3.847   5.655  19.294  0.00  0.00    +0.000 A 
ATOM     10  C   UNL     1       2.590   6.083  18.851  0.00  0.00    +0.000 A 
ATOM     11  C   UNL     1       1.874   5.285  17.949  0.00  0.00    +0.000 A 
ATOM     12  C   UNL     1       2.367   4.025  17.582  0.00  0.00    +0.000 A 
BRANCH   7  14
ATOM     13  C   UNL     1       3.685   1.283  18.616  0.00  0.00    +0.000 C 
ATOM     14  O   UNL     1       4.154   2.359  17.810  0.00  0.00    +0.000 OA
ENDBRANCH   7  14
ENDBRANCH   1  10
BRANCH   6  15
ATOM     15  O   UNL     1       2.304   8.692  17.420  0.00  0.00    +0.000 OA
ATOM     16  H   UNL     1       1.961   7.981  16.855  0.00  0.00    +0.000 HD
ENDBRANCH   6  15
BRANCH   5  17
ATOM     17  C   UNL     1       0.889  10.804  19.306  0.00  0.00    +0.000 C 
BRANCH  17  18
ATOM     18  C   UNL     1      -0.560  10.865  18.882  0.00  0.00    +0.000 A 
ATOM     19  C   UNL     1      -1.427  11.788  19.489  0.00  0.00    +0.000 A 
ATOM     20  C   UNL     1      -2.740  11.941  19.032  0.00  0.00    +0.000 A 
ATOM     21  C   UNL     1      -3.199  11.168  17.969  0.00  0.00    +0.000 A 
ATOM     22 CL   UNL     1      -4.796  11.397  17.371  0.00  0.00    +0.000 Cl
ATOM     23  C   UNL     1      -2.367  10.226  17.373  0.00  0.00    +0.000 A 
ATOM     24  C   UNL     1      -1.054  10.076  17.828  0.00  0.00    +0.000 A 
ENDBRANCH  17  18
ENDBRANCH   5  17
TORSDOF 5
ENDMDL
MODEL 5
REMARK VINA RESULT:      -7.4      1.263      1.778
REMARK  Name = 
REMARK  7 active torsions:
REMARK  status: ('A' for Active; 'I' for Inactive)
REMARK    1  A    between atoms: C_1  and  O_2
REMARK    2  A    between atoms: O_2  and  C_3
REMARK    3  A    between atoms: C_6  and  N_7
REMARK    4  A    between atoms: C_9  and  C_10
REMARK    5  A    between atoms: C_11  and  C_12
REMARK    6  A    between atoms: C_12  and  C_13
REMARK    7  A    between atoms: C_20  and  O_21
REMARK                            x       y       z     vdW  Elec       q    Type
REMARK                         _______ _______ _______ _____ _____    ______ ____
ROOT
ATOM      1  N   UNL     1       2.033   7.432  19.241  0.00  0.00    +0.000 N 
ATOM      2  N   UNL     1       1.641   7.594  20.534  0.00  0.00    +0.000 NA
ATOM      3  C   UNL     1       1.148   8.834  20.596  0.00  0.00    +0.000 A 
ATOM      4  C   UNL     1       0.615   9.365  21.878  0.00  0.00    +0.000 C 
ATOM      5  C   UNL     1       1.274   9.528  19.364  0.00  0.00    +0.000 A 
ATOM      6  C   UNL     1       1.895   8.620  18.524  0.00  0.00    +0.000 A 
ENDROOT
BRANCH   1  10
ATOM      7  C   UNL     1       3.635   3.681  18.129  0.00  0.00    +0.000 A 
ATOM      8  C   UNL     1       4.403   4.571  18.877  0.00  0.00    +0.000 A 
ATOM      9  C   UNL     1       3.895   5.827  19.218  0.00  0.00    +0.000 A 
ATOM     10  C   UNL     1       2.617   6.210  18.795  0.00  0.00    +0.000 A 
ATOM     11  C   UNL     1       1.886   5.353  17.961  0.00  0.00    +0.000 A 
ATOM     12  C   UNL     1       2.389   4.084  17.645  0.00  0.00    +0.000 A 
BRANCH   7  14
ATOM     13  C   UNL     1       3.590   1.368  18.569  0.00  0.00    +0.000 C 
ATOM     14  O   UNL     1       4.212   2.461  17.901  0.00  0.00    +0.000 OA
ENDBRANCH   7  14
ENDBRANCH   1  10
BRANCH   6  15
ATOM     15  O   UNL     1       2.379   8.782  17.291  0.00  0.00    +0.000 OA
ATOM     16  H   UNL     1       3.345   8.852  17.350  0.00  0.00    +0.000 HD
ENDBRANCH   6  15
BRANCH   5  17
ATOM     17  C   UNL     1       0.931  10.949  19.087  0.00  0.00    +0.000 C 
BRANCH  17  18
ATOM     18  C   UNL     1      -0.523  11.013  18.682  0.00  0.00    +0.000 A 
ATOM     19  C   UNL     1      -1.032  10.086  17.759  0.00  0.00    +0.000 A 
ATOM     20  C   UNL     1      -2.399  10.053  17.460  0.00  0.00    +0.000 A 
ATOM     21  C   UNL     1      -3.266  10.952  18.076  0.00  0.00    +0.000 A 
ATOM     22 CL   UNL     1      -4.954  10.873  17.750  0.00  0.00    +0.000 Cl
ATOM     23  C   UNL     1      -2.779  11.898  18.971  0.00  0.00    +0.000 A 
ATOM     24  C   UNL     1      -1.414  11.927  19.272  0.00  0.00    +0.000 A 
ENDBRANCH  17  18
ENDBRANCH   5  17
TORSDOF 5
ENDMDL
MODEL 6
REMARK VINA RESULT:      -7.4      1.703      2.203
REMARK  Name = 
REMARK  7 active torsions:
REMARK  status: ('A' for Active; 'I' for Inactive)
REMARK    1  A    between atoms: C_1  and  O_2
REMARK    2  A    between atoms: O_2  and  C_3
REMARK    3  A    between atoms: C_6  and  N_7
REMARK    4  A    between atoms: C_9  and  C_10
REMARK    5  A    between atoms: C_11  and  C_12
REMARK    6  A    between atoms: C_12  and  C_13
REMARK    7  A    between atoms: C_20  and  O_21
REMARK                            x       y       z     vdW  Elec       q    Type
REMARK                         _______ _______ _______ _____ _____    ______ ____
ROOT
ATOM      1  N   UNL     1       1.783   7.450  20.042  0.00  0.00    +0.000 N 
ATOM      2  N   UNL     1       1.354   8.006  21.208  0.00  0.00    +0.000 NA
ATOM      3  C   UNL     1       0.878   9.207  20.866  0.00  0.00    +0.000 A 
ATOM      4  C   UNL     1       0.313  10.111  21.901  0.00  0.00    +0.000 C 
ATOM      5  C   UNL     1       1.051   9.483  19.484  0.00  0.00    +0.000 A 
ATOM      6  C   UNL     1       1.684   8.358  18.988  0.00  0.00    +0.000 A 
ENDROOT
BRANCH   1  10
ATOM      7  C   UNL     1       3.398   3.557  19.710  0.00  0.00    +0.000 A 
ATOM      8  C   UNL     1       2.201   3.757  20.394  0.00  0.00    +0.000 A 
ATOM      9  C   UNL     1       1.679   5.044  20.540  0.00  0.00    +0.000 A 
ATOM     10  C   UNL     1       2.363   6.148  20.017  0.00  0.00    +0.000 A 
ATOM     11  C   UNL     1       3.614   5.955  19.416  0.00  0.00    +0.000 A 
ATOM     12  C   UNL     1       4.120   4.659  19.248  0.00  0.00    +0.000 A 
BRANCH   7  14
ATOM     13  C   UNL     1       3.467   1.649  18.331  0.00  0.00    +0.000 C 
ATOM     14  O   UNL     1       3.786   2.251  19.581  0.00  0.00    +0.000 OA
ENDBRANCH   7  14
ENDBRANCH   1  10
BRANCH   6  15
ATOM     15  O   UNL     1       2.208   8.126  17.782  0.00  0.00    +0.000 OA
ATOM     16  H   UNL     1       3.017   8.656  17.695  0.00  0.00    +0.000 HD
ENDBRANCH   6  15
BRANCH   5  17
ATOM     17  C   UNL     1       0.737  10.750  18.768  0.00  0.00    +0.000 C 
BRANCH  17  18
ATOM     18  C   UNL     1      -0.745  10.771  18.475  0.00  0.00    +0.000 A 
ATOM     19  C   UNL     1      -1.572  11.703  19.123  0.00  0.00    +0.000 A 
ATOM     20  C   UNL     1      -2.923  11.817  18.781  0.00  0.00    +0.000 A 
ATOM     21  C   UNL     1      -3.461  10.995  17.794  0.00  0.00    +0.000 A 
ATOM     22 CL   UNL     1      -5.110  11.176  17.335  0.00  0.00    +0.000 Cl
ATOM     23  C   UNL     1      -2.668  10.045  17.161  0.00  0.00    +0.000 A 
ATOM     24  C   UNL     1      -1.317   9.934  17.500  0.00  0.00    +0.000 A 
ENDBRANCH  17  18
ENDBRANCH   5  17
TORSDOF 5
ENDMDL
MODEL 7
REMARK VINA RESULT:      -7.3      1.677      1.959
REMARK  Name = 
REMARK  7 active torsions:
REMARK  status: ('A' for Active; 'I' for Inactive)
REMARK    1  A    between atoms: C_1  and  O_2
REMARK    2  A    between atoms: O_2  and  C_3
REMARK    3  A    between atoms: C_6  and  N_7
REMARK    4  A    between atoms: C_9  and  C_10
REMARK    5  A    between atoms: C_11  and  C_12
REMARK    6  A    between atoms: C_12  and  C_13
REMARK    7  A    between atoms: C_20  and  O_21
REMARK                            x       y       z     vdW  Elec       q    Type
REMARK                         _______ _______ _______ _____ _____    ______ ____
ROOT
ATOM      1  N   UNL     1       1.767   7.374  20.023  0.00  0.00    +0.000 N 
ATOM      2  N   UNL     1       1.357   7.818  21.243  0.00  0.00    +0.000 NA
ATOM      3  C   UNL     1       0.907   9.058  21.029  0.00  0.00    +0.000 A 
ATOM      4  C   UNL     1       0.370   9.864  22.155  0.00  0.00    +0.000 C 
ATOM      5  C   UNL     1       1.079   9.469  19.681  0.00  0.00    +0.000 A 
ATOM      6  C   UNL     1       1.683   8.386  19.068  0.00  0.00    +0.000 A 
ENDROOT
BRANCH   1  10
ATOM      7  C   UNL     1       3.487   3.518  19.805  0.00  0.00    +0.000 A 
ATOM      8  C   UNL     1       4.172   4.615  19.287  0.00  0.00    +0.000 A 
ATOM      9  C   UNL     1       3.596   5.887  19.322  0.00  0.00    +0.000 A 
ATOM     10  C   UNL     1       2.316   6.068  19.861  0.00  0.00    +0.000 A 
ATOM     11  C   UNL     1       1.590   4.949  20.291  0.00  0.00    +0.000 A 
ATOM     12  C   UNL     1       2.184   3.680  20.279  0.00  0.00    +0.000 A 
BRANCH   7  14
ATOM     13  C   UNL     1       3.782   1.449  18.720  0.00  0.00    +0.000 C 
ATOM     14  O   UNL     1       4.170   2.332  19.766  0.00  0.00    +0.000 OA
ENDBRANCH   7  14
ENDBRANCH   1  10
BRANCH   6  15
ATOM     15  O   UNL     1       2.195   8.267  17.841  0.00  0.00    +0.000 OA
ATOM     16  H   UNL     1       2.978   8.837  17.781  0.00  0.00    +0.000 HD
ENDBRANCH   6  15
BRANCH   5  17
ATOM     17  C   UNL     1       0.791  10.809  19.101  0.00  0.00    +0.000 C 
BRANCH  17  18
ATOM     18  C   UNL     1      -0.666  10.847  18.704  0.00  0.00    +0.000 A 
ATOM     19  C   UNL     1      -1.544  11.730  19.355  0.00  0.00    +0.000 A 
ATOM     20  C   UNL     1      -2.868  11.865  18.925  0.00  0.00    +0.000 A 
ATOM     21  C   UNL     1      -3.328  11.113  17.847  0.00  0.00    +0.000 A 
ATOM     22 CL   UNL     1      -4.942  11.322  17.285  0.00  0.00    +0.000 Cl
ATOM     23  C   UNL     1      -2.486  10.211  17.208  0.00  0.00    +0.000 A 
ATOM     24  C   UNL     1      -1.161  10.080  17.635  0.00  0.00    +0.000 A 
ENDBRANCH  17  18
ENDBRANCH   5  17
TORSDOF 5
ENDMDL
MODEL 8
REMARK VINA RESULT:      -7.3      0.454      1.488
REMARK  Name = 
REMARK  7 active torsions:
REMARK  status: ('A' for Active; 'I' for Inactive)
REMARK    1  A    between atoms: C_1  and  O_2
REMARK    2  A    between atoms: O_2  and  C_3
REMARK    3  A    between atoms: C_6  and  N_7
REMARK    4  A    between atoms: C_9  and  C_10
REMARK    5  A    between atoms: C_11  and  C_12
REMARK    6  A    between atoms: C_12  and  C_13
REMARK    7  A    between atoms: C_20  and  O_21
REMARK                            x       y       z     vdW  Elec       q    Type
REMARK                         _______ _______ _______ _____ _____    ______ ____
ROOT
ATOM      1  N   UNL     1       2.013   8.003  18.972  0.00  0.00    +0.000 N 
ATOM      2  N   UNL     1       1.596   8.013  20.267  0.00  0.00    +0.000 NA
ATOM      3  C   UNL     1       0.953   9.175  20.417  0.00  0.00    +0.000 A 
ATOM      4  C   UNL     1       0.350   9.534  21.727  0.00  0.00    +0.000 C 
ATOM      5  C   UNL     1       0.999   9.973  19.244  0.00  0.00    +0.000 A 
ATOM      6  C   UNL     1       1.733   9.217  18.346  0.00  0.00    +0.000 A 
ENDROOT
BRANCH   1  10
ATOM      7  C   UNL     1       4.106   4.815  17.147  0.00  0.00    +0.000 A 
ATOM      8  C   UNL     1       2.851   4.592  17.708  0.00  0.00    +0.000 A 
ATOM      9  C   UNL     1       2.167   5.630  18.344  0.00  0.00    +0.000 A 
ATOM     10  C   UNL     1       2.747   6.901  18.442  0.00  0.00    +0.000 A 
ATOM     11  C   UNL     1       4.049   7.098  17.965  0.00  0.00    +0.000 A 
ATOM     12  C   UNL     1       4.719   6.060  17.303  0.00  0.00    +0.000 A 
BRANCH   7  14
ATOM     13  C   UNL     1       5.665   4.064  15.550  0.00  0.00    +0.000 C 
ATOM     14  O   UNL     1       4.658   3.741  16.502  0.00  0.00    +0.000 OA
ENDBRANCH   7  14
ENDBRANCH   1  10
BRANCH   6  15
ATOM     15  O   UNL     1       2.200   9.533  17.136  0.00  0.00    +0.000 OA
ATOM     16  H   UNL     1       2.308  10.497  17.094  0.00  0.00    +0.000 HD
ENDBRANCH   6  15
BRANCH   5  17
ATOM     17  C   UNL     1       0.484  11.359  19.071  0.00  0.00    +0.000 C 
BRANCH  17  18
ATOM     18  C   UNL     1      -0.974  11.274  18.683  0.00  0.00    +0.000 A 
ATOM     19  C   UNL     1      -1.407  10.263  17.811  0.00  0.00    +0.000 A 
ATOM     20  C   UNL     1      -2.768  10.096  17.532  0.00  0.00    +0.000 A 
ATOM     21  C   UNL     1      -3.705  10.943  18.117  0.00  0.00    +0.000 A 
ATOM     22 CL   UNL     1      -5.383  10.701  17.817  0.00  0.00    +0.000 Cl
ATOM     23  C   UNL     1      -3.296  11.970  18.960  0.00  0.00    +0.000 A 
ATOM     24  C   UNL     1      -1.937  12.134  19.242  0.00  0.00    +0.000 A 
ENDBRANCH  17  18
ENDBRANCH   5  17
TORSDOF 5
ENDMDL
MODEL 9
REMARK VINA RESULT:      -7.2      1.695      2.233
REMARK  Name = 
REMARK  7 active torsions:
REMARK  status: ('A' for Active; 'I' for Inactive)
REMARK    1  A    between atoms: C_1  and  O_2
REMARK    2  A    between atoms: O_2  and  C_3
REMARK    3  A    between atoms: C_6  and  N_7
REMARK    4  A    between atoms: C_9  and  C_10
REMARK    5  A    between atoms: C_11  and  C_12
REMARK    6  A    between atoms: C_12  and  C_13
REMARK    7  A    between atoms: C_20  and  O_21
REMARK                            x       y       z     vdW  Elec       q    Type
REMARK                         _______ _______ _______ _____ _____    ______ ____
ROOT
ATOM      1  N   UNL     1       1.744   7.468  19.981  0.00  0.00    +0.000 N 
ATOM      2  N   UNL     1       1.319   7.963  21.176  0.00  0.00    +0.000 NA
ATOM      3  C   UNL     1       0.903   9.205  20.909  0.00  0.00    +0.000 A 
ATOM      4  C   UNL     1       0.361  10.062  21.996  0.00  0.00    +0.000 C 
ATOM      5  C   UNL     1       1.113   9.566  19.553  0.00  0.00    +0.000 A 
ATOM      6  C   UNL     1       1.704   8.448  18.990  0.00  0.00    +0.000 A 
ENDROOT
BRANCH   1  10
ATOM      7  C   UNL     1       3.396   3.576  19.925  0.00  0.00    +0.000 A 
ATOM      8  C   UNL     1       4.069   4.627  19.306  0.00  0.00    +0.000 A 
ATOM      9  C   UNL     1       3.514   5.908  19.288  0.00  0.00    +0.000 A 
ATOM     10  C   UNL     1       2.266   6.145  19.876  0.00  0.00    +0.000 A 
ATOM     11  C   UNL     1       1.546   5.069  20.411  0.00  0.00    +0.000 A 
ATOM     12  C   UNL     1       2.120   3.790  20.451  0.00  0.00    +0.000 A 
BRANCH   7  14
ATOM     13  C   UNL     1       3.792   1.541  18.809  0.00  0.00    +0.000 C 
ATOM     14  O   UNL     1       4.058   2.379  19.929  0.00  0.00    +0.000 OA
ENDBRANCH   7  14
ENDBRANCH   1  10
BRANCH   6  15
ATOM     15  O   UNL     1       2.239   8.275  17.780  0.00  0.00    +0.000 OA
ATOM     16  H   UNL     1       3.043   7.739  17.876  0.00  0.00    +0.000 HD
ENDBRANCH   6  15
BRANCH   5  17
ATOM     17  C   UNL     1       0.870  10.891  18.920  0.00  0.00    +0.000 C 
BRANCH  17  18
ATOM     18  C   UNL     1      -0.598  10.985  18.575  0.00  0.00    +0.000 A 
ATOM     19  C   UNL     1      -1.158  10.082  17.656  0.00  0.00    +0.000 A 
ATOM     20  C   UNL     1      -2.535  10.076  17.410  0.00  0.00    +0.000 A 
ATOM     21  C   UNL     1      -3.363  10.978  18.075  0.00  0.00    +0.000 A 
ATOM     22 CL   UNL     1      -5.063  10.932  17.814  0.00  0.00    +0.000 Cl
ATOM     23  C   UNL     1      -2.826  11.900  18.966  0.00  0.00    +0.000 A 
ATOM     24  C   UNL     1      -1.450  11.903  19.214  0.00  0.00    +0.000 A 
ENDBRANCH  17  18
ENDBRANCH   5  17
TORSDOF 5
ENDMDL
