MODEL 1
REMARK VINA RESULT:      -8.9      0.000      0.000
REMARK  Name = 
REMARK  5 active torsions:
REMARK  status: ('A' for Active; 'I' for Inactive)
REMARK    1  A    between atoms: C_2  and  C_10
REMARK    2  A    between atoms: N_3  and  C_4
REMARK    3  A    between atoms: C_4  and  C_5
REMARK    4  A    between atoms: C_14  and  C_15
REMARK    5  A    between atoms: N_17  and  C_18
REMARK                            x       y       z     vdW  Elec       q    Type
REMARK                         _______ _______ _______ _____ _____    ______ ____
ROOT
ATOM      1  C   UNL     1       5.565   5.455  17.585  0.00  0.00    +0.000 C 
ATOM      2  C   UNL     1       6.167   4.761  18.815  0.00  0.00    +0.000 C 
ATOM      3  N   UNL     1       7.630   4.892  18.868  0.00  0.00    +0.000 NA
ATOM      4  C   UNL     1       8.014   6.304  18.932  0.00  0.00    +0.000 C 
ATOM      5  C   UNL     1       7.532   7.089  17.710  0.00  0.00    +0.000 C 
ATOM      6  C   UNL     1       6.007   6.922  17.528  0.00  0.00    +0.000 C 
ATOM      7  H   UNL     1       8.036   4.450  18.045  0.00  0.00    +0.000 HD
ENDROOT
BRANCH   1   9
ATOM      8  O   UNL     1       3.286   6.271  17.742  0.00  0.00    +0.000 OA
ATOM      9  C   UNL     1       4.041   5.313  17.619  0.00  0.00    +0.000 C 
ATOM     10  N   UNL     1       3.582   4.013  17.585  0.00  0.00    +0.000 N 
ATOM     11  H   UNL     1       4.180   3.279  17.235  0.00  0.00    +0.000 HD
BRANCH  10  12
ATOM     12  C   UNL     1       2.156   3.713  17.602  0.00  0.00    +0.000 C 
BRANCH  12  13
ATOM     13  C   UNL     1       1.741   2.966  18.870  0.00  0.00    +0.000 C 
ATOM     14  C   UNL     1       1.000   3.821  19.888  0.00  0.00    +0.000 C 
ATOM     15  C   UNL     1       1.355   3.153  21.192  0.00  0.00    +0.000 C 
ATOM     16  C   UNL     1       2.767   2.669  20.947  0.00  0.00    +0.000 C 
ATOM     17  O   UNL     1       2.907   2.446  19.539  0.00  0.00    +0.000 OA
ENDBRANCH  12  13
ENDBRANCH  10  12
ENDBRANCH   1   9
BRANCH   5  18
ATOM     18  C   UNL     1       7.881   8.572  17.858  0.00  0.00    +0.000 C 
ATOM     19  O   UNL     1       7.321   9.414  17.162  0.00  0.00    +0.000 OA
ATOM     20  N   UNL     1       8.889   8.836  18.776  0.00  0.00    +0.000 N 
ATOM     21  H   UNL     1       9.463   8.061  19.085  0.00  0.00    +0.000 HD
BRANCH  20  22
ATOM     22  C   UNL     1       9.327  10.132  19.150  0.00  0.00    +0.000 A 
ATOM     23  C   UNL     1       9.226  10.605  20.471  0.00  0.00    +0.000 A 
ATOM     24  C   UNL     1       9.587  11.910  20.809  0.00  0.00    +0.000 A 
ATOM     25  C   UNL     1      10.070  12.733  19.813  0.00  0.00    +0.000 A 
ATOM     26  C   UNL     1      10.217  12.270  18.503  0.00  0.00    +0.000 A 
ATOM     27  C   UNL     1       9.866  10.968  18.160  0.00  0.00    +0.000 A 
ATOM     28  C   UNL     1      10.679  13.380  17.610  0.00  0.00    +0.000 C 
ATOM     29  C   UNL     1      11.230  14.385  18.636  0.00  0.00    +0.000 C 
ATOM     30  C   UNL     1      10.424  14.182  19.924  0.00  0.00    +0.000 C 
ENDBRANCH  20  22
ENDBRANCH   5  18
TORSDOF 5
ENDMDL
MODEL 2
REMARK VINA RESULT:      -8.9      0.504      1.453
REMARK  Name = 
REMARK  5 active torsions:
REMARK  status: ('A' for Active; 'I' for Inactive)
REMARK    1  A    between atoms: C_2  and  C_10
REMARK    2  A    between atoms: N_3  and  C_4
REMARK    3  A    between atoms: C_4  and  C_5
REMARK    4  A    between atoms: C_14  and  C_15
REMARK    5  A    between atoms: N_17  and  C_18
REMARK                            x       y       z     vdW  Elec       q    Type
REMARK                         _______ _______ _______ _____ _____    ______ ____
ROOT
ATOM      1  C   UNL     1       5.569   5.406  17.624  0.00  0.00    +0.000 C 
ATOM      2  C   UNL     1       6.167   4.745  18.875  0.00  0.00    +0.000 C 
ATOM      3  N   UNL     1       7.627   4.892  18.938  0.00  0.00    +0.000 NA
ATOM      4  C   UNL     1       7.998   6.309  18.973  0.00  0.00    +0.000 C 
ATOM      5  C   UNL     1       7.518   7.062  17.730  0.00  0.00    +0.000 C 
ATOM      6  C   UNL     1       5.997   6.875  17.538  0.00  0.00    +0.000 C 
ATOM      7  H   UNL     1       8.046   4.436  18.128  0.00  0.00    +0.000 HD
ENDROOT
BRANCH   1   9
ATOM      8  O   UNL     1       3.282   6.195  17.808  0.00  0.00    +0.000 OA
ATOM      9  C   UNL     1       4.046   5.249  17.647  0.00  0.00    +0.000 C 
ATOM     10  N   UNL     1       3.599   3.948  17.559  0.00  0.00    +0.000 N 
ATOM     11  H   UNL     1       4.205   3.234  17.181  0.00  0.00    +0.000 HD
BRANCH  10  12
ATOM     12  C   UNL     1       2.176   3.636  17.559  0.00  0.00    +0.000 C 
BRANCH  12  13
ATOM     13  C   UNL     1       1.734   2.967  18.862  0.00  0.00    +0.000 C 
ATOM     14  C   UNL     1       1.061   3.907  19.853  0.00  0.00    +0.000 C 
ATOM     15  C   UNL     1       1.395   3.272  21.178  0.00  0.00    +0.000 C 
ATOM     16  C   UNL     1       2.771   2.692  20.937  0.00  0.00    +0.000 C 
ATOM     17  O   UNL     1       2.876   2.404  19.538  0.00  0.00    +0.000 OA
ENDBRANCH  12  13
ENDBRANCH  10  12
ENDBRANCH   1   9
BRANCH   5  18
ATOM     18  C   UNL     1       7.851   8.551  17.849  0.00  0.00    +0.000 C 
ATOM     19  O   UNL     1       7.244   9.378  17.175  0.00  0.00    +0.000 OA
ATOM     20  N   UNL     1       8.900   8.839  18.711  0.00  0.00    +0.000 N 
ATOM     21  H   UNL     1       9.501   8.075  18.997  0.00  0.00    +0.000 HD
BRANCH  20  22
ATOM     22  C   UNL     1       9.337  10.144  19.052  0.00  0.00    +0.000 A 
ATOM     23  C   UNL     1      10.058  10.952  18.154  0.00  0.00    +0.000 A 
ATOM     24  C   UNL     1      10.551  12.202  18.530  0.00  0.00    +0.000 A 
ATOM     25  C   UNL     1      10.297  12.646  19.811  0.00  0.00    +0.000 A 
ATOM     26  C   UNL     1       9.547  11.878  20.705  0.00  0.00    +0.000 A 
ATOM     27  C   UNL     1       9.046  10.633  20.335  0.00  0.00    +0.000 A 
ATOM     28  C   UNL     1       9.490  12.549  22.043  0.00  0.00    +0.000 C 
ATOM     29  C   UNL     1       9.879  13.991  21.676  0.00  0.00    +0.000 C 
ATOM     30  C   UNL     1      10.802  13.898  20.456  0.00  0.00    +0.000 C 
ENDBRANCH  20  22
ENDBRANCH   5  18
TORSDOF 5
ENDMDL
MODEL 3
REMARK VINA RESULT:      -8.3      5.602      8.036
REMARK  Name = 
REMARK  5 active torsions:
REMARK  status: ('A' for Active; 'I' for Inactive)
REMARK    1  A    between atoms: C_2  and  C_10
REMARK    2  A    between atoms: N_3  and  C_4
REMARK    3  A    between atoms: C_4  and  C_5
REMARK    4  A    between atoms: C_14  and  C_15
REMARK    5  A    between atoms: N_17  and  C_18
REMARK                            x       y       z     vdW  Elec       q    Type
REMARK                         _______ _______ _______ _____ _____    ______ ____
ROOT
ATOM      1  C   UNL     1       5.132   4.141  18.628  0.00  0.00    +0.000 C 
ATOM      2  C   UNL     1       4.392   2.930  18.041  0.00  0.00    +0.000 C 
ATOM      3  N   UNL     1       3.440   2.343  18.994  0.00  0.00    +0.000 NA
ATOM      4  C   UNL     1       2.427   3.329  19.378  0.00  0.00    +0.000 C 
ATOM      5  C   UNL     1       3.044   4.557  20.050  0.00  0.00    +0.000 C 
ATOM      6  C   UNL     1       4.130   5.180  19.146  0.00  0.00    +0.000 C 
ATOM      7  H   UNL     1       3.947   2.015  19.816  0.00  0.00    +0.000 HD
ENDROOT
BRANCH   1   9
ATOM      8  O   UNL     1       7.233   5.034  17.809  0.00  0.00    +0.000 OA
ATOM      9  C   UNL     1       6.072   4.722  17.569  0.00  0.00    +0.000 C 
ATOM     10  N   UNL     1       5.487   4.949  16.341  0.00  0.00    +0.000 N 
ATOM     11  H   UNL     1       4.637   4.465  16.094  0.00  0.00    +0.000 HD
BRANCH  10  12
ATOM     12  C   UNL     1       6.254   5.491  15.227  0.00  0.00    +0.000 C 
BRANCH  12  13
ATOM     13  C   UNL     1       6.709   4.400  14.257  0.00  0.00    +0.000 C 
ATOM     14  C   UNL     1       7.449   4.917  13.032  0.00  0.00    +0.000 C 
ATOM     15  C   UNL     1       7.132   3.870  11.995  0.00  0.00    +0.000 C 
ATOM     16  C   UNL     1       5.727   3.449  12.363  0.00  0.00    +0.000 C 
ATOM     17  O   UNL     1       5.566   3.668  13.769  0.00  0.00    +0.000 OA
ENDBRANCH  12  13
ENDBRANCH  10  12
ENDBRANCH   1   9
BRANCH   5  18
ATOM     18  C   UNL     1       1.962   5.596  20.356  0.00  0.00    +0.000 C 
ATOM     19  O   UNL     1       0.847   5.239  20.727  0.00  0.00    +0.000 OA
ATOM     20  N   UNL     1       2.343   6.910  20.122  0.00  0.00    +0.000 N 
ATOM     21  H   UNL     1       3.173   7.069  19.564  0.00  0.00    +0.000 HD
BRANCH  20  22
ATOM     22  C   UNL     1       1.550   8.049  20.410  0.00  0.00    +0.000 A 
ATOM     23  C   UNL     1       1.290   9.044  19.449  0.00  0.00    +0.000 A 
ATOM     24  C   UNL     1       0.575  10.199  19.769  0.00  0.00    +0.000 A 
ATOM     25  C   UNL     1       0.103  10.340  21.057  0.00  0.00    +0.000 A 
ATOM     26  C   UNL     1       0.314   9.345  22.014  0.00  0.00    +0.000 A 
ATOM     27  C   UNL     1       1.020   8.187  21.702  0.00  0.00    +0.000 A 
ATOM     28  C   UNL     1      -0.226   9.782  23.342  0.00  0.00    +0.000 C 
ATOM     29  C   UNL     1      -1.178  10.915  22.925  0.00  0.00    +0.000 C 
ATOM     30  C   UNL     1      -0.598  11.524  21.643  0.00  0.00    +0.000 C 
ENDBRANCH  20  22
ENDBRANCH   5  18
TORSDOF 5
ENDMDL
MODEL 4
REMARK VINA RESULT:      -8.2      1.083      1.778
REMARK  Name = 
REMARK  5 active torsions:
REMARK  status: ('A' for Active; 'I' for Inactive)
REMARK    1  A    between atoms: C_2  and  C_10
REMARK    2  A    between atoms: N_3  and  C_4
REMARK    3  A    between atoms: C_4  and  C_5
REMARK    4  A    between atoms: C_14  and  C_15
REMARK    5  A    between atoms: N_17  and  C_18
REMARK                            x       y       z     vdW  Elec       q    Type
REMARK                         _______ _______ _______ _____ _____    ______ ____
ROOT
ATOM      1  C   UNL     1       5.955   5.252  17.587  0.00  0.00    +0.000 C 
ATOM      2  C   UNL     1       6.400   4.698  18.948  0.00  0.00    +0.000 C 
ATOM      3  N   UNL     1       7.826   4.938  19.208  0.00  0.00    +0.000 NA
ATOM      4  C   UNL     1       8.110   6.375  19.208  0.00  0.00    +0.000 C 
ATOM      5  C   UNL     1       7.777   7.029  17.865  0.00  0.00    +0.000 C 
ATOM      6  C   UNL     1       6.312   6.739  17.472  0.00  0.00    +0.000 C 
ATOM      7  H   UNL     1       8.381   4.466  18.496  0.00  0.00    +0.000 HD
ENDROOT
BRANCH   1   9
ATOM      8  O   UNL     1       4.002   4.303  16.505  0.00  0.00    +0.000 OA
ATOM      9  C   UNL     1       4.456   5.003  17.404  0.00  0.00    +0.000 C 
ATOM     10  N   UNL     1       3.645   5.694  18.279  0.00  0.00    +0.000 N 
ATOM     11  H   UNL     1       4.027   6.047  19.144  0.00  0.00    +0.000 HD
BRANCH  10  12
ATOM     12  C   UNL     1       2.195   5.555  18.237  0.00  0.00    +0.000 C 
BRANCH  12  13
ATOM     13  C   UNL     1       1.660   4.754  19.425  0.00  0.00    +0.000 C 
ATOM     14  C   UNL     1       2.565   4.765  20.649  0.00  0.00    +0.000 C 
ATOM     15  C   UNL     1       2.244   3.444  21.301  0.00  0.00    +0.000 C 
ATOM     16  C   UNL     1       1.967   2.544  20.117  0.00  0.00    +0.000 C 
ATOM     17  O   UNL     1       1.491   3.372  19.050  0.00  0.00    +0.000 OA
ENDBRANCH  12  13
ENDBRANCH  10  12
ENDBRANCH   1   9
BRANCH   5  18
ATOM     18  C   UNL     1       8.009   8.540  17.938  0.00  0.00    +0.000 C 
ATOM     19  O   UNL     1       7.397   9.298  17.190  0.00  0.00    +0.000 OA
ATOM     20  N   UNL     1       8.978   8.930  18.852  0.00  0.00    +0.000 N 
ATOM     21  H   UNL     1       9.605   8.219  19.209  0.00  0.00    +0.000 HD
BRANCH  20  22
ATOM     22  C   UNL     1       9.310  10.274  19.161  0.00  0.00    +0.000 A 
ATOM     23  C   UNL     1       9.875  11.144  18.211  0.00  0.00    +0.000 A 
ATOM     24  C   UNL     1      10.270  12.438  18.550  0.00  0.00    +0.000 A 
ATOM     25  C   UNL     1      10.076  12.862  19.848  0.00  0.00    +0.000 A 
ATOM     26  C   UNL     1       9.478  12.028  20.796  0.00  0.00    +0.000 A 
ATOM     27  C   UNL     1       9.075  10.738  20.464  0.00  0.00    +0.000 A 
ATOM     28  C   UNL     1       9.461  12.698  22.137  0.00  0.00    +0.000 C 
ATOM     29  C   UNL     1       9.677  14.169  21.744  0.00  0.00    +0.000 C 
ATOM     30  C   UNL     1      10.505  14.160  20.454  0.00  0.00    +0.000 C 
ENDBRANCH  20  22
ENDBRANCH   5  18
TORSDOF 5
ENDMDL
MODEL 5
REMARK VINA RESULT:      -8.2      5.457      7.875
REMARK  Name = 
REMARK  5 active torsions:
REMARK  status: ('A' for Active; 'I' for Inactive)
REMARK    1  A    between atoms: C_2  and  C_10
REMARK    2  A    between atoms: N_3  and  C_4
REMARK    3  A    between atoms: C_4  and  C_5
REMARK    4  A    between atoms: C_14  and  C_15
REMARK    5  A    between atoms: N_17  and  C_18
REMARK                            x       y       z     vdW  Elec       q    Type
REMARK                         _______ _______ _______ _____ _____    ______ ____
ROOT
ATOM      1  C   UNL     1       5.108   4.348  18.852  0.00  0.00    +0.000 C 
ATOM      2  C   UNL     1       4.371   3.200  18.146  0.00  0.00    +0.000 C 
ATOM      3  N   UNL     1       3.335   2.597  18.995  0.00  0.00    +0.000 NA
ATOM      4  C   UNL     1       2.331   3.598  19.366  0.00  0.00    +0.000 C 
ATOM      5  C   UNL     1       2.941   4.763  20.150  0.00  0.00    +0.000 C 
ATOM      6  C   UNL     1       4.108   5.393  19.360  0.00  0.00    +0.000 C 
ATOM      7  H   UNL     1       3.771   2.206  19.829  0.00  0.00    +0.000 HD
ENDROOT
BRANCH   1   9
ATOM      8  O   UNL     1       6.678   6.035  18.096  0.00  0.00    +0.000 OA
ATOM      9  C   UNL     1       6.139   4.952  17.896  0.00  0.00    +0.000 C 
ATOM     10  N   UNL     1       6.356   4.223  16.745  0.00  0.00    +0.000 N 
ATOM     11  H   UNL     1       6.109   3.244  16.718  0.00  0.00    +0.000 HD
BRANCH  10  12
ATOM     12  C   UNL     1       7.315   4.662  15.740  0.00  0.00    +0.000 C 
BRANCH  12  13
ATOM     13  C   UNL     1       6.663   4.856  14.370  0.00  0.00    +0.000 C 
ATOM     14  C   UNL     1       6.109   3.580  13.752  0.00  0.00    +0.000 C 
ATOM     15  C   UNL     1       6.222   3.860  12.275  0.00  0.00    +0.000 C 
ATOM     16  C   UNL     1       7.479   4.696  12.187  0.00  0.00    +0.000 C 
ATOM     17  O   UNL     1       7.629   5.381  13.436  0.00  0.00    +0.000 OA
ENDBRANCH  12  13
ENDBRANCH  10  12
ENDBRANCH   1   9
BRANCH   5  18
ATOM     18  C   UNL     1       1.875   5.823  20.442  0.00  0.00    +0.000 C 
ATOM     19  O   UNL     1       0.733   5.488  20.741  0.00  0.00    +0.000 OA
ATOM     20  N   UNL     1       2.307   7.132  20.280  0.00  0.00    +0.000 N 
ATOM     21  H   UNL     1       3.169   7.286  19.771  0.00  0.00    +0.000 HD
BRANCH  20  22
ATOM     22  C   UNL     1       1.534   8.284  20.571  0.00  0.00    +0.000 A 
ATOM     23  C   UNL     1       1.173   8.633  21.886  0.00  0.00    +0.000 A 
ATOM     24  C   UNL     1       0.346   9.724  22.151  0.00  0.00    +0.000 A 
ATOM     25  C   UNL     1      -0.103  10.477  21.087  0.00  0.00    +0.000 A 
ATOM     26  C   UNL     1       0.277  10.174  19.778  0.00  0.00    +0.000 A 
ATOM     27  C   UNL     1       1.108   9.092  19.505  0.00  0.00    +0.000 A 
ATOM     28  C   UNL     1      -0.410  11.092  18.813  0.00  0.00    +0.000 C 
ATOM     29  C   UNL     1      -0.842  12.240  19.741  0.00  0.00    +0.000 C 
ATOM     30  C   UNL     1      -1.066  11.622  21.126  0.00  0.00    +0.000 C 
ENDBRANCH  20  22
ENDBRANCH   5  18
TORSDOF 5
ENDMDL
MODEL 6
REMARK VINA RESULT:      -8.2      5.592      8.034
REMARK  Name = 
REMARK  5 active torsions:
REMARK  status: ('A' for Active; 'I' for Inactive)
REMARK    1  A    between atoms: C_2  and  C_10
REMARK    2  A    between atoms: N_3  and  C_4
REMARK    3  A    between atoms: C_4  and  C_5
REMARK    4  A    between atoms: C_14  and  C_15
REMARK    5  A    between atoms: N_17  and  C_18
REMARK                            x       y       z     vdW  Elec       q    Type
REMARK                         _______ _______ _______ _____ _____    ______ ____
ROOT
ATOM      1  C   UNL     1       5.319   4.454  18.912  0.00  0.00    +0.000 C 
ATOM      2  C   UNL     1       4.404   3.267  18.577  0.00  0.00    +0.000 C 
ATOM      3  N   UNL     1       3.235   3.198  19.464  0.00  0.00    +0.000 NA
ATOM      4  C   UNL     1       2.430   4.416  19.345  0.00  0.00    +0.000 C 
ATOM      5  C   UNL     1       3.219   5.669  19.731  0.00  0.00    +0.000 C 
ATOM      6  C   UNL     1       4.521   5.763  18.905  0.00  0.00    +0.000 C 
ATOM      7  H   UNL     1       3.549   3.073  20.426  0.00  0.00    +0.000 HD
ENDROOT
BRANCH   1   9
ATOM      8  O   UNL     1       7.661   4.457  18.282  0.00  0.00    +0.000 OA
ATOM      9  C   UNL     1       6.488   4.486  17.925  0.00  0.00    +0.000 C 
ATOM     10  N   UNL     1       6.125   4.635  16.603  0.00  0.00    +0.000 N 
ATOM     11  H   UNL     1       5.186   4.404  16.313  0.00  0.00    +0.000 HD
BRANCH  10  12
ATOM     12  C   UNL     1       7.123   4.674  15.543  0.00  0.00    +0.000 C 
BRANCH  12  13
ATOM     13  C   UNL     1       6.486   4.793  14.158  0.00  0.00    +0.000 C 
ATOM     14  C   UNL     1       5.592   3.622  13.775  0.00  0.00    +0.000 C 
ATOM     15  C   UNL     1       5.710   3.603  12.272  0.00  0.00    +0.000 C 
ATOM     16  C   UNL     1       7.137   4.048  12.041  0.00  0.00    +0.000 C 
ATOM     17  O   UNL     1       7.514   4.874  13.149  0.00  0.00    +0.000 OA
ENDBRANCH  12  13
ENDBRANCH  10  12
ENDBRANCH   1   9
BRANCH   5  18
ATOM     18  C   UNL     1       2.369   6.922  19.511  0.00  0.00    +0.000 C 
ATOM     19  O   UNL     1       2.061   7.271  18.375  0.00  0.00    +0.000 OA
ATOM     20  N   UNL     1       2.053   7.615  20.672  0.00  0.00    +0.000 N 
ATOM     21  H   UNL     1       2.580   7.399  21.510  0.00  0.00    +0.000 HD
BRANCH  20  22
ATOM     22  C   UNL     1       1.210   8.752  20.736  0.00  0.00    +0.000 A 
ATOM     23  C   UNL     1       1.118   9.678  19.680  0.00  0.00    +0.000 A 
ATOM     24  C   UNL     1       0.345  10.835  19.788  0.00  0.00    +0.000 A 
ATOM     25  C   UNL     1      -0.352  11.048  20.958  0.00  0.00    +0.000 A 
ATOM     26  C   UNL     1      -0.308  10.121  22.003  0.00  0.00    +0.000 A 
ATOM     27  C   UNL     1       0.455   8.962  21.901  0.00  0.00    +0.000 A 
ATOM     28  C   UNL     1      -1.082  10.631  23.180  0.00  0.00    +0.000 C 
ATOM     29  C   UNL     1      -1.955  11.714  22.524  0.00  0.00    +0.000 C 
ATOM     30  C   UNL     1      -1.159  12.252  21.329  0.00  0.00    +0.000 C 
ENDBRANCH  20  22
ENDBRANCH   5  18
TORSDOF 5
ENDMDL
MODEL 7
REMARK VINA RESULT:      -8.2      5.708      8.037
REMARK  Name = 
REMARK  5 active torsions:
REMARK  status: ('A' for Active; 'I' for Inactive)
REMARK    1  A    between atoms: C_2  and  C_10
REMARK    2  A    between atoms: N_3  and  C_4
REMARK    3  A    between atoms: C_4  and  C_5
REMARK    4  A    between atoms: C_14  and  C_15
REMARK    5  A    between atoms: N_17  and  C_18
REMARK                            x       y       z     vdW  Elec       q    Type
REMARK                         _______ _______ _______ _____ _____    ______ ____
ROOT
ATOM      1  C   UNL     1       4.837   4.410  19.150  0.00  0.00    +0.000 C 
ATOM      2  C   UNL     1       3.846   3.441  18.488  0.00  0.00    +0.000 C 
ATOM      3  N   UNL     1       2.569   3.370  19.211  0.00  0.00    +0.000 NA
ATOM      4  C   UNL     1       1.930   4.687  19.252  0.00  0.00    +0.000 C 
ATOM      5  C   UNL     1       2.798   5.727  19.964  0.00  0.00    +0.000 C 
ATOM      6  C   UNL     1       4.200   5.794  19.319  0.00  0.00    +0.000 C 
ATOM      7  H   UNL     1       2.737   3.027  20.156  0.00  0.00    +0.000 HD
ENDROOT
BRANCH   1   9
ATOM      8  O   UNL     1       7.210   4.769  18.801  0.00  0.00    +0.000 OA
ATOM      9  C   UNL     1       6.123   4.463  18.322  0.00  0.00    +0.000 C 
ATOM     10  N   UNL     1       5.953   4.223  16.976  0.00  0.00    +0.000 N 
ATOM     11  H   UNL     1       5.129   3.736  16.653  0.00  0.00    +0.000 HD
BRANCH  10  12
ATOM     12  C   UNL     1       7.083   4.229  16.057  0.00  0.00    +0.000 C 
BRANCH  12  13
ATOM     13  C   UNL     1       6.699   4.761  14.675  0.00  0.00    +0.000 C 
ATOM     14  C   UNL     1       6.323   3.682  13.669  0.00  0.00    +0.000 C 
ATOM     15  C   UNL     1       6.705   4.317  12.356  0.00  0.00    +0.000 C 
ATOM     16  C   UNL     1       7.922   5.138  12.721  0.00  0.00    +0.000 C 
ATOM     17  O   UNL     1       7.803   5.491  14.104  0.00  0.00    +0.000 OA
ENDBRANCH  12  13
ENDBRANCH  10  12
ENDBRANCH   1   9
BRANCH   5  18
ATOM     18  C   UNL     1       2.132   7.104  19.908  0.00  0.00    +0.000 C 
ATOM     19  O   UNL     1       2.146   7.759  18.870  0.00  0.00    +0.000 OA
ATOM     20  N   UNL     1       1.592   7.531  21.114  0.00  0.00    +0.000 N 
ATOM     21  H   UNL     1       1.874   7.046  21.957  0.00  0.00    +0.000 HD
BRANCH  20  22
ATOM     22  C   UNL     1       0.852   8.727  21.295  0.00  0.00    +0.000 A 
ATOM     23  C   UNL     1       0.444   9.173  22.566  0.00  0.00    +0.000 A 
ATOM     24  C   UNL     1      -0.351  10.308  22.721  0.00  0.00    +0.000 A 
ATOM     25  C   UNL     1      -0.720  11.007  21.592  0.00  0.00    +0.000 A 
ATOM     26  C   UNL     1      -0.292  10.606  20.324  0.00  0.00    +0.000 A 
ATOM     27  C   UNL     1       0.507   9.479  20.160  0.00  0.00    +0.000 A 
ATOM     28  C   UNL     1      -0.898  11.483  19.271  0.00  0.00    +0.000 C 
ATOM     29  C   UNL     1      -1.326  12.704  20.103  0.00  0.00    +0.000 C 
ATOM     30  C   UNL     1      -1.638  12.186  21.512  0.00  0.00    +0.000 C 
ENDBRANCH  20  22
ENDBRANCH   5  18
TORSDOF 5
ENDMDL
MODEL 8
REMARK VINA RESULT:      -8.1      5.606      8.030
REMARK  Name = 
REMARK  5 active torsions:
REMARK  status: ('A' for Active; 'I' for Inactive)
REMARK    1  A    between atoms: C_2  and  C_10
REMARK    2  A    between atoms: N_3  and  C_4
REMARK    3  A    between atoms: C_4  and  C_5
REMARK    4  A    between atoms: C_14  and  C_15
REMARK    5  A    between atoms: N_17  and  C_18
REMARK                            x       y       z     vdW  Elec       q    Type
REMARK                         _______ _______ _______ _____ _____    ______ ____
ROOT
ATOM      1  C   UNL     1       5.342   4.942  17.124  0.00  0.00    +0.000 C 
ATOM      2  C   UNL     1       4.291   3.903  16.706  0.00  0.00    +0.000 C 
ATOM      3  N   UNL     1       3.269   3.697  17.742  0.00  0.00    +0.000 NA
ATOM      4  C   UNL     1       2.561   4.949  18.017  0.00  0.00    +0.000 C 
ATOM      5  C   UNL     1       3.502   6.046  18.519  0.00  0.00    +0.000 C 
ATOM      6  C   UNL     1       4.665   6.257  17.525  0.00  0.00    +0.000 C 
ATOM      7  H   UNL     1       3.716   3.348  18.589  0.00  0.00    +0.000 HD
ENDROOT
BRANCH   1   9
ATOM      8  O   UNL     1       7.144   6.063  15.950  0.00  0.00    +0.000 OA
ATOM      9  C   UNL     1       6.346   5.133  15.984  0.00  0.00    +0.000 C 
ATOM     10  N   UNL     1       6.229   4.225  14.954  0.00  0.00    +0.000 N 
ATOM     11  H   UNL     1       5.760   3.345  15.112  0.00  0.00    +0.000 HD
BRANCH  10  12
ATOM     12  C   UNL     1       7.118   4.270  13.801  0.00  0.00    +0.000 C 
BRANCH  12  13
ATOM     13  C   UNL     1       6.382   3.965  12.495  0.00  0.00    +0.000 C 
ATOM     14  C   UNL     1       4.889   3.719  12.658  0.00  0.00    +0.000 C 
ATOM     15  C   UNL     1       4.586   2.789  11.510  0.00  0.00    +0.000 C 
ATOM     16  C   UNL     1       5.854   1.972  11.397  0.00  0.00    +0.000 C 
ATOM     17  O   UNL     1       6.931   2.779  11.885  0.00  0.00    +0.000 OA
ENDBRANCH  12  13
ENDBRANCH  10  12
ENDBRANCH   1   9
BRANCH   5  18
ATOM     18  C   UNL     1       2.736   7.358  18.712  0.00  0.00    +0.000 C 
ATOM     19  O   UNL     1       2.742   8.215  17.833  0.00  0.00    +0.000 OA
ATOM     20  N   UNL     1       2.117   7.486  19.948  0.00  0.00    +0.000 N 
ATOM     21  H   UNL     1       2.402   6.855  20.687  0.00  0.00    +0.000 HD
BRANCH  20  22
ATOM     22  C   UNL     1       1.282   8.566  20.331  0.00  0.00    +0.000 A 
ATOM     23  C   UNL     1       0.952   9.609  19.445  0.00  0.00    +0.000 A 
ATOM     24  C   UNL     1       0.195  10.706  19.859  0.00  0.00    +0.000 A 
ATOM     25  C   UNL     1      -0.245  10.740  21.164  0.00  0.00    +0.000 A 
ATOM     26  C   UNL     1       0.036   9.696  22.049  0.00  0.00    +0.000 A 
ATOM     27  C   UNL     1       0.784   8.595  21.643  0.00  0.00    +0.000 A 
ATOM     28  C   UNL     1      -0.484  10.020  23.416  0.00  0.00    +0.000 C 
ATOM     29  C   UNL     1      -1.497  11.133  23.099  0.00  0.00    +0.000 C 
ATOM     30  C   UNL     1      -0.982  11.850  21.846  0.00  0.00    +0.000 C 
ENDBRANCH  20  22
ENDBRANCH   5  18
TORSDOF 5
ENDMDL
MODEL 9
REMARK VINA RESULT:      -8.0      1.372      1.510
REMARK  Name = 
REMARK  5 active torsions:
REMARK  status: ('A' for Active; 'I' for Inactive)
REMARK    1  A    between atoms: C_2  and  C_10
REMARK    2  A    between atoms: N_3  and  C_4
REMARK    3  A    between atoms: C_4  and  C_5
REMARK    4  A    between atoms: C_14  and  C_15
REMARK    5  A    between atoms: N_17  and  C_18
REMARK                            x       y       z     vdW  Elec       q    Type
REMARK                         _______ _______ _______ _____ _____    ______ ____
ROOT
ATOM      1  C   UNL     1       4.703   5.576  16.953  0.00  0.00    +0.000 C 
ATOM      2  C   UNL     1       5.353   4.197  17.135  0.00  0.00    +0.000 C 
ATOM      3  N   UNL     1       6.741   4.167  16.654  0.00  0.00    +0.000 NA
ATOM      4  C   UNL     1       7.558   5.135  17.389  0.00  0.00    +0.000 C 
ATOM      5  C   UNL     1       7.048   6.568  17.217  0.00  0.00    +0.000 C 
ATOM      6  C   UNL     1       5.559   6.663  17.614  0.00  0.00    +0.000 C 
ATOM      7  H   UNL     1       6.755   4.375  15.656  0.00  0.00    +0.000 HD
ENDROOT
BRANCH   1   9
ATOM      8  O   UNL     1       2.663   6.556  17.825  0.00  0.00    +0.000 OA
ATOM      9  C   UNL     1       3.279   5.543  17.512  0.00  0.00    +0.000 C 
ATOM     10  N   UNL     1       2.769   4.278  17.718  0.00  0.00    +0.000 N 
ATOM     11  H   UNL     1       3.171   3.490  17.231  0.00  0.00    +0.000 HD
BRANCH  10  12
ATOM     12  C   UNL     1       1.422   4.080  18.237  0.00  0.00    +0.000 C 
BRANCH  12  13
ATOM     13  C   UNL     1       1.376   4.167  19.764  0.00  0.00    +0.000 C 
ATOM     14  C   UNL     1       2.741   4.122  20.436  0.00  0.00    +0.000 C 
ATOM     15  C   UNL     1       2.422   3.506  21.775  0.00  0.00    +0.000 C 
ATOM     16  C   UNL     1       1.300   2.547  21.444  0.00  0.00    +0.000 C 
ATOM     17  O   UNL     1       0.617   3.063  20.296  0.00  0.00    +0.000 OA
ENDBRANCH  12  13
ENDBRANCH  10  12
ENDBRANCH   1   9
BRANCH   5  18
ATOM     18  C   UNL     1       7.878   7.533  18.067  0.00  0.00    +0.000 C 
ATOM     19  O   UNL     1       8.516   7.119  19.031  0.00  0.00    +0.000 OA
ATOM     20  N   UNL     1       7.783   8.864  17.684  0.00  0.00    +0.000 N 
ATOM     21  H   UNL     1       7.026   9.125  17.064  0.00  0.00    +0.000 HD
BRANCH  20  22
ATOM     22  C   UNL     1       8.520   9.930  18.260  0.00  0.00    +0.000 A 
ATOM     23  C   UNL     1       9.240   9.781  19.460  0.00  0.00    +0.000 A 
ATOM     24  C   UNL     1       9.895  10.859  20.057  0.00  0.00    +0.000 A 
ATOM     25  C   UNL     1       9.839  12.086  19.430  0.00  0.00    +0.000 A 
ATOM     26  C   UNL     1       9.165  12.246  18.217  0.00  0.00    +0.000 A 
ATOM     27  C   UNL     1       8.515  11.175  17.611  0.00  0.00    +0.000 A 
ATOM     28  C   UNL     1       9.187  13.684  17.798  0.00  0.00    +0.000 C 
ATOM     29  C   UNL     1      10.344  14.231  18.651  0.00  0.00    +0.000 C 
ATOM     30  C   UNL     1      10.380  13.388  19.931  0.00  0.00    +0.000 C 
ENDBRANCH  20  22
ENDBRANCH   5  18
TORSDOF 5
ENDMDL
