MODEL 1
REMARK VINA RESULT:      -6.6      0.000      0.000
REMARK  Name = 
REMARK  7 active torsions:
REMARK  status: ('A' for Active; 'I' for Inactive)
REMARK    1  A    between atoms: C_1  and  C_2
REMARK    2  A    between atoms: C_10  and  C_11
REMARK    3  A    between atoms: C_10  and  C_12
REMARK    4  A    between atoms: C_12  and  C_13
REMARK    5  A    between atoms: C_13  and  O_15
REMARK    6  A    between atoms: C_17  and  C_18
REMARK    7  A    between atoms: C_25  and  C_26
REMARK                            x       y       z     vdW  Elec       q    Type
REMARK                         _______ _______ _______ _____ _____    ______ ____
ROOT
ATOM      1  C   UNL     1       1.853   7.447  20.275  0.00  0.00    +0.000 C 
ATOM      2  C   UNL     1       1.404   8.738  19.660  0.00  0.00    +0.000 A 
ATOM      3  C   UNL     1       2.061   9.289  18.559  0.00  0.00    +0.000 A 
ATOM      4  C   UNL     1       1.624  10.513  18.081  0.00  0.00    +0.000 A 
ATOM      5  N   UNL     1       0.611  11.218  18.624  0.00  0.00    +0.000 NA
ATOM      6  C   UNL     1      -0.007  10.682  19.699  0.00  0.00    +0.000 A 
ATOM      7  N   UNL     1      -0.990  11.483  20.313  0.00  0.00    +0.000 N 
ATOM      8  C   UNL     1      -0.803  11.836  21.654  0.00  0.00    +0.000 C 
ATOM      9  O   UNL     1      -0.059  11.262  22.445  0.00  0.00    +0.000 OA
ATOM     10  C   UNL     1      -1.457  13.178  21.998  0.00  0.00    +0.000 C 
ATOM     11  C   UNL     1      -1.321  13.465  23.503  0.00  0.00    +0.000 C 
ATOM     12  C   UNL     1      -2.954  13.088  21.645  0.00  0.00    +0.000 C 
ATOM     13  C   UNL     1      -3.195  12.665  20.187  0.00  0.00    +0.000 C 
ATOM     14  C   UNL     1      -2.387  11.370  19.838  0.00  0.00    +0.000 C 
ATOM     15  C   UNL     1       0.352   9.447  20.235  0.00  0.00    +0.000 A 
ENDROOT
BRANCH  13  16
ATOM     16  C   UNL     1      -4.693  12.584  19.914  0.00  0.00    +0.000 A 
ATOM     17  C   UNL     1      -5.613  12.087  20.851  0.00  0.00    +0.000 A 
ATOM     18  C   UNL     1      -6.969  11.978  20.531  0.00  0.00    +0.000 A 
ATOM     19  C   UNL     1      -7.427  12.385  19.279  0.00  0.00    +0.000 A 
ATOM     20  C   UNL     1      -6.529  12.907  18.354  0.00  0.00    +0.000 A 
ATOM     21 CL   UNL     1      -7.091  13.414  16.809  0.00  0.00    +0.000 Cl
ATOM     22  C   UNL     1      -5.174  13.014  18.666  0.00  0.00    +0.000 A 
ENDBRANCH  13  16
BRANCH  14  23
ATOM     23  C   UNL     1      -2.546  10.941  18.373  0.00  0.00    +0.000 A 
ATOM     24  C   UNL     1      -3.032   9.673  18.009  0.00  0.00    +0.000 A 
ATOM     25  C   UNL     1      -3.181   9.316  16.668  0.00  0.00    +0.000 A 
ATOM     26  C   UNL     1      -2.878  10.234  15.669  0.00  0.00    +0.000 A 
ATOM     27 CL   UNL     1      -3.119   9.811  14.019  0.00  0.00    +0.000 Cl
ATOM     28  C   UNL     1      -2.396  11.497  15.999  0.00  0.00    +0.000 A 
ATOM     29  C   UNL     1      -2.219  11.845  17.342  0.00  0.00    +0.000 A 
ENDBRANCH  14  23
BRANCH  10  30
ATOM     30  C   UNL     1      -0.652  14.230  21.191  0.00  0.00    +0.000 C 
BRANCH  30  31
ATOM     31  C   UNL     1       0.526  14.803  21.930  0.00  0.00    +0.000 C 
ATOM     32  O   UNL     1       1.589  14.216  22.057  0.00  0.00    +0.000 OA
BRANCH  31  33
ATOM     33  O   UNL     1       0.309  16.040  22.422  0.00  0.00    +0.000 OA
ATOM     34  H   UNL     1       0.085  16.712  21.750  0.00  0.00    +0.000 HD
ENDBRANCH  31  33
ENDBRANCH  30  31
ENDBRANCH  10  30
TORSDOF 5
ENDMDL
MODEL 2
REMARK VINA RESULT:      -6.6      3.588      6.976
REMARK  Name = 
REMARK  7 active torsions:
REMARK  status: ('A' for Active; 'I' for Inactive)
REMARK    1  A    between atoms: C_1  and  C_2
REMARK    2  A    between atoms: C_10  and  C_11
REMARK    3  A    between atoms: C_10  and  C_12
REMARK    4  A    between atoms: C_12  and  C_13
REMARK    5  A    between atoms: C_13  and  O_15
REMARK    6  A    between atoms: C_17  and  C_18
REMARK    7  A    between atoms: C_25  and  C_26
REMARK                            x       y       z     vdW  Elec       q    Type
REMARK                         _______ _______ _______ _____ _____    ______ ____
ROOT
ATOM      1  C   UNL     1       0.316  18.277  25.822  0.00  0.00    +0.000 C 
ATOM      2  C   UNL     1      -0.323  17.766  24.567  0.00  0.00    +0.000 A 
ATOM      3  C   UNL     1      -0.666  18.624  23.521  0.00  0.00    +0.000 A 
ATOM      4  C   UNL     1      -1.306  18.087  22.416  0.00  0.00    +0.000 A 
ATOM      5  N   UNL     1      -1.634  16.785  22.292  0.00  0.00    +0.000 NA
ATOM      6  C   UNL     1      -1.310  15.967  23.318  0.00  0.00    +0.000 A 
ATOM      7  N   UNL     1      -1.757  14.635  23.214  0.00  0.00    +0.000 N 
ATOM      8  C   UNL     1      -2.615  14.152  24.207  0.00  0.00    +0.000 C 
ATOM      9  O   UNL     1      -2.759  14.641  25.325  0.00  0.00    +0.000 OA
ATOM     10  C   UNL     1      -3.553  13.059  23.684  0.00  0.00    +0.000 C 
ATOM     11  C   UNL     1      -4.393  12.484  24.838  0.00  0.00    +0.000 C 
ATOM     12  C   UNL     1      -2.691  11.929  23.090  0.00  0.00    +0.000 C 
ATOM     13  C   UNL     1      -1.709  12.433  22.020  0.00  0.00    +0.000 C 
ATOM     14  C   UNL     1      -0.875  13.647  22.551  0.00  0.00    +0.000 C 
ATOM     15  C   UNL     1      -0.649  16.416  24.458  0.00  0.00    +0.000 A 
ENDROOT
BRANCH  13  16
ATOM     16  C   UNL     1      -0.882  11.266  21.489  0.00  0.00    +0.000 A 
ATOM     17  C   UNL     1      -0.147  10.410  22.323  0.00  0.00    +0.000 A 
ATOM     18  C   UNL     1       0.643   9.392  21.782  0.00  0.00    +0.000 A 
ATOM     19  C   UNL     1       0.690   9.201  20.402  0.00  0.00    +0.000 A 
ATOM     20  C   UNL     1      -0.060  10.024  19.568  0.00  0.00    +0.000 A 
ATOM     21 CL   UNL     1      -0.008   9.789  17.864  0.00  0.00    +0.000 Cl
ATOM     22  C   UNL     1      -0.846  11.045  20.102  0.00  0.00    +0.000 A 
ENDBRANCH  13  16
BRANCH  14  23
ATOM     23  C   UNL     1       0.078  14.227  21.496  0.00  0.00    +0.000 A 
ATOM     24  C   UNL     1       1.439  14.454  21.758  0.00  0.00    +0.000 A 
ATOM     25  C   UNL     1       2.286  14.968  20.774  0.00  0.00    +0.000 A 
ATOM     26  C   UNL     1       1.791  15.230  19.502  0.00  0.00    +0.000 A 
ATOM     27 CL   UNL     1       2.851  15.807  18.275  0.00  0.00    +0.000 Cl
ATOM     28  C   UNL     1       0.447  15.013  19.214  0.00  0.00    +0.000 A 
ATOM     29  C   UNL     1      -0.408  14.527  20.207  0.00  0.00    +0.000 A 
ENDBRANCH  14  23
BRANCH  10  30
ATOM     30  C   UNL     1      -4.479  13.782  22.673  0.00  0.00    +0.000 C 
BRANCH  30  31
ATOM     31  C   UNL     1      -5.780  13.073  22.413  0.00  0.00    +0.000 C 
ATOM     32  O   UNL     1      -5.868  12.054  21.747  0.00  0.00    +0.000 OA
BRANCH  31  33
ATOM     33  O   UNL     1      -6.844  13.654  23.006  0.00  0.00    +0.000 OA
ATOM     34  H   UNL     1      -7.707  13.417  22.617  0.00  0.00    +0.000 HD
ENDBRANCH  31  33
ENDBRANCH  30  31
ENDBRANCH  10  30
TORSDOF 5
ENDMDL
MODEL 3
REMARK VINA RESULT:      -6.6      2.944      5.763
REMARK  Name = 
REMARK  7 active torsions:
REMARK  status: ('A' for Active; 'I' for Inactive)
REMARK    1  A    between atoms: C_1  and  C_2
REMARK    2  A    between atoms: C_10  and  C_11
REMARK    3  A    between atoms: C_10  and  C_12
REMARK    4  A    between atoms: C_12  and  C_13
REMARK    5  A    between atoms: C_13  and  O_15
REMARK    6  A    between atoms: C_17  and  C_18
REMARK    7  A    between atoms: C_25  and  C_26
REMARK                            x       y       z     vdW  Elec       q    Type
REMARK                         _______ _______ _______ _____ _____    ______ ____
ROOT
ATOM      1  C   UNL     1       4.187  16.363  18.564  0.00  0.00    +0.000 C 
ATOM      2  C   UNL     1       3.471  15.612  19.644  0.00  0.00    +0.000 A 
ATOM      3  C   UNL     1       3.817  15.758  20.988  0.00  0.00    +0.000 A 
ATOM      4  C   UNL     1       3.149  14.987  21.925  0.00  0.00    +0.000 A 
ATOM      5  N   UNL     1       2.192  14.088  21.619  0.00  0.00    +0.000 NA
ATOM      6  C   UNL     1       1.876  13.944  20.312  0.00  0.00    +0.000 A 
ATOM      7  N   UNL     1       0.952  12.926  20.007  0.00  0.00    +0.000 N 
ATOM      8  C   UNL     1       1.365  11.901  19.150  0.00  0.00    +0.000 C 
ATOM      9  O   UNL     1       2.319  11.959  18.377  0.00  0.00    +0.000 OA
ATOM     10  C   UNL     1       0.640  10.581  19.429  0.00  0.00    +0.000 C 
ATOM     11  C   UNL     1       1.047   9.521  18.390  0.00  0.00    +0.000 C 
ATOM     12  C   UNL     1      -0.875  10.830  19.314  0.00  0.00    +0.000 C 
ATOM     13  C   UNL     1      -1.357  11.977  20.217  0.00  0.00    +0.000 C 
ATOM     14  C   UNL     1      -0.490  13.263  20.002  0.00  0.00    +0.000 C 
ATOM     15  C   UNL     1       2.482  14.691  19.305  0.00  0.00    +0.000 A 
ENDROOT
BRANCH  13  16
ATOM     16  C   UNL     1      -2.859  12.176  20.040  0.00  0.00    +0.000 A 
ATOM     17  C   UNL     1      -3.695  12.631  21.072  0.00  0.00    +0.000 A 
ATOM     18  C   UNL     1      -5.075  12.739  20.877  0.00  0.00    +0.000 A 
ATOM     19  C   UNL     1      -5.635  12.417  19.642  0.00  0.00    +0.000 A 
ATOM     20  C   UNL     1      -4.811  11.996  18.603  0.00  0.00    +0.000 A 
ATOM     21 CL   UNL     1      -5.498  11.602  17.075  0.00  0.00    +0.000 Cl
ATOM     22  C   UNL     1      -3.435  11.881  18.793  0.00  0.00    +0.000 A 
ENDBRANCH  13  16
BRANCH  14  23
ATOM     23  C   UNL     1      -0.894  14.419  20.927  0.00  0.00    +0.000 A 
ATOM     24  C   UNL     1      -0.931  14.285  22.325  0.00  0.00    +0.000 A 
ATOM     25  C   UNL     1      -1.288  15.359  23.143  0.00  0.00    +0.000 A 
ATOM     26  C   UNL     1      -1.579  16.595  22.576  0.00  0.00    +0.000 A 
ATOM     27 CL   UNL     1      -1.960  17.931  23.590  0.00  0.00    +0.000 Cl
ATOM     28  C   UNL     1      -1.549  16.757  21.195  0.00  0.00    +0.000 A 
ATOM     29  C   UNL     1      -1.221  15.674  20.374  0.00  0.00    +0.000 A 
ENDBRANCH  14  23
BRANCH  10  30
ATOM     30  C   UNL     1       1.132  10.149  20.835  0.00  0.00    +0.000 C 
BRANCH  30  31
ATOM     31  C   UNL     1       0.719   8.758  21.232  0.00  0.00    +0.000 C 
ATOM     32  O   UNL     1      -0.416   8.466  21.575  0.00  0.00    +0.000 OA
BRANCH  31  33
ATOM     33  O   UNL     1       1.715   7.851  21.150  0.00  0.00    +0.000 OA
ATOM     34  H   UNL     1       2.520   8.171  20.701  0.00  0.00    +0.000 HD
ENDBRANCH  31  33
ENDBRANCH  30  31
ENDBRANCH  10  30
TORSDOF 5
ENDMDL
MODEL 4
REMARK VINA RESULT:      -6.6      0.273      1.026
REMARK  Name = 
REMARK  7 active torsions:
REMARK  status: ('A' for Active; 'I' for Inactive)
REMARK    1  A    between atoms: C_1  and  C_2
REMARK    2  A    between atoms: C_10  and  C_11
REMARK    3  A    between atoms: C_10  and  C_12
REMARK    4  A    between atoms: C_12  and  C_13
REMARK    5  A    between atoms: C_13  and  O_15
REMARK    6  A    between atoms: C_17  and  C_18
REMARK    7  A    between atoms: C_25  and  C_26
REMARK                            x       y       z     vdW  Elec       q    Type
REMARK                         _______ _______ _______ _____ _____    ______ ____
ROOT
ATOM      1  C   UNL     1       1.805   7.469  20.287  0.00  0.00    +0.000 C 
ATOM      2  C   UNL     1       1.366   8.777  19.704  0.00  0.00    +0.000 A 
ATOM      3  C   UNL     1       2.032   9.354  18.622  0.00  0.00    +0.000 A 
ATOM      4  C   UNL     1       1.604  10.594  18.174  0.00  0.00    +0.000 A 
ATOM      5  N   UNL     1       0.591  11.289  18.730  0.00  0.00    +0.000 NA
ATOM      6  C   UNL     1      -0.036  10.726  19.787  0.00  0.00    +0.000 A 
ATOM      7  N   UNL     1      -1.019  11.516  20.416  0.00  0.00    +0.000 N 
ATOM      8  C   UNL     1      -0.839  11.832  21.767  0.00  0.00    +0.000 C 
ATOM      9  O   UNL     1      -0.103  11.234  22.547  0.00  0.00    +0.000 OA
ATOM     10  C   UNL     1      -1.489  13.167  22.143  0.00  0.00    +0.000 C 
ATOM     11  C   UNL     1      -1.361  13.413  23.656  0.00  0.00    +0.000 C 
ATOM     12  C   UNL     1      -2.984  13.094  21.778  0.00  0.00    +0.000 C 
ATOM     13  C   UNL     1      -3.218  12.711  20.308  0.00  0.00    +0.000 C 
ATOM     14  C   UNL     1      -2.414  11.422  19.930  0.00  0.00    +0.000 C 
ATOM     15  C   UNL     1       0.313   9.476  20.291  0.00  0.00    +0.000 A 
ENDROOT
BRANCH  13  16
ATOM     16  C   UNL     1      -4.715  12.645  20.024  0.00  0.00    +0.000 A 
ATOM     17  C   UNL     1      -5.644  12.140  20.947  0.00  0.00    +0.000 A 
ATOM     18  C   UNL     1      -6.999  12.045  20.616  0.00  0.00    +0.000 A 
ATOM     19  C   UNL     1      -7.445  12.474  19.367  0.00  0.00    +0.000 A 
ATOM     20  C   UNL     1      -6.537  13.006  18.457  0.00  0.00    +0.000 A 
ATOM     21 CL   UNL     1      -7.086  13.541  16.917  0.00  0.00    +0.000 Cl
ATOM     22  C   UNL     1      -5.184  13.098  18.780  0.00  0.00    +0.000 A 
ENDBRANCH  13  16
BRANCH  14  23
ATOM     23  C   UNL     1      -2.566  11.033  18.452  0.00  0.00    +0.000 A 
ATOM     24  C   UNL     1      -2.193  11.894  17.407  0.00  0.00    +0.000 A 
ATOM     25  C   UNL     1      -2.329  11.508  16.072  0.00  0.00    +0.000 A 
ATOM     26  C   UNL     1      -2.808  10.240  15.763  0.00  0.00    +0.000 A 
ATOM     27 CL   UNL     1      -2.918   9.746  14.119  0.00  0.00    +0.000 Cl
ATOM     28  C   UNL     1      -3.184   9.366  16.778  0.00  0.00    +0.000 A 
ATOM     29  C   UNL     1      -3.077   9.764  18.114  0.00  0.00    +0.000 A 
ENDBRANCH  14  23
BRANCH  10  30
ATOM     30  C   UNL     1      -0.674  14.236  21.370  0.00  0.00    +0.000 C 
BRANCH  30  31
ATOM     31  C   UNL     1       0.715  14.457  21.904  0.00  0.00    +0.000 C 
ATOM     32  O   UNL     1       1.001  15.359  22.676  0.00  0.00    +0.000 OA
BRANCH  31  33
ATOM     33  O   UNL     1       1.615  13.550  21.470  0.00  0.00    +0.000 OA
ATOM     34  H   UNL     1       1.264  12.645  21.369  0.00  0.00    +0.000 HD
ENDBRANCH  31  33
ENDBRANCH  30  31
ENDBRANCH  10  30
TORSDOF 5
ENDMDL
MODEL 5
REMARK VINA RESULT:      -6.5      3.017      5.772
REMARK  Name = 
REMARK  7 active torsions:
REMARK  status: ('A' for Active; 'I' for Inactive)
REMARK    1  A    between atoms: C_1  and  C_2
REMARK    2  A    between atoms: C_10  and  C_11
REMARK    3  A    between atoms: C_10  and  C_12
REMARK    4  A    between atoms: C_12  and  C_13
REMARK    5  A    between atoms: C_13  and  O_15
REMARK    6  A    between atoms: C_17  and  C_18
REMARK    7  A    between atoms: C_25  and  C_26
REMARK                            x       y       z     vdW  Elec       q    Type
REMARK                         _______ _______ _______ _____ _____    ______ ____
ROOT
ATOM      1  C   UNL     1       4.508  15.943  18.310  0.00  0.00    +0.000 C 
ATOM      2  C   UNL     1       3.783  15.224  19.406  0.00  0.00    +0.000 A 
ATOM      3  C   UNL     1       4.174  15.341  20.740  0.00  0.00    +0.000 A 
ATOM      4  C   UNL     1       3.492  14.601  21.691  0.00  0.00    +0.000 A 
ATOM      5  N   UNL     1       2.478  13.758  21.407  0.00  0.00    +0.000 NA
ATOM      6  C   UNL     1       2.118  13.641  20.110  0.00  0.00    +0.000 A 
ATOM      7  N   UNL     1       1.131  12.677  19.825  0.00  0.00    +0.000 N 
ATOM      8  C   UNL     1       1.463  11.638  18.950  0.00  0.00    +0.000 C 
ATOM      9  O   UNL     1       2.396  11.650  18.151  0.00  0.00    +0.000 OA
ATOM     10  C   UNL     1       0.675  10.357  19.242  0.00  0.00    +0.000 C 
ATOM     11  C   UNL     1       0.993   9.285  18.186  0.00  0.00    +0.000 C 
ATOM     12  C   UNL     1      -0.827  10.691  19.172  0.00  0.00    +0.000 C 
ATOM     13  C   UNL     1      -1.220  11.855  20.095  0.00  0.00    +0.000 C 
ATOM     14  C   UNL     1      -0.289  13.093  19.863  0.00  0.00    +0.000 C 
ATOM     15  C   UNL     1       2.735  14.361  19.090  0.00  0.00    +0.000 A 
ENDROOT
BRANCH  13  16
ATOM     16  C   UNL     1      -2.713  12.137  19.962  0.00  0.00    +0.000 A 
ATOM     17  C   UNL     1      -3.493  12.633  21.020  0.00  0.00    +0.000 A 
ATOM     18  C   UNL     1      -4.869  12.818  20.865  0.00  0.00    +0.000 A 
ATOM     19  C   UNL     1      -5.481  12.533  19.646  0.00  0.00    +0.000 A 
ATOM     20  C   UNL     1      -4.713  12.071  18.582  0.00  0.00    +0.000 A 
ATOM     21 CL   UNL     1      -5.464  11.722  17.074  0.00  0.00    +0.000 Cl
ATOM     22  C   UNL     1      -3.340  11.879  18.732  0.00  0.00    +0.000 A 
ENDBRANCH  13  16
BRANCH  14  23
ATOM     23  C   UNL     1      -0.603  14.263  20.806  0.00  0.00    +0.000 A 
ATOM     24  C   UNL     1      -0.911  15.549  20.331  0.00  0.00    +0.000 A 
ATOM     25  C   UNL     1      -1.207  16.591  21.212  0.00  0.00    +0.000 A 
ATOM     26  C   UNL     1      -1.233  16.354  22.582  0.00  0.00    +0.000 A 
ATOM     27 CL   UNL     1      -1.656  17.625  23.661  0.00  0.00    +0.000 Cl
ATOM     28  C   UNL     1      -0.934  15.090  23.080  0.00  0.00    +0.000 A 
ATOM     29  C   UNL     1      -0.608  14.054  22.200  0.00  0.00    +0.000 A 
ENDBRANCH  14  23
BRANCH  10  30
ATOM     30  C   UNL     1       1.182   9.889  20.631  0.00  0.00    +0.000 C 
BRANCH  30  31
ATOM     31  C   UNL     1       0.757   8.494  21.003  0.00  0.00    +0.000 C 
ATOM     32  O   UNL     1       1.457   7.510  20.827  0.00  0.00    +0.000 OA
BRANCH  31  33
ATOM     33  O   UNL     1      -0.464   8.432  21.575  0.00  0.00    +0.000 OA
ATOM     34  H   UNL     1      -0.475   8.624  22.532  0.00  0.00    +0.000 HD
ENDBRANCH  31  33
ENDBRANCH  30  31
ENDBRANCH  10  30
TORSDOF 5
ENDMDL
MODEL 6
REMARK VINA RESULT:      -6.5      1.002      1.391
REMARK  Name = 
REMARK  7 active torsions:
REMARK  status: ('A' for Active; 'I' for Inactive)
REMARK    1  A    between atoms: C_1  and  C_2
REMARK    2  A    between atoms: C_10  and  C_11
REMARK    3  A    between atoms: C_10  and  C_12
REMARK    4  A    between atoms: C_12  and  C_13
REMARK    5  A    between atoms: C_13  and  O_15
REMARK    6  A    between atoms: C_17  and  C_18
REMARK    7  A    between atoms: C_25  and  C_26
REMARK                            x       y       z     vdW  Elec       q    Type
REMARK                         _______ _______ _______ _____ _____    ______ ____
ROOT
ATOM      1  C   UNL     1       1.892   7.386  20.180  0.00  0.00    +0.000 C 
ATOM      2  C   UNL     1       1.442   8.680  19.574  0.00  0.00    +0.000 A 
ATOM      3  C   UNL     1       2.083   9.227  18.462  0.00  0.00    +0.000 A 
ATOM      4  C   UNL     1       1.646  10.455  17.992  0.00  0.00    +0.000 A 
ATOM      5  N   UNL     1       0.647  11.166  18.553  0.00  0.00    +0.000 NA
ATOM      6  C   UNL     1       0.044  10.633  19.639  0.00  0.00    +0.000 A 
ATOM      7  N   UNL     1      -0.923  11.440  20.270  0.00  0.00    +0.000 N 
ATOM      8  C   UNL     1      -0.712  11.791  21.607  0.00  0.00    +0.000 C 
ATOM      9  O   UNL     1       0.042  11.211  22.385  0.00  0.00    +0.000 OA
ATOM     10  C   UNL     1      -1.351  13.136  21.963  0.00  0.00    +0.000 C 
ATOM     11  C   UNL     1      -1.188  13.421  23.467  0.00  0.00    +0.000 C 
ATOM     12  C   UNL     1      -2.854  13.056  21.636  0.00  0.00    +0.000 C 
ATOM     13  C   UNL     1      -3.122  12.636  20.182  0.00  0.00    +0.000 C 
ATOM     14  C   UNL     1      -2.329  11.336  19.819  0.00  0.00    +0.000 C 
ATOM     15  C   UNL     1       0.403   9.395  20.167  0.00  0.00    +0.000 A 
ENDROOT
BRANCH  13  16
ATOM     16  C   UNL     1      -4.626  12.565  19.935  0.00  0.00    +0.000 A 
ATOM     17  C   UNL     1      -5.184  12.473  18.650  0.00  0.00    +0.000 A 
ATOM     18  C   UNL     1      -6.570  12.470  18.473  0.00  0.00    +0.000 A 
ATOM     19  C   UNL     1      -7.417  12.536  19.579  0.00  0.00    +0.000 A 
ATOM     20  C   UNL     1      -6.874  12.595  20.858  0.00  0.00    +0.000 A 
ATOM     21 CL   UNL     1      -7.916  12.672  22.226  0.00  0.00    +0.000 Cl
ATOM     22  C   UNL     1      -5.492  12.603  21.040  0.00  0.00    +0.000 A 
ENDBRANCH  13  16
BRANCH  14  23
ATOM     23  C   UNL     1      -2.516  10.909  18.356  0.00  0.00    +0.000 A 
ATOM     24  C   UNL     1      -3.041   9.655  18.000  0.00  0.00    +0.000 A 
ATOM     25  C   UNL     1      -3.214   9.300  16.661  0.00  0.00    +0.000 A 
ATOM     26  C   UNL     1      -2.897  10.208  15.657  0.00  0.00    +0.000 A 
ATOM     27 CL   UNL     1      -3.167   9.789  14.011  0.00  0.00    +0.000 Cl
ATOM     28  C   UNL     1      -2.377  11.457  15.980  0.00  0.00    +0.000 A 
ATOM     29  C   UNL     1      -2.175  11.802  17.320  0.00  0.00    +0.000 A 
ENDBRANCH  14  23
BRANCH  10  30
ATOM     30  C   UNL     1      -0.553  14.183  21.144  0.00  0.00    +0.000 C 
BRANCH  30  31
ATOM     31  C   UNL     1       0.730  14.626  21.793  0.00  0.00    +0.000 C 
ATOM     32  O   UNL     1       0.896  15.742  22.259  0.00  0.00    +0.000 OA
BRANCH  31  33
ATOM     33  O   UNL     1       1.676  13.665  21.837  0.00  0.00    +0.000 OA
ATOM     34  H   UNL     1       2.033  13.405  20.966  0.00  0.00    +0.000 HD
ENDBRANCH  31  33
ENDBRANCH  30  31
ENDBRANCH  10  30
TORSDOF 5
ENDMDL
MODEL 7
REMARK VINA RESULT:      -6.5      3.050      6.065
REMARK  Name = 
REMARK  7 active torsions:
REMARK  status: ('A' for Active; 'I' for Inactive)
REMARK    1  A    between atoms: C_1  and  C_2
REMARK    2  A    between atoms: C_10  and  C_11
REMARK    3  A    between atoms: C_10  and  C_12
REMARK    4  A    between atoms: C_12  and  C_13
REMARK    5  A    between atoms: C_13  and  O_15
REMARK    6  A    between atoms: C_17  and  C_18
REMARK    7  A    between atoms: C_25  and  C_26
REMARK                            x       y       z     vdW  Elec       q    Type
REMARK                         _______ _______ _______ _____ _____    ______ ____
ROOT
ATOM      1  C   UNL     1       3.353  16.752  18.534  0.00  0.00    +0.000 C 
ATOM      2  C   UNL     1       2.908  15.978  19.737  0.00  0.00    +0.000 A 
ATOM      3  C   UNL     1       3.594  16.055  20.949  0.00  0.00    +0.000 A 
ATOM      4  C   UNL     1       3.158  15.265  22.001  0.00  0.00    +0.000 A 
ATOM      5  N   UNL     1       2.117  14.411  21.922  0.00  0.00    +0.000 NA
ATOM      6  C   UNL     1       1.470  14.334  20.738  0.00  0.00    +0.000 A 
ATOM      7  N   UNL     1       0.457  13.359  20.648  0.00  0.00    +0.000 N 
ATOM      8  C   UNL     1       0.593  12.360  19.679  0.00  0.00    +0.000 C 
ATOM      9  O   UNL     1       1.317  12.422  18.688  0.00  0.00    +0.000 OA
ATOM     10  C   UNL     1      -0.090  11.053  20.091  0.00  0.00    +0.000 C 
ATOM     11  C   UNL     1      -0.009  10.027  18.947  0.00  0.00    +0.000 C 
ATOM     12  C   UNL     1      -1.573  11.355  20.380  0.00  0.00    +0.000 C 
ATOM     13  C   UNL     1      -1.758  12.476  21.415  0.00  0.00    +0.000 C 
ATOM     14  C   UNL     1      -0.922  13.742  21.027  0.00  0.00    +0.000 C 
ATOM     15  C   UNL     1       1.827  15.104  19.634  0.00  0.00    +0.000 A 
ENDROOT
BRANCH  13  16
ATOM     16  C   UNL     1      -3.245  12.730  21.640  0.00  0.00    +0.000 A 
ATOM     17  C   UNL     1      -3.849  12.657  22.905  0.00  0.00    +0.000 A 
ATOM     18  C   UNL     1      -5.227  12.840  23.049  0.00  0.00    +0.000 A 
ATOM     19  C   UNL     1      -6.016  13.119  21.935  0.00  0.00    +0.000 A 
ATOM     20  C   UNL     1      -5.423  13.225  20.681  0.00  0.00    +0.000 A 
ATOM     21 CL   UNL     1      -6.394  13.575  19.304  0.00  0.00    +0.000 Cl
ATOM     22  C   UNL     1      -4.050  13.039  20.530  0.00  0.00    +0.000 A 
ENDBRANCH  13  16
BRANCH  14  23
ATOM     23  C   UNL     1      -1.026  14.870  22.063  0.00  0.00    +0.000 A 
ATOM     24  C   UNL     1      -1.264  16.206  21.699  0.00  0.00    +0.000 A 
ATOM     25  C   UNL     1      -1.369  17.208  22.665  0.00  0.00    +0.000 A 
ATOM     26  C   UNL     1      -1.271  16.884  24.013  0.00  0.00    +0.000 A 
ATOM     27 CL   UNL     1      -1.459  18.113  25.203  0.00  0.00    +0.000 Cl
ATOM     28  C   UNL     1      -1.036  15.569  24.403  0.00  0.00    +0.000 A 
ATOM     29  C   UNL     1      -0.901  14.570  23.435  0.00  0.00    +0.000 A 
ENDBRANCH  14  23
BRANCH  10  30
ATOM     30  C   UNL     1       0.728  10.545  21.307  0.00  0.00    +0.000 C 
BRANCH  30  31
ATOM     31  C   UNL     1      -0.051   9.671  22.252  0.00  0.00    +0.000 C 
ATOM     32  O   UNL     1      -0.550   8.606  21.925  0.00  0.00    +0.000 OA
BRANCH  31  33
ATOM     33  O   UNL     1      -0.128  10.162  23.507  0.00  0.00    +0.000 OA
ATOM     34  H   UNL     1       0.571  10.803  23.737  0.00  0.00    +0.000 HD
ENDBRANCH  31  33
ENDBRANCH  30  31
ENDBRANCH  10  30
TORSDOF 5
ENDMDL
MODEL 8
REMARK VINA RESULT:      -6.4      3.531      6.497
REMARK  Name = 
REMARK  7 active torsions:
REMARK  status: ('A' for Active; 'I' for Inactive)
REMARK    1  A    between atoms: C_1  and  C_2
REMARK    2  A    between atoms: C_10  and  C_11
REMARK    3  A    between atoms: C_10  and  C_12
REMARK    4  A    between atoms: C_12  and  C_13
REMARK    5  A    between atoms: C_13  and  O_15
REMARK    6  A    between atoms: C_17  and  C_18
REMARK    7  A    between atoms: C_25  and  C_26
REMARK                            x       y       z     vdW  Elec       q    Type
REMARK                         _______ _______ _______ _____ _____    ______ ____
ROOT
ATOM      1  C   UNL     1       0.552  18.069  17.059  0.00  0.00    +0.000 C 
ATOM      2  C   UNL     1       0.800  17.244  18.286  0.00  0.00    +0.000 A 
ATOM      3  C   UNL     1       1.910  17.464  19.101  0.00  0.00    +0.000 A 
ATOM      4  C   UNL     1       2.104  16.625  20.186  0.00  0.00    +0.000 A 
ATOM      5  N   UNL     1       1.292  15.593  20.496  0.00  0.00    +0.000 NA
ATOM      6  C   UNL     1       0.228  15.381  19.690  0.00  0.00    +0.000 A 
ATOM      7  N   UNL     1      -0.544  14.237  19.971  0.00  0.00    +0.000 N 
ATOM      8  C   UNL     1      -0.661  13.265  18.973  0.00  0.00    +0.000 C 
ATOM      9  O   UNL     1      -0.448  13.442  17.776  0.00  0.00    +0.000 OA
ATOM     10  C   UNL     1      -0.869  11.861  19.550  0.00  0.00    +0.000 C 
ATOM     11  C   UNL     1      -1.106  10.849  18.414  0.00  0.00    +0.000 C 
ATOM     12  C   UNL     1      -2.117  11.891  20.452  0.00  0.00    +0.000 C 
ATOM     13  C   UNL     1      -2.037  12.975  21.539  0.00  0.00    +0.000 C 
ATOM     14  C   UNL     1      -1.675  14.366  20.917  0.00  0.00    +0.000 C 
ATOM     15  C   UNL     1      -0.055  16.187  18.590  0.00  0.00    +0.000 A 
ENDROOT
BRANCH  13  16
ATOM     16  C   UNL     1      -3.307  12.956  22.382  0.00  0.00    +0.000 A 
ATOM     17  C   UNL     1      -3.301  12.724  23.767  0.00  0.00    +0.000 A 
ATOM     18  C   UNL     1      -4.498  12.658  24.484  0.00  0.00    +0.000 A 
ATOM     19  C   UNL     1      -5.716  12.844  23.832  0.00  0.00    +0.000 A 
ATOM     20  C   UNL     1      -5.732  13.106  22.466  0.00  0.00    +0.000 A 
ATOM     21 CL   UNL     1      -7.233  13.342  21.659  0.00  0.00    +0.000 Cl
ATOM     22  C   UNL     1      -4.541  13.169  21.744  0.00  0.00    +0.000 A 
ENDBRANCH  13  16
BRANCH  14  23
ATOM     23  C   UNL     1      -1.522  15.472  21.972  0.00  0.00    +0.000 A 
ATOM     24  C   UNL     1      -2.203  16.698  21.879  0.00  0.00    +0.000 A 
ATOM     25  C   UNL     1      -2.056  17.679  22.862  0.00  0.00    +0.000 A 
ATOM     26  C   UNL     1      -1.252  17.436  23.969  0.00  0.00    +0.000 A 
ATOM     27 CL   UNL     1      -1.120  18.624  25.206  0.00  0.00    +0.000 Cl
ATOM     28  C   UNL     1      -0.567  16.231  24.087  0.00  0.00    +0.000 A 
ATOM     29  C   UNL     1      -0.690  15.259  23.089  0.00  0.00    +0.000 A 
ENDBRANCH  14  23
BRANCH  10  30
ATOM     30  C   UNL     1       0.461  11.529  20.275  0.00  0.00    +0.000 C 
BRANCH  30  31
ATOM     31  C   UNL     1       0.339  10.462  21.328  0.00  0.00    +0.000 C 
ATOM     32  O   UNL     1       0.389  10.691  22.526  0.00  0.00    +0.000 OA
BRANCH  31  33
ATOM     33  O   UNL     1       0.143   9.224  20.827  0.00  0.00    +0.000 OA
ATOM     34  H   UNL     1       0.940   8.661  20.810  0.00  0.00    +0.000 HD
ENDBRANCH  31  33
ENDBRANCH  30  31
ENDBRANCH  10  30
TORSDOF 5
ENDMDL
MODEL 9
REMARK VINA RESULT:      -6.4      3.403      6.216
REMARK  Name = 
REMARK  7 active torsions:
REMARK  status: ('A' for Active; 'I' for Inactive)
REMARK    1  A    between atoms: C_1  and  C_2
REMARK    2  A    between atoms: C_10  and  C_11
REMARK    3  A    between atoms: C_10  and  C_12
REMARK    4  A    between atoms: C_12  and  C_13
REMARK    5  A    between atoms: C_13  and  O_15
REMARK    6  A    between atoms: C_17  and  C_18
REMARK    7  A    between atoms: C_25  and  C_26
REMARK                            x       y       z     vdW  Elec       q    Type
REMARK                         _______ _______ _______ _____ _____    ______ ____
ROOT
ATOM      1  C   UNL     1       3.670  16.533  18.100  0.00  0.00    +0.000 C 
ATOM      2  C   UNL     1       3.204  15.819  19.332  0.00  0.00    +0.000 A 
ATOM      3  C   UNL     1       3.877  15.945  20.548  0.00  0.00    +0.000 A 
ATOM      4  C   UNL     1       3.421  15.210  21.630  0.00  0.00    +0.000 A 
ATOM      5  N   UNL     1       2.374  14.362  21.579  0.00  0.00    +0.000 NA
ATOM      6  C   UNL     1       1.739  14.236  20.392  0.00  0.00    +0.000 A 
ATOM      7  N   UNL     1       0.717  13.268  20.335  0.00  0.00    +0.000 N 
ATOM      8  C   UNL     1       0.855  12.224  19.415  0.00  0.00    +0.000 C 
ATOM      9  O   UNL     1       1.590  12.233  18.431  0.00  0.00    +0.000 OA
ATOM     10  C   UNL     1       0.154  10.943  19.880  0.00  0.00    +0.000 C 
ATOM     11  C   UNL     1       0.238   9.865  18.785  0.00  0.00    +0.000 C 
ATOM     12  C   UNL     1      -1.328  11.272  20.137  0.00  0.00    +0.000 C 
ATOM     13  C   UNL     1      -1.515  12.442  21.117  0.00  0.00    +0.000 C 
ATOM     14  C   UNL     1      -0.662  13.680  20.680  0.00  0.00    +0.000 C 
ATOM     15  C   UNL     1       2.116  14.951  19.258  0.00  0.00    +0.000 A 
ENDROOT
BRANCH  13  16
ATOM     16  C   UNL     1      -3.002  12.719  21.312  0.00  0.00    +0.000 A 
ATOM     17  C   UNL     1      -3.838  13.162  20.275  0.00  0.00    +0.000 A 
ATOM     18  C   UNL     1      -5.181  13.459  20.519  0.00  0.00    +0.000 A 
ATOM     19  C   UNL     1      -5.713  13.296  21.798  0.00  0.00    +0.000 A 
ATOM     20  C   UNL     1      -4.900  12.828  22.826  0.00  0.00    +0.000 A 
ATOM     21 CL   UNL     1      -5.554  12.621  24.404  0.00  0.00    +0.000 Cl
ATOM     22  C   UNL     1      -3.558  12.534  22.589  0.00  0.00    +0.000 A 
ENDBRANCH  13  16
BRANCH  14  23
ATOM     23  C   UNL     1      -0.766  14.856  21.662  0.00  0.00    +0.000 A 
ATOM     24  C   UNL     1      -0.605  14.693  23.049  0.00  0.00    +0.000 A 
ATOM     25  C   UNL     1      -0.690  15.783  23.917  0.00  0.00    +0.000 A 
ATOM     26  C   UNL     1      -0.904  17.059  23.408  0.00  0.00    +0.000 A 
ATOM     27 CL   UNL     1      -0.949  18.407  24.475  0.00  0.00    +0.000 Cl
ATOM     28  C   UNL     1      -1.066  17.250  22.040  0.00  0.00    +0.000 A 
ATOM     29  C   UNL     1      -1.011  16.155  21.172  0.00  0.00    +0.000 A 
ENDBRANCH  14  23
BRANCH  10  30
ATOM     30  C   UNL     1       0.954  10.485  21.127  0.00  0.00    +0.000 C 
BRANCH  30  31
ATOM     31  C   UNL     1       0.656   9.077  21.566  0.00  0.00    +0.000 C 
ATOM     32  O   UNL     1      -0.442   8.713  21.955  0.00  0.00    +0.000 OA
BRANCH  31  33
ATOM     33  O   UNL     1       1.712   8.243  21.467  0.00  0.00    +0.000 OA
ATOM     34  H   UNL     1       1.532   7.324  21.743  0.00  0.00    +0.000 HD
ENDBRANCH  31  33
ENDBRANCH  30  31
ENDBRANCH  10  30
TORSDOF 5
ENDMDL
