MODEL 1
REMARK VINA RESULT:      -8.1      0.000      0.000
REMARK  Name = 
REMARK  1 active torsions:
REMARK  status: ('A' for Active; 'I' for Inactive)
REMARK    1  A    between atoms: C_4  and  C_5
REMARK                            x       y       z     vdW  Elec       q    Type
REMARK                         _______ _______ _______ _____ _____    ______ ____
ROOT
ATOM      1  O   UNL     1       6.366   4.760  19.262  0.00  0.00    +0.000 OA
ATOM      2  C   UNL     1       5.472   4.587  18.458  0.00  0.00    +0.000 C 
ATOM      3  C   UNL     1       5.598   4.538  16.969  0.00  0.00    +0.000 C 
ATOM      4  C   UNL     1       6.781   4.606  16.338  0.00  0.00    +0.000 C 
ATOM      5  C   UNL     1       4.222   4.339  16.382  0.00  0.00    +0.000 C 
ATOM      6  C   UNL     1       3.342   4.200  17.584  0.00  0.00    +0.000 A 
ATOM      7  C   UNL     1       1.981   3.944  17.609  0.00  0.00    +0.000 A 
ATOM      8  C   UNL     1       1.345   3.868  18.850  0.00  0.00    +0.000 A 
ATOM      9  C   UNL     1       2.068   4.053  20.041  0.00  0.00    +0.000 A 
ATOM     10  C   UNL     1       3.443   4.306  20.011  0.00  0.00    +0.000 A 
ATOM     11  C   UNL     1       4.054   4.367  18.772  0.00  0.00    +0.000 A 
ENDROOT
BRANCH   4  12
ATOM     12  C   UNL     1       6.919   4.567  14.878  0.00  0.00    +0.000 A 
ATOM     13  C   UNL     1       6.175   3.675  14.114  0.00  0.00    +0.000 A 
ATOM     14  C   UNL     1       6.344   3.679  12.729  0.00  0.00    +0.000 A 
ATOM     15  C   UNL     1       7.256   4.556  12.152  0.00  0.00    +0.000 A 
ATOM     16  C   UNL     1       7.960   5.404  12.987  0.00  0.00    +0.000 A 
ATOM     17  N   UNL     1       7.806   5.429  14.327  0.00  0.00    +0.000 NA
ENDBRANCH   4  12
TORSDOF 1
ENDMDL
MODEL 2
REMARK VINA RESULT:      -7.9      1.941      6.156
REMARK  Name = 
REMARK  1 active torsions:
REMARK  status: ('A' for Active; 'I' for Inactive)
REMARK    1  A    between atoms: C_4  and  C_5
REMARK                            x       y       z     vdW  Elec       q    Type
REMARK                         _______ _______ _______ _____ _____    ______ ____
ROOT
ATOM      1  O   UNL     1       7.563   6.340  16.351  0.00  0.00    +0.000 OA
ATOM      2  C   UNL     1       6.809   5.512  15.880  0.00  0.00    +0.000 C 
ATOM      3  C   UNL     1       5.649   4.861  16.562  0.00  0.00    +0.000 C 
ATOM      4  C   UNL     1       5.254   5.195  17.800  0.00  0.00    +0.000 C 
ATOM      5  C   UNL     1       5.027   3.876  15.602  0.00  0.00    +0.000 C 
ATOM      6  C   UNL     1       5.821   4.055  14.347  0.00  0.00    +0.000 A 
ATOM      7  C   UNL     1       5.628   3.426  13.129  0.00  0.00    +0.000 A 
ATOM      8  C   UNL     1       6.501   3.729  12.082  0.00  0.00    +0.000 A 
ATOM      9  C   UNL     1       7.551   4.646  12.264  0.00  0.00    +0.000 A 
ATOM     10  C   UNL     1       7.739   5.282  13.495  0.00  0.00    +0.000 A 
ATOM     11  C   UNL     1       6.857   4.974  14.514  0.00  0.00    +0.000 A 
ENDROOT
BRANCH   4  12
ATOM     12  C   UNL     1       4.122   4.559  18.484  0.00  0.00    +0.000 A 
ATOM     13  C   UNL     1       2.822   5.002  18.277  0.00  0.00    +0.000 A 
ATOM     14  C   UNL     1       1.782   4.362  18.952  0.00  0.00    +0.000 A 
ATOM     15  C   UNL     1       2.069   3.315  19.820  0.00  0.00    +0.000 A 
ATOM     16  C   UNL     1       3.392   2.943  19.973  0.00  0.00    +0.000 A 
ATOM     17  N   UNL     1       4.414   3.537  19.324  0.00  0.00    +0.000 NA
ENDBRANCH   4  12
TORSDOF 1
ENDMDL
MODEL 3
REMARK VINA RESULT:      -7.8      1.737      1.820
REMARK  Name = 
REMARK  1 active torsions:
REMARK  status: ('A' for Active; 'I' for Inactive)
REMARK    1  A    between atoms: C_4  and  C_5
REMARK                            x       y       z     vdW  Elec       q    Type
REMARK                         _______ _______ _______ _____ _____    ______ ____
ROOT
ATOM      1  O   UNL     1       5.487   3.745  18.859  0.00  0.00    +0.000 OA
ATOM      2  C   UNL     1       5.094   4.649  18.150  0.00  0.00    +0.000 C 
ATOM      3  C   UNL     1       5.492   4.919  16.734  0.00  0.00    +0.000 C 
ATOM      4  C   UNL     1       6.306   4.108  16.041  0.00  0.00    +0.000 C 
ATOM      5  C   UNL     1       4.778   6.165  16.270  0.00  0.00    +0.000 C 
ATOM      6  C   UNL     1       3.914   6.533  17.436  0.00  0.00    +0.000 A 
ATOM      7  C   UNL     1       3.008   7.576  17.519  0.00  0.00    +0.000 A 
ATOM      8  C   UNL     1       2.311   7.753  18.716  0.00  0.00    +0.000 A 
ATOM      9  C   UNL     1       2.530   6.895  19.809  0.00  0.00    +0.000 A 
ATOM     10  C   UNL     1       3.443   5.841  19.718  0.00  0.00    +0.000 A 
ATOM     11  C   UNL     1       4.115   5.679  18.520  0.00  0.00    +0.000 A 
ENDROOT
BRANCH   4  12
ATOM     12  C   UNL     1       6.711   4.365  14.655  0.00  0.00    +0.000 A 
ATOM     13  C   UNL     1       6.138   3.662  13.602  0.00  0.00    +0.000 A 
ATOM     14  C   UNL     1       6.558   3.945  12.302  0.00  0.00    +0.000 A 
ATOM     15  C   UNL     1       7.543   4.904  12.093  0.00  0.00    +0.000 A 
ATOM     16  C   UNL     1       8.064   5.551  13.198  0.00  0.00    +0.000 A 
ATOM     17  N   UNL     1       7.667   5.305  14.463  0.00  0.00    +0.000 NA
ENDBRANCH   4  12
TORSDOF 1
ENDMDL
MODEL 4
REMARK VINA RESULT:      -7.7      1.939      6.159
REMARK  Name = 
REMARK  1 active torsions:
REMARK  status: ('A' for Active; 'I' for Inactive)
REMARK    1  A    between atoms: C_4  and  C_5
REMARK                            x       y       z     vdW  Elec       q    Type
REMARK                         _______ _______ _______ _____ _____    ______ ____
ROOT
ATOM      1  O   UNL     1       7.462   6.311  16.361  0.00  0.00    +0.000 OA
ATOM      2  C   UNL     1       6.763   5.464  15.842  0.00  0.00    +0.000 C 
ATOM      3  C   UNL     1       5.618   4.735  16.467  0.00  0.00    +0.000 C 
ATOM      4  C   UNL     1       5.173   5.007  17.704  0.00  0.00    +0.000 C 
ATOM      5  C   UNL     1       5.072   3.755  15.458  0.00  0.00    +0.000 C 
ATOM      6  C   UNL     1       5.890   4.015  14.233  0.00  0.00    +0.000 A 
ATOM      7  C   UNL     1       5.762   3.418  12.991  0.00  0.00    +0.000 A 
ATOM      8  C   UNL     1       6.648   3.799  11.979  0.00  0.00    +0.000 A 
ATOM      9  C   UNL     1       7.646   4.759  12.223  0.00  0.00    +0.000 A 
ATOM     10  C   UNL     1       7.769   5.361  13.478  0.00  0.00    +0.000 A 
ATOM     11  C   UNL     1       6.875   4.976  14.461  0.00  0.00    +0.000 A 
ENDROOT
BRANCH   4  12
ATOM     12  C   UNL     1       4.055   4.294  18.333  0.00  0.00    +0.000 A 
ATOM     13  C   UNL     1       4.283   3.226  19.193  0.00  0.00    +0.000 A 
ATOM     14  C   UNL     1       3.185   2.583  19.766  0.00  0.00    +0.000 A 
ATOM     15  C   UNL     1       1.900   3.013  19.455  0.00  0.00    +0.000 A 
ATOM     16  C   UNL     1       1.763   4.079  18.585  0.00  0.00    +0.000 A 
ATOM     17  N   UNL     1       2.808   4.725  18.027  0.00  0.00    +0.000 NA
ENDBRANCH   4  12
TORSDOF 1
ENDMDL
MODEL 5
REMARK VINA RESULT:      -7.4      2.226      6.260
REMARK  Name = 
REMARK  1 active torsions:
REMARK  status: ('A' for Active; 'I' for Inactive)
REMARK    1  A    between atoms: C_4  and  C_5
REMARK                            x       y       z     vdW  Elec       q    Type
REMARK                         _______ _______ _______ _____ _____    ______ ____
ROOT
ATOM      1  O   UNL     1       7.299   5.864  18.084  0.00  0.00    +0.000 OA
ATOM      2  C   UNL     1       6.454   5.242  17.472  0.00  0.00    +0.000 C 
ATOM      3  C   UNL     1       5.165   4.708  18.010  0.00  0.00    +0.000 C 
ATOM      4  C   UNL     1       4.752   4.935  19.266  0.00  0.00    +0.000 C 
ATOM      5  C   UNL     1       4.455   3.976  16.897  0.00  0.00    +0.000 C 
ATOM      6  C   UNL     1       5.343   4.185  15.712  0.00  0.00    +0.000 A 
ATOM      7  C   UNL     1       5.128   3.764  14.411  0.00  0.00    +0.000 A 
ATOM      8  C   UNL     1       6.101   4.054  13.451  0.00  0.00    +0.000 A 
ATOM      9  C   UNL     1       7.270   4.752  13.802  0.00  0.00    +0.000 A 
ATOM     10  C   UNL     1       7.480   5.180  15.117  0.00  0.00    +0.000 A 
ATOM     11  C   UNL     1       6.499   4.889  16.047  0.00  0.00    +0.000 A 
ENDROOT
BRANCH   4  12
ATOM     12  C   UNL     1       3.494   4.411  19.809  0.00  0.00    +0.000 A 
ATOM     13  C   UNL     1       2.402   5.246  20.016  0.00  0.00    +0.000 A 
ATOM     14  C   UNL     1       1.229   4.696  20.534  0.00  0.00    +0.000 A 
ATOM     15  C   UNL     1       1.185   3.341  20.842  0.00  0.00    +0.000 A 
ATOM     16  C   UNL     1       2.319   2.584  20.612  0.00  0.00    +0.000 A 
ATOM     17  N   UNL     1       3.461   3.089  20.101  0.00  0.00    +0.000 NA
ENDBRANCH   4  12
TORSDOF 1
ENDMDL
MODEL 6
REMARK VINA RESULT:      -7.3      1.663      1.980
REMARK  Name = 
REMARK  1 active torsions:
REMARK  status: ('A' for Active; 'I' for Inactive)
REMARK    1  A    between atoms: C_4  and  C_5
REMARK                            x       y       z     vdW  Elec       q    Type
REMARK                         _______ _______ _______ _____ _____    ______ ____
ROOT
ATOM      1  O   UNL     1       3.036   7.049  18.728  0.00  0.00    +0.000 OA
ATOM      2  C   UNL     1       3.114   5.866  18.461  0.00  0.00    +0.000 C 
ATOM      3  C   UNL     1       3.912   5.243  17.361  0.00  0.00    +0.000 C 
ATOM      4  C   UNL     1       4.723   5.952  16.561  0.00  0.00    +0.000 C 
ATOM      5  C   UNL     1       3.677   3.752  17.390  0.00  0.00    +0.000 C 
ATOM      6  C   UNL     1       2.794   3.556  18.582  0.00  0.00    +0.000 A 
ATOM      7  C   UNL     1       2.321   2.361  19.094  0.00  0.00    +0.000 A 
ATOM      8  C   UNL     1       1.489   2.404  20.216  0.00  0.00    +0.000 A 
ATOM      9  C   UNL     1       1.139   3.633  20.803  0.00  0.00    +0.000 A 
ATOM     10  C   UNL     1       1.623   4.837  20.284  0.00  0.00    +0.000 A 
ATOM     11  C   UNL     1       2.452   4.769  19.180  0.00  0.00    +0.000 A 
ENDROOT
BRANCH   4  12
ATOM     12  C   UNL     1       5.505   5.356  15.472  0.00  0.00    +0.000 A 
ATOM     13  C   UNL     1       4.923   4.462  14.582  0.00  0.00    +0.000 A 
ATOM     14  C   UNL     1       5.711   3.924  13.564  0.00  0.00    +0.000 A 
ATOM     15  C   UNL     1       7.052   4.280  13.473  0.00  0.00    +0.000 A 
ATOM     16  C   UNL     1       7.552   5.170  14.405  0.00  0.00    +0.000 A 
ATOM     17  N   UNL     1       6.809   5.714  15.392  0.00  0.00    +0.000 NA
ENDBRANCH   4  12
TORSDOF 1
ENDMDL
MODEL 7
REMARK VINA RESULT:      -7.3      2.863      3.776
REMARK  Name = 
REMARK  1 active torsions:
REMARK  status: ('A' for Active; 'I' for Inactive)
REMARK    1  A    between atoms: C_4  and  C_5
REMARK                            x       y       z     vdW  Elec       q    Type
REMARK                         _______ _______ _______ _____ _____    ______ ____
ROOT
ATOM      1  O   UNL     1       4.204   2.314  17.085  0.00  0.00    +0.000 OA
ATOM      2  C   UNL     1       3.961   3.198  17.882  0.00  0.00    +0.000 C 
ATOM      3  C   UNL     1       4.790   4.411  18.160  0.00  0.00    +0.000 C 
ATOM      4  C   UNL     1       5.902   4.704  17.469  0.00  0.00    +0.000 C 
ATOM      5  C   UNL     1       4.115   5.207  19.250  0.00  0.00    +0.000 C 
ATOM      6  C   UNL     1       2.853   4.447  19.514  0.00  0.00    +0.000 A 
ATOM      7  C   UNL     1       1.837   4.778  20.394  0.00  0.00    +0.000 A 
ATOM      8  C   UNL     1       0.745   3.913  20.499  0.00  0.00    +0.000 A 
ATOM      9  C   UNL     1       0.685   2.736  19.733  0.00  0.00    +0.000 A 
ATOM     10  C   UNL     1       1.712   2.409  18.843  0.00  0.00    +0.000 A 
ATOM     11  C   UNL     1       2.778   3.283  18.749  0.00  0.00    +0.000 A 
ENDROOT
BRANCH   4  12
ATOM     12  C   UNL     1       6.729   5.886  17.736  0.00  0.00    +0.000 A 
ATOM     13  C   UNL     1       7.661   5.889  18.767  0.00  0.00    +0.000 A 
ATOM     14  C   UNL     1       8.422   7.039  18.978  0.00  0.00    +0.000 A 
ATOM     15  C   UNL     1       8.223   8.151  18.168  0.00  0.00    +0.000 A 
ATOM     16  C   UNL     1       7.270   8.065  17.169  0.00  0.00    +0.000 A 
ATOM     17  N   UNL     1       6.530   6.962  16.937  0.00  0.00    +0.000 NA
ENDBRANCH   4  12
TORSDOF 1
ENDMDL
MODEL 8
REMARK VINA RESULT:      -7.3      2.246      6.215
REMARK  Name = 
REMARK  1 active torsions:
REMARK  status: ('A' for Active; 'I' for Inactive)
REMARK    1  A    between atoms: C_4  and  C_5
REMARK                            x       y       z     vdW  Elec       q    Type
REMARK                         _______ _______ _______ _____ _____    ______ ____
ROOT
ATOM      1  O   UNL     1       7.386   5.683  18.167  0.00  0.00    +0.000 OA
ATOM      2  C   UNL     1       6.518   5.121  17.530  0.00  0.00    +0.000 C 
ATOM      3  C   UNL     1       5.211   4.610  18.047  0.00  0.00    +0.000 C 
ATOM      4  C   UNL     1       4.809   4.796  19.314  0.00  0.00    +0.000 C 
ATOM      5  C   UNL     1       4.473   3.954  16.906  0.00  0.00    +0.000 C 
ATOM      6  C   UNL     1       5.367   4.184  15.728  0.00  0.00    +0.000 A 
ATOM      7  C   UNL     1       5.135   3.829  14.410  0.00  0.00    +0.000 A 
ATOM      8  C   UNL     1       6.116   4.126  13.462  0.00  0.00    +0.000 A 
ATOM      9  C   UNL     1       7.311   4.765  13.840  0.00  0.00    +0.000 A 
ATOM     10  C   UNL     1       7.538   5.125  15.171  0.00  0.00    +0.000 A 
ATOM     11  C   UNL     1       6.549   4.830  16.091  0.00  0.00    +0.000 A 
ENDROOT
BRANCH   4  12
ATOM     12  C   UNL     1       3.533   4.294  19.837  0.00  0.00    +0.000 A 
ATOM     13  C   UNL     1       3.374   2.952  20.163  0.00  0.00    +0.000 A 
ATOM     14  C   UNL     1       2.141   2.527  20.658  0.00  0.00    +0.000 A 
ATOM     15  C   UNL     1       1.105   3.443  20.797  0.00  0.00    +0.000 A 
ATOM     16  C   UNL     1       1.347   4.757  20.441  0.00  0.00    +0.000 A 
ATOM     17  N   UNL     1       2.533   5.197  19.972  0.00  0.00    +0.000 NA
ENDBRANCH   4  12
TORSDOF 1
ENDMDL
MODEL 9
REMARK VINA RESULT:      -7.2      3.631      4.291
REMARK  Name = 
REMARK  1 active torsions:
REMARK  status: ('A' for Active; 'I' for Inactive)
REMARK    1  A    between atoms: C_4  and  C_5
REMARK                            x       y       z     vdW  Elec       q    Type
REMARK                         _______ _______ _______ _____ _____    ______ ____
ROOT
ATOM      1  O   UNL     1       2.141   5.828  20.783  0.00  0.00    +0.000 OA
ATOM      2  C   UNL     1       2.420   6.535  19.835  0.00  0.00    +0.000 C 
ATOM      3  C   UNL     1       3.396   6.230  18.743  0.00  0.00    +0.000 C 
ATOM      4  C   UNL     1       4.039   5.057  18.651  0.00  0.00    +0.000 C 
ATOM      5  C   UNL     1       3.440   7.411  17.805  0.00  0.00    +0.000 C 
ATOM      6  C   UNL     1       2.409   8.343  18.358  0.00  0.00    +0.000 A 
ATOM      7  C   UNL     1       2.007   9.562  17.839  0.00  0.00    +0.000 A 
ATOM      8  C   UNL     1       1.031  10.285  18.528  0.00  0.00    +0.000 A 
ATOM      9  C   UNL     1       0.476   9.788  19.721  0.00  0.00    +0.000 A 
ATOM     10  C   UNL     1       0.882   8.554  20.238  0.00  0.00    +0.000 A 
ATOM     11  C   UNL     1       1.843   7.851  19.535  0.00  0.00    +0.000 A 
ENDROOT
BRANCH   4  12
ATOM     12  C   UNL     1       5.005   4.747  17.590  0.00  0.00    +0.000 A 
ATOM     13  C   UNL     1       4.579   4.295  16.347  0.00  0.00    +0.000 A 
ATOM     14  C   UNL     1       5.538   4.016  15.373  0.00  0.00    +0.000 A 
ATOM     15  C   UNL     1       6.886   4.181  15.671  0.00  0.00    +0.000 A 
ATOM     16  C   UNL     1       7.222   4.628  16.935  0.00  0.00    +0.000 A 
ATOM     17  N   UNL     1       6.314   4.916  17.891  0.00  0.00    +0.000 NA
ENDBRANCH   4  12
TORSDOF 1
ENDMDL
