MODEL 1
REMARK VINA RESULT:      -8.8      0.000      0.000
REMARK  Name = 
REMARK  6 active torsions:
REMARK  status: ('A' for Active; 'I' for Inactive)
REMARK    1  A    between atoms: C_2  and  C_3
REMARK    2  A    between atoms: C_2  and  C_14
REMARK    3  A    between atoms: C_9  and  C_10
REMARK    4  A    between atoms: C_16  and  N_17
REMARK    5  A    between atoms: C_20  and  C_21
REMARK    6  A    between atoms: C_21  and  O_23
REMARK                            x       y       z     vdW  Elec       q    Type
REMARK                         _______ _______ _______ _____ _____    ______ ____
ROOT
ATOM      1  C   UNL     1       4.154   5.345  18.890  0.00  0.00    +0.000 A 
ATOM      2  N   UNL     1       3.751   6.606  18.799  0.00  0.00    +0.000 NA
ATOM      3  C   UNL     1       2.525   6.654  19.411  0.00  0.00    +0.000 A 
ATOM      4  C   UNL     1       2.140   5.404  19.846  0.00  0.00    +0.000 A 
ATOM      5  C   UNL     1       1.087   4.850  20.629  0.00  0.00    +0.000 A 
ATOM      6  C   UNL     1       1.112   3.549  20.963  0.00  0.00    +0.000 A 
ATOM      7  C   UNL     1       2.192   2.678  20.531  0.00  0.00    +0.000 A 
ATOM      8  C   UNL     1       3.188   3.194  19.804  0.00  0.00    +0.000 A 
ATOM      9  N   UNL     1       3.177   4.553  19.469  0.00  0.00    +0.000 N 
ENDROOT
BRANCH   3  10
ATOM     10  N   UNL     1       1.906   7.824  19.695  0.00  0.00    +0.000 N 
ATOM     11  C   UNL     1       1.602   8.193  21.073  0.00  0.00    +0.000 C 
ATOM     12  C   UNL     1       0.169   8.744  21.109  0.00  0.00    +0.000 C 
ATOM     13  C   UNL     1      -0.047   9.887  20.108  0.00  0.00    +0.000 C 
ATOM     14  C   UNL     1       0.463   9.504  18.708  0.00  0.00    +0.000 C 
ATOM     15  C   UNL     1       1.882   8.933  18.746  0.00  0.00    +0.000 C 
BRANCH  13  16
ATOM     16  C   UNL     1       0.592  11.179  20.592  0.00  0.00    +0.000 C 
ATOM     17  O   UNL     1       1.107  12.018  19.872  0.00  0.00    +0.000 OA
BRANCH  16  18
ATOM     18  O   UNL     1       0.509  11.344  21.932  0.00  0.00    +0.000 OA
ATOM     19  H   UNL     1       0.117  12.191  22.213  0.00  0.00    +0.000 HD
ENDBRANCH  16  18
ENDBRANCH  13  16
ENDBRANCH   3  10
BRANCH   1  21
ATOM     20  O   UNL     1       6.344   4.667  19.512  0.00  0.00    +0.000 OA
ATOM     21  C   UNL     1       5.517   4.901  18.633  0.00  0.00    +0.000 C 
BRANCH  21  22
ATOM     22  C   UNL     1       6.022   4.843  17.235  0.00  0.00    +0.000 A 
ATOM     23  C   UNL     1       5.544   3.846  16.352  0.00  0.00    +0.000 A 
ATOM     24 CL   UNL     1       4.258   2.741  16.718  0.00  0.00    +0.000 Cl
ATOM     25  C   UNL     1       5.993   3.787  15.026  0.00  0.00    +0.000 A 
ATOM     26  C   UNL     1       6.837   4.770  14.528  0.00  0.00    +0.000 A 
ATOM     27  C   UNL     1       7.246   5.805  15.361  0.00  0.00    +0.000 A 
ATOM     28  C   UNL     1       6.873   5.853  16.725  0.00  0.00    +0.000 A 
BRANCH  28  29
ATOM     29  C   UNL     1       7.422   7.033  17.501  0.00  0.00    +0.000 C 
ATOM     30  F   UNL     1       8.147   6.768  18.610  0.00  0.00    +0.000 F 
ATOM     31  F   UNL     1       8.259   7.774  16.712  0.00  0.00    +0.000 F 
ATOM     32  F   UNL     1       6.434   7.900  17.870  0.00  0.00    +0.000 F 
ENDBRANCH  28  29
ENDBRANCH  21  22
ENDBRANCH   1  21
TORSDOF 6
ENDMDL
MODEL 2
REMARK VINA RESULT:      -8.0      0.750      1.196
REMARK  Name = 
REMARK  6 active torsions:
REMARK  status: ('A' for Active; 'I' for Inactive)
REMARK    1  A    between atoms: C_2  and  C_3
REMARK    2  A    between atoms: C_2  and  C_14
REMARK    3  A    between atoms: C_9  and  C_10
REMARK    4  A    between atoms: C_16  and  N_17
REMARK    5  A    between atoms: C_20  and  C_21
REMARK    6  A    between atoms: C_21  and  O_23
REMARK                            x       y       z     vdW  Elec       q    Type
REMARK                         _______ _______ _______ _____ _____    ______ ____
ROOT
ATOM      1  C   UNL     1       4.193   5.428  19.019  0.00  0.00    +0.000 A 
ATOM      2  N   UNL     1       3.703   6.654  18.882  0.00  0.00    +0.000 NA
ATOM      3  C   UNL     1       2.468   6.635  19.477  0.00  0.00    +0.000 A 
ATOM      4  C   UNL     1       2.165   5.375  19.947  0.00  0.00    +0.000 A 
ATOM      5  C   UNL     1       1.142   4.773  20.734  0.00  0.00    +0.000 A 
ATOM      6  C   UNL     1       1.253   3.488  21.110  0.00  0.00    +0.000 A 
ATOM      7  C   UNL     1       2.398   2.682  20.720  0.00  0.00    +0.000 A 
ATOM      8  C   UNL     1       3.366   3.244  19.989  0.00  0.00    +0.000 A 
ATOM      9  N   UNL     1       3.265   4.588  19.610  0.00  0.00    +0.000 N 
ENDROOT
BRANCH   3  10
ATOM     10  N   UNL     1       1.765   7.767  19.715  0.00  0.00    +0.000 N 
ATOM     11  C   UNL     1       1.288   8.596  18.615  0.00  0.00    +0.000 C 
ATOM     12  C   UNL     1       1.575  10.062  18.967  0.00  0.00    +0.000 C 
ATOM     13  C   UNL     1       0.997  10.463  20.332  0.00  0.00    +0.000 C 
ATOM     14  C   UNL     1       1.383   9.448  21.421  0.00  0.00    +0.000 C 
ATOM     15  C   UNL     1       1.101   8.006  20.993  0.00  0.00    +0.000 C 
BRANCH  13  16
ATOM     16  C   UNL     1      -0.512  10.649  20.263  0.00  0.00    +0.000 C 
ATOM     17  O   UNL     1      -1.199  10.434  19.279  0.00  0.00    +0.000 OA
BRANCH  16  18
ATOM     18  O   UNL     1      -1.052  11.053  21.434  0.00  0.00    +0.000 OA
ATOM     19  H   UNL     1      -0.558  11.761  21.887  0.00  0.00    +0.000 HD
ENDBRANCH  16  18
ENDBRANCH  13  16
ENDBRANCH   3  10
BRANCH   1  21
ATOM     20  O   UNL     1       6.424   4.962  19.687  0.00  0.00    +0.000 OA
ATOM     21  C   UNL     1       5.587   5.074  18.793  0.00  0.00    +0.000 C 
BRANCH  21  22
ATOM     22  C   UNL     1       6.104   4.962  17.402  0.00  0.00    +0.000 A 
ATOM     23  C   UNL     1       5.650   3.918  16.563  0.00  0.00    +0.000 A 
ATOM     24 CL   UNL     1       4.380   2.807  16.969  0.00  0.00    +0.000 Cl
ATOM     25  C   UNL     1       6.110   3.808  15.243  0.00  0.00    +0.000 A 
ATOM     26  C   UNL     1       6.940   4.782  14.708  0.00  0.00    +0.000 A 
ATOM     27  C   UNL     1       7.325   5.860  15.496  0.00  0.00    +0.000 A 
ATOM     28  C   UNL     1       6.940   5.964  16.854  0.00  0.00    +0.000 A 
BRANCH  28  29
ATOM     29  C   UNL     1       7.463   7.186  17.580  0.00  0.00    +0.000 C 
ATOM     30  F   UNL     1       8.174   6.985  18.711  0.00  0.00    +0.000 F 
ATOM     31  F   UNL     1       8.301   7.899  16.768  0.00  0.00    +0.000 F 
ATOM     32  F   UNL     1       6.458   8.057  17.892  0.00  0.00    +0.000 F 
ENDBRANCH  28  29
ENDBRANCH  21  22
ENDBRANCH   1  21
TORSDOF 6
ENDMDL
MODEL 3
REMARK VINA RESULT:      -7.7      4.702      9.050
REMARK  Name = 
REMARK  6 active torsions:
REMARK  status: ('A' for Active; 'I' for Inactive)
REMARK    1  A    between atoms: C_2  and  C_3
REMARK    2  A    between atoms: C_2  and  C_14
REMARK    3  A    between atoms: C_9  and  C_10
REMARK    4  A    between atoms: C_16  and  N_17
REMARK    5  A    between atoms: C_20  and  C_21
REMARK    6  A    between atoms: C_21  and  O_23
REMARK                            x       y       z     vdW  Elec       q    Type
REMARK                         _______ _______ _______ _____ _____    ______ ____
ROOT
ATOM      1  C   UNL     1      -0.282  11.196  19.413  0.00  0.00    +0.000 A 
ATOM      2  N   UNL     1       0.566  10.387  18.791  0.00  0.00    +0.000 NA
ATOM      3  C   UNL     1       1.008   9.503  19.740  0.00  0.00    +0.000 A 
ATOM      4  C   UNL     1       0.467   9.792  20.975  0.00  0.00    +0.000 A 
ATOM      5  C   UNL     1       0.437   9.193  22.267  0.00  0.00    +0.000 A 
ATOM      6  C   UNL     1      -0.331   9.722  23.234  0.00  0.00    +0.000 A 
ATOM      7  C   UNL     1      -1.134  10.910  22.997  0.00  0.00    +0.000 A 
ATOM      8  C   UNL     1      -1.117  11.471  21.784  0.00  0.00    +0.000 A 
ATOM      9  N   UNL     1      -0.333  10.914  20.767  0.00  0.00    +0.000 N 
ENDROOT
BRANCH   3  10
ATOM     10  N   UNL     1       1.724   8.400  19.421  0.00  0.00    +0.000 N 
ATOM     11  C   UNL     1       2.451   8.320  18.159  0.00  0.00    +0.000 C 
ATOM     12  C   UNL     1       2.196   6.933  17.552  0.00  0.00    +0.000 C 
ATOM     13  C   UNL     1       2.533   5.794  18.526  0.00  0.00    +0.000 C 
ATOM     14  C   UNL     1       1.884   6.028  19.901  0.00  0.00    +0.000 C 
ATOM     15  C   UNL     1       2.150   7.438  20.433  0.00  0.00    +0.000 C 
BRANCH  13  16
ATOM     16  C   UNL     1       4.036   5.597  18.652  0.00  0.00    +0.000 C 
ATOM     17  O   UNL     1       4.608   5.196  19.652  0.00  0.00    +0.000 OA
BRANCH  16  18
ATOM     18  O   UNL     1       4.707   5.879  17.512  0.00  0.00    +0.000 OA
ATOM     19  H   UNL     1       4.740   5.148  16.869  0.00  0.00    +0.000 HD
ENDBRANCH  16  18
ENDBRANCH  13  16
ENDBRANCH   3  10
BRANCH   1  21
ATOM     20  O   UNL     1      -0.867  13.156  18.205  0.00  0.00    +0.000 OA
ATOM     21  C   UNL     1      -1.202  12.097  18.732  0.00  0.00    +0.000 C 
BRANCH  21  22
ATOM     22  C   UNL     1      -2.664  11.825  18.769  0.00  0.00    +0.000 A 
ATOM     23  C   UNL     1      -3.486  12.506  19.698  0.00  0.00    +0.000 A 
ATOM     24 CL   UNL     1      -2.949  13.792  20.730  0.00  0.00    +0.000 Cl
ATOM     25  C   UNL     1      -4.868  12.277  19.734  0.00  0.00    +0.000 A 
ATOM     26  C   UNL     1      -5.467  11.456  18.789  0.00  0.00    +0.000 A 
ATOM     27  C   UNL     1      -4.682  10.849  17.816  0.00  0.00    +0.000 A 
ATOM     28  C   UNL     1      -3.274  10.997  17.796  0.00  0.00    +0.000 A 
BRANCH  28  29
ATOM     29  C   UNL     1      -2.564  10.250  16.686  0.00  0.00    +0.000 C 
ATOM     30  F   UNL     1      -1.503   9.487  17.026  0.00  0.00    +0.000 F 
ATOM     31  F   UNL     1      -3.425   9.387  16.067  0.00  0.00    +0.000 F 
ATOM     32  F   UNL     1      -2.146  11.093  15.697  0.00  0.00    +0.000 F 
ENDBRANCH  28  29
ENDBRANCH  21  22
ENDBRANCH   1  21
TORSDOF 6
ENDMDL
MODEL 4
REMARK VINA RESULT:      -7.4      4.733      9.001
REMARK  Name = 
REMARK  6 active torsions:
REMARK  status: ('A' for Active; 'I' for Inactive)
REMARK    1  A    between atoms: C_2  and  C_3
REMARK    2  A    between atoms: C_2  and  C_14
REMARK    3  A    between atoms: C_9  and  C_10
REMARK    4  A    between atoms: C_16  and  N_17
REMARK    5  A    between atoms: C_20  and  C_21
REMARK    6  A    between atoms: C_21  and  O_23
REMARK                            x       y       z     vdW  Elec       q    Type
REMARK                         _______ _______ _______ _____ _____    ______ ____
ROOT
ATOM      1  C   UNL     1      -0.079  11.105  19.317  0.00  0.00    +0.000 A 
ATOM      2  N   UNL     1       0.671  10.280  18.597  0.00  0.00    +0.000 NA
ATOM      3  C   UNL     1       1.122   9.323  19.469  0.00  0.00    +0.000 A 
ATOM      4  C   UNL     1       0.688   9.580  20.753  0.00  0.00    +0.000 A 
ATOM      5  C   UNL     1       0.711   8.917  22.013  0.00  0.00    +0.000 A 
ATOM      6  C   UNL     1       0.047   9.440  23.058  0.00  0.00    +0.000 A 
ATOM      7  C   UNL     1      -0.694  10.685  22.937  0.00  0.00    +0.000 A 
ATOM      8  C   UNL     1      -0.726  11.306  21.754  0.00  0.00    +0.000 A 
ATOM      9  N   UNL     1      -0.052  10.756  20.656  0.00  0.00    +0.000 N 
ENDROOT
BRANCH   3  10
ATOM     10  N   UNL     1       1.743   8.197  19.046  0.00  0.00    +0.000 N 
ATOM     11  C   UNL     1       1.641   6.957  19.807  0.00  0.00    +0.000 C 
ATOM     12  C   UNL     1       3.041   6.332  19.883  0.00  0.00    +0.000 C 
ATOM     13  C   UNL     1       3.680   6.150  18.499  0.00  0.00    +0.000 C 
ATOM     14  C   UNL     1       3.594   7.444  17.672  0.00  0.00    +0.000 C 
ATOM     15  C   UNL     1       2.181   8.032  17.663  0.00  0.00    +0.000 C 
BRANCH  13  16
ATOM     16  C   UNL     1       3.064   4.977  17.751  0.00  0.00    +0.000 C 
ATOM     17  O   UNL     1       1.872   4.729  17.700  0.00  0.00    +0.000 OA
BRANCH  16  18
ATOM     18  O   UNL     1       3.977   4.225  17.096  0.00  0.00    +0.000 OA
ATOM     19  H   UNL     1       3.980   3.283  17.344  0.00  0.00    +0.000 HD
ENDBRANCH  16  18
ENDBRANCH  13  16
ENDBRANCH   3  10
BRANCH   1  21
ATOM     20  O   UNL     1      -0.622  13.159  18.254  0.00  0.00    +0.000 OA
ATOM     21  C   UNL     1      -0.985  12.093  18.749  0.00  0.00    +0.000 C 
BRANCH  21  22
ATOM     22  C   UNL     1      -2.455  11.904  18.874  0.00  0.00    +0.000 A 
ATOM     23  C   UNL     1      -3.175  12.604  19.871  0.00  0.00    +0.000 A 
ATOM     24 CL   UNL     1      -2.500  13.829  20.897  0.00  0.00    +0.000 Cl
ATOM     25  C   UNL     1      -4.563  12.454  19.990  0.00  0.00    +0.000 A 
ATOM     26  C   UNL     1      -5.268  11.695  19.067  0.00  0.00    +0.000 A 
ATOM     27  C   UNL     1      -4.583  11.071  18.031  0.00  0.00    +0.000 A 
ATOM     28  C   UNL     1      -3.173  11.140  17.924  0.00  0.00    +0.000 A 
BRANCH  28  29
ATOM     29  C   UNL     1      -2.580  10.385  16.752  0.00  0.00    +0.000 C 
ATOM     30  F   UNL     1      -1.599   9.493  17.015  0.00  0.00    +0.000 F 
ATOM     31  F   UNL     1      -3.547   9.655  16.116  0.00  0.00    +0.000 F 
ATOM     32  F   UNL     1      -2.099  11.233  15.795  0.00  0.00    +0.000 F 
ENDBRANCH  28  29
ENDBRANCH  21  22
ENDBRANCH   1  21
TORSDOF 6
ENDMDL
MODEL 5
REMARK VINA RESULT:      -6.8      6.088      9.039
REMARK  Name = 
REMARK  6 active torsions:
REMARK  status: ('A' for Active; 'I' for Inactive)
REMARK    1  A    between atoms: C_2  and  C_3
REMARK    2  A    between atoms: C_2  and  C_14
REMARK    3  A    between atoms: C_9  and  C_10
REMARK    4  A    between atoms: C_16  and  N_17
REMARK    5  A    between atoms: C_20  and  C_21
REMARK    6  A    between atoms: C_21  and  O_23
REMARK                            x       y       z     vdW  Elec       q    Type
REMARK                         _______ _______ _______ _____ _____    ______ ____
ROOT
ATOM      1  C   UNL     1      -1.725  12.178  19.376  0.00  0.00    +0.000 A 
ATOM      2  N   UNL     1      -2.521  12.583  20.359  0.00  0.00    +0.000 NA
ATOM      3  C   UNL     1      -3.801  12.365  19.921  0.00  0.00    +0.000 A 
ATOM      4  C   UNL     1      -3.806  11.863  18.636  0.00  0.00    +0.000 A 
ATOM      5  C   UNL     1      -4.767  11.336  17.726  0.00  0.00    +0.000 A 
ATOM      6  C   UNL     1      -4.363  10.804  16.560  0.00  0.00    +0.000 A 
ATOM      7  C   UNL     1      -2.958  10.761  16.193  0.00  0.00    +0.000 A 
ATOM      8  C   UNL     1      -2.051  11.245  17.048  0.00  0.00    +0.000 A 
ATOM      9  N   UNL     1      -2.463  11.784  18.273  0.00  0.00    +0.000 N 
ENDROOT
BRANCH   3  10
ATOM     10  N   UNL     1      -4.871  12.463  20.744  0.00  0.00    +0.000 N 
ATOM     11  C   UNL     1      -6.111  11.756  20.444  0.00  0.00    +0.000 C 
ATOM     12  C   UNL     1      -7.278  12.724  20.684  0.00  0.00    +0.000 C 
ATOM     13  C   UNL     1      -7.250  13.343  22.089  0.00  0.00    +0.000 C 
ATOM     14  C   UNL     1      -5.859  13.911  22.420  0.00  0.00    +0.000 C 
ATOM     15  C   UNL     1      -4.740  12.908  22.128  0.00  0.00    +0.000 C 
BRANCH  13  16
ATOM     16  C   UNL     1      -7.701  12.345  23.145  0.00  0.00    +0.000 C 
ATOM     17  O   UNL     1      -7.835  11.147  22.964  0.00  0.00    +0.000 OA
BRANCH  16  18
ATOM     18  O   UNL     1      -7.916  12.910  24.355  0.00  0.00    +0.000 OA
ATOM     19  H   UNL     1      -7.301  13.632  24.581  0.00  0.00    +0.000 HD
ENDBRANCH  16  18
ENDBRANCH  13  16
ENDBRANCH   3  10
BRANCH   1  21
ATOM     20  O   UNL     1       0.568  12.595  18.916  0.00  0.00    +0.000 OA
ATOM     21  C   UNL     1      -0.293  11.958  19.521  0.00  0.00    +0.000 C 
BRANCH  21  22
ATOM     22  C   UNL     1       0.199  10.817  20.338  0.00  0.00    +0.000 A 
ATOM     23  C   UNL     1      -0.044  10.789  21.732  0.00  0.00    +0.000 A 
ATOM     24 CL   UNL     1      -1.037  11.930  22.581  0.00  0.00    +0.000 Cl
ATOM     25  C   UNL     1       0.395   9.712  22.514  0.00  0.00    +0.000 A 
ATOM     26  C   UNL     1       0.984   8.607  21.918  0.00  0.00    +0.000 A 
ATOM     27  C   UNL     1       1.150   8.583  20.538  0.00  0.00    +0.000 A 
ATOM     28  C   UNL     1       0.788   9.684  19.726  0.00  0.00    +0.000 A 
BRANCH  28  29
ATOM     29  C   UNL     1       1.057   9.508  18.246  0.00  0.00    +0.000 C 
ATOM     30  F   UNL     1       1.555   8.320  17.838  0.00  0.00    +0.000 F 
ATOM     31  F   UNL     1      -0.098   9.661  17.530  0.00  0.00    +0.000 F 
ATOM     32  F   UNL     1       1.895  10.474  17.766  0.00  0.00    +0.000 F 
ENDBRANCH  28  29
ENDBRANCH  21  22
ENDBRANCH   1  21
TORSDOF 6
ENDMDL
MODEL 6
REMARK VINA RESULT:      -6.8      2.152      2.550
REMARK  Name = 
REMARK  6 active torsions:
REMARK  status: ('A' for Active; 'I' for Inactive)
REMARK    1  A    between atoms: C_2  and  C_3
REMARK    2  A    between atoms: C_2  and  C_14
REMARK    3  A    between atoms: C_9  and  C_10
REMARK    4  A    between atoms: C_16  and  N_17
REMARK    5  A    between atoms: C_20  and  C_21
REMARK    6  A    between atoms: C_21  and  O_23
REMARK                            x       y       z     vdW  Elec       q    Type
REMARK                         _______ _______ _______ _____ _____    ______ ____
ROOT
ATOM      1  C   UNL     1       4.099   5.606  19.074  0.00  0.00    +0.000 A 
ATOM      2  N   UNL     1       3.635   6.846  18.973  0.00  0.00    +0.000 NA
ATOM      3  C   UNL     1       2.414   6.843  19.596  0.00  0.00    +0.000 A 
ATOM      4  C   UNL     1       2.093   5.581  20.050  0.00  0.00    +0.000 A 
ATOM      5  C   UNL     1       1.074   4.988  20.850  0.00  0.00    +0.000 A 
ATOM      6  C   UNL     1       1.165   3.693  21.198  0.00  0.00    +0.000 A 
ATOM      7  C   UNL     1       2.281   2.869  20.766  0.00  0.00    +0.000 A 
ATOM      8  C   UNL     1       3.244   3.423  20.022  0.00  0.00    +0.000 A 
ATOM      9  N   UNL     1       3.166   4.776  19.671  0.00  0.00    +0.000 N 
ENDROOT
BRANCH   3  10
ATOM     10  N   UNL     1       1.743   7.985  19.873  0.00  0.00    +0.000 N 
ATOM     11  C   UNL     1       1.417   8.346  21.248  0.00  0.00    +0.000 C 
ATOM     12  C   UNL     1      -0.038   8.833  21.277  0.00  0.00    +0.000 C 
ATOM     13  C   UNL     1      -0.302   9.961  20.269  0.00  0.00    +0.000 C 
ATOM     14  C   UNL     1       0.230   9.596  18.873  0.00  0.00    +0.000 C 
ATOM     15  C   UNL     1       1.674   9.088  18.919  0.00  0.00    +0.000 C 
BRANCH  13  16
ATOM     16  C   UNL     1       0.278  11.283  20.750  0.00  0.00    +0.000 C 
ATOM     17  O   UNL     1       0.726  12.156  20.026  0.00  0.00    +0.000 OA
BRANCH  16  18
ATOM     18  O   UNL     1       0.222  11.431  22.093  0.00  0.00    +0.000 OA
ATOM     19  H   UNL     1      -0.613  11.136  22.500  0.00  0.00    +0.000 HD
ENDBRANCH  16  18
ENDBRANCH  13  16
ENDBRANCH   3  10
BRANCH   1  21
ATOM     20  O   UNL     1       6.332   5.067  19.680  0.00  0.00    +0.000 OA
ATOM     21  C   UNL     1       5.478   5.225  18.808  0.00  0.00    +0.000 C 
BRANCH  21  22
ATOM     22  C   UNL     1       5.963   5.139  17.404  0.00  0.00    +0.000 A 
ATOM     23  C   UNL     1       6.924   6.064  16.931  0.00  0.00    +0.000 A 
ATOM     24 CL   UNL     1       7.735   7.235  17.921  0.00  0.00    +0.000 Cl
ATOM     25  C   UNL     1       7.407   5.987  15.618  0.00  0.00    +0.000 A 
ATOM     26  C   UNL     1       7.027   4.938  14.792  0.00  0.00    +0.000 A 
ATOM     27  C   UNL     1       6.151   3.973  15.274  0.00  0.00    +0.000 A 
ATOM     28  C   UNL     1       5.585   4.061  16.568  0.00  0.00    +0.000 A 
BRANCH  28  29
ATOM     29  C   UNL     1       4.629   2.943  16.930  0.00  0.00    +0.000 C 
ATOM     30  F   UNL     1       4.677   2.465  18.193  0.00  0.00    +0.000 F 
ATOM     31  F   UNL     1       3.334   3.351  16.766  0.00  0.00    +0.000 F 
ATOM     32  F   UNL     1       4.765   1.872  16.095  0.00  0.00    +0.000 F 
ENDBRANCH  28  29
ENDBRANCH  21  22
ENDBRANCH   1  21
TORSDOF 6
ENDMDL
MODEL 7
REMARK VINA RESULT:      -6.7      8.244     10.285
REMARK  Name = 
REMARK  6 active torsions:
REMARK  status: ('A' for Active; 'I' for Inactive)
REMARK    1  A    between atoms: C_2  and  C_3
REMARK    2  A    between atoms: C_2  and  C_14
REMARK    3  A    between atoms: C_9  and  C_10
REMARK    4  A    between atoms: C_16  and  N_17
REMARK    5  A    between atoms: C_20  and  C_21
REMARK    6  A    between atoms: C_21  and  O_23
REMARK                            x       y       z     vdW  Elec       q    Type
REMARK                         _______ _______ _______ _____ _____    ______ ____
ROOT
ATOM      1  C   UNL     1       7.878  14.852  19.817  0.00  0.00    +0.000 A 
ATOM      2  N   UNL     1       8.073  13.939  20.761  0.00  0.00    +0.000 NA
ATOM      3  C   UNL     1       7.482  14.437  21.893  0.00  0.00    +0.000 A 
ATOM      4  C   UNL     1       6.954  15.691  21.665  0.00  0.00    +0.000 A 
ATOM      5  C   UNL     1       6.143  16.625  22.372  0.00  0.00    +0.000 A 
ATOM      6  C   UNL     1       5.707  17.735  21.754  0.00  0.00    +0.000 A 
ATOM      7  C   UNL     1       6.055  18.018  20.371  0.00  0.00    +0.000 A 
ATOM      8  C   UNL     1       6.809  17.141  19.701  0.00  0.00    +0.000 A 
ATOM      9  N   UNL     1       7.251  15.972  20.333  0.00  0.00    +0.000 N 
ENDROOT
BRANCH   3  10
ATOM     10  N   UNL     1       7.299  13.683  23.002  0.00  0.00    +0.000 N 
ATOM     11  C   UNL     1       8.292  13.673  24.071  0.00  0.00    +0.000 C 
ATOM     12  C   UNL     1       8.505  12.216  24.505  0.00  0.00    +0.000 C 
ATOM     13  C   UNL     1       7.191  11.517  24.883  0.00  0.00    +0.000 C 
ATOM     14  C   UNL     1       6.121  11.718  23.796  0.00  0.00    +0.000 C 
ATOM     15  C   UNL     1       5.982  13.186  23.387  0.00  0.00    +0.000 C 
BRANCH  13  16
ATOM     16  C   UNL     1       6.688  11.976  26.243  0.00  0.00    +0.000 C 
ATOM     17  O   UNL     1       5.518  12.167  26.528  0.00  0.00    +0.000 OA
BRANCH  16  18
ATOM     18  O   UNL     1       7.677  12.127  27.153  0.00  0.00    +0.000 OA
ATOM     19  H   UNL     1       7.482  12.766  27.862  0.00  0.00    +0.000 HD
ENDBRANCH  16  18
ENDBRANCH  13  16
ENDBRANCH   3  10
BRANCH   1  21
ATOM     20  O   UNL     1       7.172  14.468  17.581  0.00  0.00    +0.000 OA
ATOM     21  C   UNL     1       8.082  14.614  18.395  0.00  0.00    +0.000 C 
BRANCH  21  22
ATOM     22  C   UNL     1       9.458  14.395  17.874  0.00  0.00    +0.000 A 
ATOM     23  C   UNL     1      10.300  15.503  17.616  0.00  0.00    +0.000 A 
ATOM     24 CL   UNL     1       9.915  17.147  18.016  0.00  0.00    +0.000 Cl
ATOM     25  C   UNL     1      11.606  15.316  17.144  0.00  0.00    +0.000 A 
ATOM     26  C   UNL     1      12.130  14.038  17.020  0.00  0.00    +0.000 A 
ATOM     27  C   UNL     1      11.342  12.942  17.352  0.00  0.00    +0.000 A 
ATOM     28  C   UNL     1       9.995  13.091  17.760  0.00  0.00    +0.000 A 
BRANCH  28  29
ATOM     29  C   UNL     1       9.267  11.797  18.062  0.00  0.00    +0.000 C 
ATOM     30  F   UNL     1       8.915  11.563  19.345  0.00  0.00    +0.000 F 
ATOM     31  F   UNL     1       8.092  11.737  17.365  0.00  0.00    +0.000 F 
ATOM     32  F   UNL     1       9.976  10.708  17.640  0.00  0.00    +0.000 F 
ENDBRANCH  28  29
ENDBRANCH  21  22
ENDBRANCH   1  21
TORSDOF 6
ENDMDL
MODEL 8
REMARK VINA RESULT:      -6.7      6.301      9.230
REMARK  Name = 
REMARK  6 active torsions:
REMARK  status: ('A' for Active; 'I' for Inactive)
REMARK    1  A    between atoms: C_2  and  C_3
REMARK    2  A    between atoms: C_2  and  C_14
REMARK    3  A    between atoms: C_9  and  C_10
REMARK    4  A    between atoms: C_16  and  N_17
REMARK    5  A    between atoms: C_20  and  C_21
REMARK    6  A    between atoms: C_21  and  O_23
REMARK                            x       y       z     vdW  Elec       q    Type
REMARK                         _______ _______ _______ _____ _____    ______ ____
ROOT
ATOM      1  C   UNL     1      -1.577  12.178  19.382  0.00  0.00    +0.000 A 
ATOM      2  N   UNL     1      -2.442  12.904  20.080  0.00  0.00    +0.000 NA
ATOM      3  C   UNL     1      -3.677  12.628  19.553  0.00  0.00    +0.000 A 
ATOM      4  C   UNL     1      -3.576  11.758  18.488  0.00  0.00    +0.000 A 
ATOM      5  C   UNL     1      -4.468  11.028  17.650  0.00  0.00    +0.000 A 
ATOM      6  C   UNL     1      -3.981  10.145  16.762  0.00  0.00    +0.000 A 
ATOM      7  C   UNL     1      -2.551   9.921  16.623  0.00  0.00    +0.000 A 
ATOM      8  C   UNL     1      -1.711  10.597  17.413  0.00  0.00    +0.000 A 
ATOM      9  N   UNL     1      -2.213  11.504  18.354  0.00  0.00    +0.000 N 
ENDROOT
BRANCH   3  10
ATOM     10  N   UNL     1      -4.823  13.026  20.153  0.00  0.00    +0.000 N 
ATOM     11  C   UNL     1      -5.681  12.067  20.839  0.00  0.00    +0.000 C 
ATOM     12  C   UNL     1      -7.133  12.359  20.438  0.00  0.00    +0.000 C 
ATOM     13  C   UNL     1      -7.529  13.822  20.688  0.00  0.00    +0.000 C 
ATOM     14  C   UNL     1      -6.488  14.789  20.099  0.00  0.00    +0.000 C 
ATOM     15  C   UNL     1      -5.060  14.422  20.510  0.00  0.00    +0.000 C 
BRANCH  13  16
ATOM     16  C   UNL     1      -7.755  14.091  22.168  0.00  0.00    +0.000 C 
ATOM     17  O   UNL     1      -7.917  13.233  23.019  0.00  0.00    +0.000 OA
BRANCH  16  18
ATOM     18  O   UNL     1      -7.725  15.407  22.480  0.00  0.00    +0.000 OA
ATOM     19  H   UNL     1      -8.316  15.664  23.211  0.00  0.00    +0.000 HD
ENDBRANCH  16  18
ENDBRANCH  13  16
ENDBRANCH   3  10
BRANCH   1  21
ATOM     20  O   UNL     1       0.714  12.753  19.634  0.00  0.00    +0.000 OA
ATOM     21  C   UNL     1      -0.198  11.941  19.783  0.00  0.00    +0.000 C 
BRANCH  21  22
ATOM     22  C   UNL     1       0.205  10.600  20.285  0.00  0.00    +0.000 A 
ATOM     23  C   UNL     1       1.014   9.760  19.485  0.00  0.00    +0.000 A 
ATOM     24 CL   UNL     1       1.738  10.231  17.980  0.00  0.00    +0.000 Cl
ATOM     25  C   UNL     1       1.420   8.501  19.949  0.00  0.00    +0.000 A 
ATOM     26  C   UNL     1       1.119   8.102  21.244  0.00  0.00    +0.000 A 
ATOM     27  C   UNL     1       0.398   8.955  22.071  0.00  0.00    +0.000 A 
ATOM     28  C   UNL     1      -0.092  10.200  21.610  0.00  0.00    +0.000 A 
BRANCH  28  29
ATOM     29  C   UNL     1      -0.880  10.998  22.628  0.00  0.00    +0.000 C 
ATOM     30  F   UNL     1      -2.197  11.186  22.391  0.00  0.00    +0.000 F 
ATOM     31  F   UNL     1      -0.835  10.387  23.851  0.00  0.00    +0.000 F 
ATOM     32  F   UNL     1      -0.334  12.232  22.836  0.00  0.00    +0.000 F 
ENDBRANCH  28  29
ENDBRANCH  21  22
ENDBRANCH   1  21
TORSDOF 6
ENDMDL
MODEL 9
REMARK VINA RESULT:      -6.7      8.570     10.275
REMARK  Name = 
REMARK  6 active torsions:
REMARK  status: ('A' for Active; 'I' for Inactive)
REMARK    1  A    between atoms: C_2  and  C_3
REMARK    2  A    between atoms: C_2  and  C_14
REMARK    3  A    between atoms: C_9  and  C_10
REMARK    4  A    between atoms: C_16  and  N_17
REMARK    5  A    between atoms: C_20  and  C_21
REMARK    6  A    between atoms: C_21  and  O_23
REMARK                            x       y       z     vdW  Elec       q    Type
REMARK                         _______ _______ _______ _____ _____    ______ ____
ROOT
ATOM      1  C   UNL     1       8.036  14.477  19.894  0.00  0.00    +0.000 A 
ATOM      2  N   UNL     1       8.187  13.632  20.907  0.00  0.00    +0.000 NA
ATOM      3  C   UNL     1       7.569  14.219  21.980  0.00  0.00    +0.000 A 
ATOM      4  C   UNL     1       7.069  15.460  21.647  0.00  0.00    +0.000 A 
ATOM      5  C   UNL     1       6.251  16.453  22.258  0.00  0.00    +0.000 A 
ATOM      6  C   UNL     1       5.853  17.522  21.549  0.00  0.00    +0.000 A 
ATOM      7  C   UNL     1       6.248  17.700  20.162  0.00  0.00    +0.000 A 
ATOM      8  C   UNL     1       7.008  16.767  19.581  0.00  0.00    +0.000 A 
ATOM      9  N   UNL     1       7.411  15.640  20.308  0.00  0.00    +0.000 N 
ENDROOT
BRANCH   3  10
ATOM     10  N   UNL     1       7.339  13.549  23.134  0.00  0.00    +0.000 N 
ATOM     11  C   UNL     1       8.300  13.596  24.230  0.00  0.00    +0.000 C 
ATOM     12  C   UNL     1       8.471  12.170  24.772  0.00  0.00    +0.000 C 
ATOM     13  C   UNL     1       7.133  11.523  25.158  0.00  0.00    +0.000 C 
ATOM     14  C   UNL     1       6.098  11.666  24.029  0.00  0.00    +0.000 C 
ATOM     15  C   UNL     1       6.001  13.104  23.513  0.00  0.00    +0.000 C 
BRANCH  13  16
ATOM     16  C   UNL     1       6.601  12.087  26.467  0.00  0.00    +0.000 C 
ATOM     17  O   UNL     1       5.450  12.441  26.660  0.00  0.00    +0.000 OA
BRANCH  16  18
ATOM     18  O   UNL     1       7.533  12.132  27.445  0.00  0.00    +0.000 OA
ATOM     19  H   UNL     1       7.272  12.645  28.232  0.00  0.00    +0.000 HD
ENDBRANCH  16  18
ENDBRANCH  13  16
ENDBRANCH   3  10
BRANCH   1  21
ATOM     20  O   UNL     1       7.397  13.999  17.656  0.00  0.00    +0.000 OA
ATOM     21  C   UNL     1       8.281  14.135  18.500  0.00  0.00    +0.000 C 
BRANCH  21  22
ATOM     22  C   UNL     1       9.659  13.791  18.056  0.00  0.00    +0.000 A 
ATOM     23  C   UNL     1      10.046  12.434  17.947  0.00  0.00    +0.000 A 
ATOM     24 CL   UNL     1       8.974  11.084  18.139  0.00  0.00    +0.000 Cl
ATOM     25  C   UNL     1      11.333  12.090  17.511  0.00  0.00    +0.000 A 
ATOM     26  C   UNL     1      12.214  13.072  17.081  0.00  0.00    +0.000 A 
ATOM     27  C   UNL     1      11.814  14.403  17.100  0.00  0.00    +0.000 A 
ATOM     28  C   UNL     1      10.550  14.793  17.605  0.00  0.00    +0.000 A 
BRANCH  28  29
ATOM     29  C   UNL     1      10.279  16.283  17.580  0.00  0.00    +0.000 C 
ATOM     30  F   UNL     1      10.259  16.935  18.763  0.00  0.00    +0.000 F 
ATOM     31  F   UNL     1      11.237  16.929  16.848  0.00  0.00    +0.000 F 
ATOM     32  F   UNL     1       9.104  16.573  16.947  0.00  0.00    +0.000 F 
ENDBRANCH  28  29
ENDBRANCH  21  22
ENDBRANCH   1  21
TORSDOF 6
ENDMDL
