MODEL 1
REMARK VINA RESULT:      -7.3      0.000      0.000
REMARK  Name = 
REMARK  9 active torsions:
REMARK  status: ('A' for Active; 'I' for Inactive)
REMARK    1  A    between atoms: C_1  and  O_2
REMARK    2  A    between atoms: O_2  and  C_3
REMARK    3  A    between atoms: C_6  and  C_7
REMARK    4  A    between atoms: C_8  and  C_9
REMARK    5  A    between atoms: C_13  and  C_14
REMARK    6  A    between atoms: C_15  and  C_16
REMARK    7  A    between atoms: C_19  and  O_20
REMARK    8  A    between atoms: O_20  and  C_21
REMARK    9  A    between atoms: N_24  and  C_25
REMARK                            x       y       z     vdW  Elec       q    Type
REMARK                         _______ _______ _______ _____ _____    ______ ____
ROOT
ATOM      1  C   UNL     1       2.220   6.028  20.223  0.00  0.00    +0.000 A 
ATOM      2  C   UNL     1       2.061   4.879  21.000  0.00  0.00    +0.000 A 
ATOM      3  C   UNL     1       2.534   3.661  20.542  0.00  0.00    +0.000 A 
ATOM      4  C   UNL     1       3.193   3.615  19.323  0.00  0.00    +0.000 A 
ATOM      5  C   UNL     1       3.370   4.782  18.573  0.00  0.00    +0.000 A 
ATOM      6  N   UNL     1       2.857   5.966  19.016  0.00  0.00    +0.000 N 
ATOM      7  C   UNL     1       2.957   7.197  18.202  0.00  0.00    +0.000 C 
ENDROOT
BRANCH   1   9
ATOM      8  C   UNL     1       1.117   8.254  21.112  0.00  0.00    +0.000 C 
ATOM      9  C   UNL     1       1.664   7.260  20.709  0.00  0.00    +0.000 C 
BRANCH   8  13
ATOM     10  C   UNL     1      -1.181  11.617  22.308  0.00  0.00    +0.000 A 
ATOM     11  C   UNL     1      -0.560  11.587  21.060  0.00  0.00    +0.000 A 
ATOM     12  C   UNL     1       0.209  10.480  20.682  0.00  0.00    +0.000 A 
ATOM     13  C   UNL     1       0.367   9.395  21.549  0.00  0.00    +0.000 A 
ATOM     14  C   UNL     1      -0.242   9.426  22.804  0.00  0.00    +0.000 A 
ATOM     15  C   UNL     1      -1.014  10.535  23.177  0.00  0.00    +0.000 A 
BRANCH  10  17
ATOM     16  C   UNL     1      -3.205  12.254  23.386  0.00  0.00    +0.000 C 
ATOM     17  O   UNL     1      -1.970  12.627  22.782  0.00  0.00    +0.000 OA
ENDBRANCH  10  17
ENDBRANCH   8  13
ENDBRANCH   1   9
BRANCH   5  18
ATOM     18  C   UNL     1       4.139   4.698  17.361  0.00  0.00    +0.000 C 
ATOM     19  C   UNL     1       4.738   4.598  16.322  0.00  0.00    +0.000 C 
BRANCH  19  20
ATOM     20  C   UNL     1       5.429   4.411  15.078  0.00  0.00    +0.000 A 
ATOM     21  C   UNL     1       4.789   3.831  13.982  0.00  0.00    +0.000 A 
ATOM     22  C   UNL     1       5.501   3.599  12.798  0.00  0.00    +0.000 A 
ATOM     23  C   UNL     1       6.848   3.957  12.691  0.00  0.00    +0.000 A 
ATOM     24  C   UNL     1       7.483   4.544  13.783  0.00  0.00    +0.000 A 
ATOM     25  C   UNL     1       6.775   4.769  14.973  0.00  0.00    +0.000 A 
BRANCH  23  26
ATOM     26  O   UNL     1       7.448   3.622  11.510  0.00  0.00    +0.000 OA
ATOM     27  C   UNL     1       7.376   2.255  11.118  0.00  0.00    +0.000 C 
ENDBRANCH  23  26
ENDBRANCH  19  20
ENDBRANCH   5  18
TORSDOF 6
ENDMDL
MODEL 2
REMARK VINA RESULT:      -7.2      0.182     11.066
REMARK  Name = 
REMARK  9 active torsions:
REMARK  status: ('A' for Active; 'I' for Inactive)
REMARK    1  A    between atoms: C_1  and  O_2
REMARK    2  A    between atoms: O_2  and  C_3
REMARK    3  A    between atoms: C_6  and  C_7
REMARK    4  A    between atoms: C_8  and  C_9
REMARK    5  A    between atoms: C_13  and  C_14
REMARK    6  A    between atoms: C_15  and  C_16
REMARK    7  A    between atoms: C_19  and  O_20
REMARK    8  A    between atoms: O_20  and  C_21
REMARK    9  A    between atoms: N_24  and  C_25
REMARK                            x       y       z     vdW  Elec       q    Type
REMARK                         _______ _______ _______ _____ _____    ______ ____
ROOT
ATOM      1  C   UNL     1       3.371   4.776  18.508  0.00  0.00    +0.000 A 
ATOM      2  C   UNL     1       3.213   3.564  19.184  0.00  0.00    +0.000 A 
ATOM      3  C   UNL     1       2.582   3.534  20.416  0.00  0.00    +0.000 A 
ATOM      4  C   UNL     1       2.085   4.717  20.942  0.00  0.00    +0.000 A 
ATOM      5  C   UNL     1       2.226   5.917  20.235  0.00  0.00    +0.000 A 
ATOM      6  N   UNL     1       2.891   5.937  19.045  0.00  0.00    +0.000 N 
ATOM      7  C   UNL     1       3.127   7.204  18.320  0.00  0.00    +0.000 C 
ENDROOT
BRANCH   1   9
ATOM      8  C   UNL     1       4.670   4.676  16.213  0.00  0.00    +0.000 C 
ATOM      9  C   UNL     1       4.082   4.770  17.260  0.00  0.00    +0.000 C 
BRANCH   8  13
ATOM     10  C   UNL     1       6.881   3.961  12.661  0.00  0.00    +0.000 A 
ATOM     11  C   UNL     1       7.410   4.748  13.683  0.00  0.00    +0.000 A 
ATOM     12  C   UNL     1       6.666   4.992  14.843  0.00  0.00    +0.000 A 
ATOM     13  C   UNL     1       5.385   4.453  14.991  0.00  0.00    +0.000 A 
ATOM     14  C   UNL     1       4.845   3.675  13.966  0.00  0.00    +0.000 A 
ATOM     15  C   UNL     1       5.595   3.431  12.807  0.00  0.00    +0.000 A 
BRANCH  10  17
ATOM     16  C   UNL     1       7.404   2.287  11.052  0.00  0.00    +0.000 C 
ATOM     17  O   UNL     1       7.514   3.636  11.494  0.00  0.00    +0.000 OA
ENDBRANCH  10  17
ENDBRANCH   8  13
ENDBRANCH   1   9
BRANCH   5  18
ATOM     18  C   UNL     1       1.615   7.098  20.779  0.00  0.00    +0.000 C 
ATOM     19  C   UNL     1       1.064   8.086  21.190  0.00  0.00    +0.000 C 
BRANCH  19  20
ATOM     20  C   UNL     1       0.401   9.288  21.613  0.00  0.00    +0.000 A 
ATOM     21  C   UNL     1      -0.308   9.331  22.814  0.00  0.00    +0.000 A 
ATOM     22  C   UNL     1      -1.001  10.493  23.175  0.00  0.00    +0.000 A 
ATOM     23  C   UNL     1      -0.978  11.625  22.355  0.00  0.00    +0.000 A 
ATOM     24  C   UNL     1      -0.261  11.583  21.161  0.00  0.00    +0.000 A 
ATOM     25  C   UNL     1       0.425  10.417  20.792  0.00  0.00    +0.000 A 
BRANCH  23  26
ATOM     26  O   UNL     1      -1.742  12.673  22.785  0.00  0.00    +0.000 OA
ATOM     27  C   UNL     1      -3.103  12.389  23.097  0.00  0.00    +0.000 C 
ENDBRANCH  23  26
ENDBRANCH  19  20
ENDBRANCH   5  18
TORSDOF 6
ENDMDL
MODEL 3
REMARK VINA RESULT:      -7.1      0.566     10.932
REMARK  Name = 
REMARK  9 active torsions:
REMARK  status: ('A' for Active; 'I' for Inactive)
REMARK    1  A    between atoms: C_1  and  O_2
REMARK    2  A    between atoms: O_2  and  C_3
REMARK    3  A    between atoms: C_6  and  C_7
REMARK    4  A    between atoms: C_8  and  C_9
REMARK    5  A    between atoms: C_13  and  C_14
REMARK    6  A    between atoms: C_15  and  C_16
REMARK    7  A    between atoms: C_19  and  O_20
REMARK    8  A    between atoms: O_20  and  C_21
REMARK    9  A    between atoms: N_24  and  C_25
REMARK                            x       y       z     vdW  Elec       q    Type
REMARK                         _______ _______ _______ _____ _____    ______ ____
ROOT
ATOM      1  C   UNL     1       3.437   4.663  18.831  0.00  0.00    +0.000 A 
ATOM      2  C   UNL     1       3.317   3.484  19.568  0.00  0.00    +0.000 A 
ATOM      3  C   UNL     1       2.613   3.480  20.761  0.00  0.00    +0.000 A 
ATOM      4  C   UNL     1       2.008   4.653  21.184  0.00  0.00    +0.000 A 
ATOM      5  C   UNL     1       2.113   5.818  20.416  0.00  0.00    +0.000 A 
ATOM      6  N   UNL     1       2.849   5.817  19.267  0.00  0.00    +0.000 N 
ATOM      7  C   UNL     1       3.046   7.055  18.482  0.00  0.00    +0.000 C 
ENDROOT
BRANCH   1   9
ATOM      8  C   UNL     1       4.812   4.579  16.580  0.00  0.00    +0.000 C 
ATOM      9  C   UNL     1       4.223   4.636  17.629  0.00  0.00    +0.000 C 
BRANCH   8  13
ATOM     10  C   UNL     1       6.746   4.092  12.834  0.00  0.00    +0.000 A 
ATOM     11  C   UNL     1       7.366   4.791  13.869  0.00  0.00    +0.000 A 
ATOM     12  C   UNL     1       6.713   4.961  15.095  0.00  0.00    +0.000 A 
ATOM     13  C   UNL     1       5.433   4.435  15.296  0.00  0.00    +0.000 A 
ATOM     14  C   UNL     1       4.803   3.746  14.259  0.00  0.00    +0.000 A 
ATOM     15  C   UNL     1       5.463   3.576  13.034  0.00  0.00    +0.000 A 
BRANCH  10  17
ATOM     16  C   UNL     1       7.385   2.481  11.202  0.00  0.00    +0.000 C 
ATOM     17  O   UNL     1       7.287   3.844  11.603  0.00  0.00    +0.000 OA
ENDBRANCH  10  17
ENDBRANCH   8  13
ENDBRANCH   1   9
BRANCH   5  18
ATOM     18  C   UNL     1       1.393   6.983  20.850  0.00  0.00    +0.000 C 
ATOM     19  C   UNL     1       0.787   7.975  21.158  0.00  0.00    +0.000 C 
BRANCH  19  20
ATOM     20  C   UNL     1       0.103   9.197  21.478  0.00  0.00    +0.000 A 
ATOM     21  C   UNL     1      -0.124  10.168  20.502  0.00  0.00    +0.000 A 
ATOM     22  C   UNL     1      -0.735  11.380  20.850  0.00  0.00    +0.000 A 
ATOM     23  C   UNL     1      -1.140  11.625  22.166  0.00  0.00    +0.000 A 
ATOM     24  C   UNL     1      -0.921  10.651  23.137  0.00  0.00    +0.000 A 
ATOM     25  C   UNL     1      -0.301   9.441  22.793  0.00  0.00    +0.000 A 
BRANCH  23  26
ATOM     26  O   UNL     1      -1.667  12.866  22.392  0.00  0.00    +0.000 OA
ATOM     27  C   UNL     1      -0.743  13.913  22.673  0.00  0.00    +0.000 C 
ENDBRANCH  23  26
ENDBRANCH  19  20
ENDBRANCH   5  18
TORSDOF 6
ENDMDL
MODEL 4
REMARK VINA RESULT:      -7.1      0.709      1.231
REMARK  Name = 
REMARK  9 active torsions:
REMARK  status: ('A' for Active; 'I' for Inactive)
REMARK    1  A    between atoms: C_1  and  O_2
REMARK    2  A    between atoms: O_2  and  C_3
REMARK    3  A    between atoms: C_6  and  C_7
REMARK    4  A    between atoms: C_8  and  C_9
REMARK    5  A    between atoms: C_13  and  C_14
REMARK    6  A    between atoms: C_15  and  C_16
REMARK    7  A    between atoms: C_19  and  O_20
REMARK    8  A    between atoms: O_20  and  C_21
REMARK    9  A    between atoms: N_24  and  C_25
REMARK                            x       y       z     vdW  Elec       q    Type
REMARK                         _______ _______ _______ _____ _____    ______ ____
ROOT
ATOM      1  C   UNL     1       2.055   5.661  20.377  0.00  0.00    +0.000 A 
ATOM      2  C   UNL     1       1.810   4.491  21.098  0.00  0.00    +0.000 A 
ATOM      3  C   UNL     1       2.238   3.270  20.604  0.00  0.00    +0.000 A 
ATOM      4  C   UNL     1       2.939   3.240  19.409  0.00  0.00    +0.000 A 
ATOM      5  C   UNL     1       3.202   4.427  18.716  0.00  0.00    +0.000 A 
ATOM      6  N   UNL     1       2.733   5.616  19.191  0.00  0.00    +0.000 N 
ATOM      7  C   UNL     1       2.924   6.873  18.435  0.00  0.00    +0.000 C 
ENDROOT
BRANCH   1   9
ATOM      8  C   UNL     1       1.070   7.947  21.255  0.00  0.00    +0.000 C 
ATOM      9  C   UNL     1       1.543   6.899  20.896  0.00  0.00    +0.000 C 
BRANCH   8  13
ATOM     10  C   UNL     1      -0.612  11.700  22.302  0.00  0.00    +0.000 A 
ATOM     11  C   UNL     1      -0.924  10.552  23.029  0.00  0.00    +0.000 A 
ATOM     12  C   UNL     1      -0.378   9.317  22.666  0.00  0.00    +0.000 A 
ATOM     13  C   UNL     1       0.484   9.216  21.570  0.00  0.00    +0.000 A 
ATOM     14  C   UNL     1       0.790  10.360  20.831  0.00  0.00    +0.000 A 
ATOM     15  C   UNL     1       0.243  11.596  21.200  0.00  0.00    +0.000 A 
BRANCH  10  17
ATOM     16  C   UNL     1      -0.222  14.045  22.187  0.00  0.00    +0.000 C 
ATOM     17  O   UNL     1      -1.064  12.962  22.570  0.00  0.00    +0.000 OA
ENDBRANCH  10  17
ENDBRANCH   8  13
ENDBRANCH   1   9
BRANCH   5  18
ATOM     18  C   UNL     1       4.010   4.354  17.530  0.00  0.00    +0.000 C 
ATOM     19  C   UNL     1       4.653   4.335  16.513  0.00  0.00    +0.000 C 
BRANCH  19  20
ATOM     20  C   UNL     1       5.358   4.318  15.262  0.00  0.00    +0.000 A 
ATOM     21  C   UNL     1       4.840   3.645  14.155  0.00  0.00    +0.000 A 
ATOM     22  C   UNL     1       5.576   3.587  12.964  0.00  0.00    +0.000 A 
ATOM     23  C   UNL     1       6.821   4.213  12.861  0.00  0.00    +0.000 A 
ATOM     24  C   UNL     1       7.333   4.893  13.964  0.00  0.00    +0.000 A 
ATOM     25  C   UNL     1       6.603   4.944  15.161  0.00  0.00    +0.000 A 
BRANCH  23  26
ATOM     26  O   UNL     1       7.468   4.033  11.671  0.00  0.00    +0.000 OA
ATOM     27  C   UNL     1       7.532   2.701  11.170  0.00  0.00    +0.000 C 
ENDBRANCH  23  26
ENDBRANCH  19  20
ENDBRANCH   5  18
TORSDOF 6
ENDMDL
MODEL 5
REMARK VINA RESULT:      -7.1      3.441     12.162
REMARK  Name = 
REMARK  9 active torsions:
REMARK  status: ('A' for Active; 'I' for Inactive)
REMARK    1  A    between atoms: C_1  and  O_2
REMARK    2  A    between atoms: O_2  and  C_3
REMARK    3  A    between atoms: C_6  and  C_7
REMARK    4  A    between atoms: C_8  and  C_9
REMARK    5  A    between atoms: C_13  and  C_14
REMARK    6  A    between atoms: C_15  and  C_16
REMARK    7  A    between atoms: C_19  and  O_20
REMARK    8  A    between atoms: O_20  and  C_21
REMARK    9  A    between atoms: N_24  and  C_25
REMARK                            x       y       z     vdW  Elec       q    Type
REMARK                         _______ _______ _______ _____ _____    ______ ____
ROOT
ATOM      1  C   UNL     1       1.556  10.848  18.604  0.00  0.00    +0.000 A 
ATOM      2  C   UNL     1       2.208  11.994  18.146  0.00  0.00    +0.000 A 
ATOM      3  C   UNL     1       1.692  13.247  18.433  0.00  0.00    +0.000 A 
ATOM      4  C   UNL     1       0.545  13.336  19.207  0.00  0.00    +0.000 A 
ATOM      5  C   UNL     1      -0.077  12.177  19.683  0.00  0.00    +0.000 A 
ATOM      6  N   UNL     1       0.417  10.949  19.352  0.00  0.00    +0.000 N 
ATOM      7  C   UNL     1      -0.270   9.708  19.772  0.00  0.00    +0.000 C 
ENDROOT
BRANCH   1   9
ATOM      8  C   UNL     1       2.508   8.462  18.000  0.00  0.00    +0.000 C 
ATOM      9  C   UNL     1       2.092   9.567  18.235  0.00  0.00    +0.000 C 
BRANCH   8  13
ATOM     10  C   UNL     1       3.835   4.471  17.432  0.00  0.00    +0.000 A 
ATOM     11  C   UNL     1       2.580   4.732  17.981  0.00  0.00    +0.000 A 
ATOM     12  C   UNL     1       2.159   6.052  18.180  0.00  0.00    +0.000 A 
ATOM     13  C   UNL     1       2.989   7.122  17.834  0.00  0.00    +0.000 A 
ATOM     14  C   UNL     1       4.251   6.865  17.296  0.00  0.00    +0.000 A 
ATOM     15  C   UNL     1       4.667   5.542  17.096  0.00  0.00    +0.000 A 
BRANCH  10  17
ATOM     16  C   UNL     1       3.741   2.126  17.833  0.00  0.00    +0.000 C 
ATOM     17  O   UNL     1       4.349   3.231  17.171  0.00  0.00    +0.000 OA
ENDBRANCH  10  17
ENDBRANCH   8  13
ENDBRANCH   1   9
BRANCH   5  18
ATOM     18  C   UNL     1      -1.209  12.326  20.555  0.00  0.00    +0.000 C 
ATOM     19  C   UNL     1      -2.192  12.437  21.241  0.00  0.00    +0.000 C 
BRANCH  19  20
ATOM     20  C   UNL     1      -3.398  12.602  22.003  0.00  0.00    +0.000 A 
ATOM     21  C   UNL     1      -4.627  12.787  21.370  0.00  0.00    +0.000 A 
ATOM     22  C   UNL     1      -5.780  13.011  22.133  0.00  0.00    +0.000 A 
ATOM     23  C   UNL     1      -5.721  13.034  23.530  0.00  0.00    +0.000 A 
ATOM     24  C   UNL     1      -4.494  12.839  24.160  0.00  0.00    +0.000 A 
ATOM     25  C   UNL     1      -3.336  12.624  23.399  0.00  0.00    +0.000 A 
BRANCH  23  26
ATOM     26  O   UNL     1      -6.899  13.323  24.159  0.00  0.00    +0.000 OA
ATOM     27  C   UNL     1      -7.615  14.461  23.690  0.00  0.00    +0.000 C 
ENDBRANCH  23  26
ENDBRANCH  19  20
ENDBRANCH   5  18
TORSDOF 6
ENDMDL
MODEL 6
REMARK VINA RESULT:      -7.1      0.722      1.259
REMARK  Name = 
REMARK  9 active torsions:
REMARK  status: ('A' for Active; 'I' for Inactive)
REMARK    1  A    between atoms: C_1  and  O_2
REMARK    2  A    between atoms: O_2  and  C_3
REMARK    3  A    between atoms: C_6  and  C_7
REMARK    4  A    between atoms: C_8  and  C_9
REMARK    5  A    between atoms: C_13  and  C_14
REMARK    6  A    between atoms: C_15  and  C_16
REMARK    7  A    between atoms: C_19  and  O_20
REMARK    8  A    between atoms: O_20  and  C_21
REMARK    9  A    between atoms: N_24  and  C_25
REMARK                            x       y       z     vdW  Elec       q    Type
REMARK                         _______ _______ _______ _____ _____    ______ ____
ROOT
ATOM      1  C   UNL     1       2.035   5.647  20.373  0.00  0.00    +0.000 A 
ATOM      2  C   UNL     1       1.794   4.484  21.108  0.00  0.00    +0.000 A 
ATOM      3  C   UNL     1       2.245   3.261  20.639  0.00  0.00    +0.000 A 
ATOM      4  C   UNL     1       2.963   3.223  19.454  0.00  0.00    +0.000 A 
ATOM      5  C   UNL     1       3.221   4.402  18.747  0.00  0.00    +0.000 A 
ATOM      6  N   UNL     1       2.729   5.593  19.197  0.00  0.00    +0.000 N 
ATOM      7  C   UNL     1       2.916   6.840  18.425  0.00  0.00    +0.000 C 
ENDROOT
BRANCH   1   9
ATOM      8  C   UNL     1       0.987   7.916  21.218  0.00  0.00    +0.000 C 
ATOM      9  C   UNL     1       1.500   6.885  20.866  0.00  0.00    +0.000 C 
BRANCH   8  13
ATOM     10  C   UNL     1      -1.063  11.535  22.064  0.00  0.00    +0.000 A 
ATOM     11  C   UNL     1      -0.425  11.348  20.838  0.00  0.00    +0.000 A 
ATOM     12  C   UNL     1       0.262  10.158  20.576  0.00  0.00    +0.000 A 
ATOM     13  C   UNL     1       0.320   9.145  21.537  0.00  0.00    +0.000 A 
ATOM     14  C   UNL     1      -0.306   9.332  22.770  0.00  0.00    +0.000 A 
ATOM     15  C   UNL     1      -0.995  10.525  23.027  0.00  0.00    +0.000 A 
BRANCH  10  17
ATOM     16  C   UNL     1      -2.748  12.471  23.461  0.00  0.00    +0.000 C 
ATOM     17  O   UNL     1      -1.780  12.640  22.430  0.00  0.00    +0.000 OA
ENDBRANCH  10  17
ENDBRANCH   8  13
ENDBRANCH   1   9
BRANCH   5  18
ATOM     18  C   UNL     1       4.046   4.322  17.573  0.00  0.00    +0.000 C 
ATOM     19  C   UNL     1       4.729   4.312  16.583  0.00  0.00    +0.000 C 
BRANCH  19  20
ATOM     20  C   UNL     1       5.497   4.344  15.369  0.00  0.00    +0.000 A 
ATOM     21  C   UNL     1       6.699   5.049  15.301  0.00  0.00    +0.000 A 
ATOM     22  C   UNL     1       7.399   5.121  14.089  0.00  0.00    +0.000 A 
ATOM     23  C   UNL     1       6.917   4.479  12.945  0.00  0.00    +0.000 A 
ATOM     24  C   UNL     1       5.721   3.768  13.018  0.00  0.00    +0.000 A 
ATOM     25  C   UNL     1       5.013   3.702  14.227  0.00  0.00    +0.000 A 
BRANCH  23  26
ATOM     26  O   UNL     1       7.655   4.675  11.812  0.00  0.00    +0.000 OA
ATOM     27  C   UNL     1       7.878   6.025  11.416  0.00  0.00    +0.000 C 
ENDBRANCH  23  26
ENDBRANCH  19  20
ENDBRANCH   5  18
TORSDOF 6
ENDMDL
MODEL 7
REMARK VINA RESULT:      -7.1      0.934      1.715
REMARK  Name = 
REMARK  9 active torsions:
REMARK  status: ('A' for Active; 'I' for Inactive)
REMARK    1  A    between atoms: C_1  and  O_2
REMARK    2  A    between atoms: O_2  and  C_3
REMARK    3  A    between atoms: C_6  and  C_7
REMARK    4  A    between atoms: C_8  and  C_9
REMARK    5  A    between atoms: C_13  and  C_14
REMARK    6  A    between atoms: C_15  and  C_16
REMARK    7  A    between atoms: C_19  and  O_20
REMARK    8  A    between atoms: O_20  and  C_21
REMARK    9  A    between atoms: N_24  and  C_25
REMARK                            x       y       z     vdW  Elec       q    Type
REMARK                         _______ _______ _______ _____ _____    ______ ____
ROOT
ATOM      1  C   UNL     1       2.026   5.587  20.324  0.00  0.00    +0.000 A 
ATOM      2  C   UNL     1       1.732   4.413  21.019  0.00  0.00    +0.000 A 
ATOM      3  C   UNL     1       2.131   3.188  20.512  0.00  0.00    +0.000 A 
ATOM      4  C   UNL     1       2.853   3.157  19.329  0.00  0.00    +0.000 A 
ATOM      5  C   UNL     1       3.165   4.346  18.662  0.00  0.00    +0.000 A 
ATOM      6  N   UNL     1       2.723   5.542  19.150  0.00  0.00    +0.000 N 
ATOM      7  C   UNL     1       2.967   6.805  18.419  0.00  0.00    +0.000 C 
ENDROOT
BRANCH   1   9
ATOM      8  C   UNL     1       1.076   7.873  21.238  0.00  0.00    +0.000 C 
ATOM      9  C   UNL     1       1.543   6.831  20.855  0.00  0.00    +0.000 C 
BRANCH   8  13
ATOM     10  C   UNL     1      -0.670  11.564  22.394  0.00  0.00    +0.000 A 
ATOM     11  C   UNL     1      -0.910  10.403  23.128  0.00  0.00    +0.000 A 
ATOM     12  C   UNL     1      -0.343   9.188  22.729  0.00  0.00    +0.000 A 
ATOM     13  C   UNL     1       0.466   9.121  21.591  0.00  0.00    +0.000 A 
ATOM     14  C   UNL     1       0.699  10.278  20.846  0.00  0.00    +0.000 A 
ATOM     15  C   UNL     1       0.132  11.494  21.251  0.00  0.00    +0.000 A 
BRANCH  10  17
ATOM     16  C   UNL     1      -0.341  13.920  22.316  0.00  0.00    +0.000 C 
ATOM     17  O   UNL     1      -1.149  12.810  22.693  0.00  0.00    +0.000 OA
ENDBRANCH  10  17
ENDBRANCH   8  13
ENDBRANCH   1   9
BRANCH   5  18
ATOM     18  C   UNL     1       3.991   4.268  17.489  0.00  0.00    +0.000 C 
ATOM     19  C   UNL     1       4.692   4.261  16.511  0.00  0.00    +0.000 C 
BRANCH  19  20
ATOM     20  C   UNL     1       5.496   4.313  15.322  0.00  0.00    +0.000 A 
ATOM     21  C   UNL     1       6.705   5.010  15.305  0.00  0.00    +0.000 A 
ATOM     22  C   UNL     1       7.442   5.102  14.117  0.00  0.00    +0.000 A 
ATOM     23  C   UNL     1       6.991   4.488  12.945  0.00  0.00    +0.000 A 
ATOM     24  C   UNL     1       5.789   3.785  12.967  0.00  0.00    +0.000 A 
ATOM     25  C   UNL     1       5.044   3.699  14.152  0.00  0.00    +0.000 A 
BRANCH  23  26
ATOM     26  O   UNL     1       7.765   4.702  11.839  0.00  0.00    +0.000 OA
ATOM     27  C   UNL     1       7.922   6.053  11.418  0.00  0.00    +0.000 C 
ENDBRANCH  23  26
ENDBRANCH  19  20
ENDBRANCH   5  18
TORSDOF 6
ENDMDL
MODEL 8
REMARK VINA RESULT:      -7.0      3.684     12.140
REMARK  Name = 
REMARK  9 active torsions:
REMARK  status: ('A' for Active; 'I' for Inactive)
REMARK    1  A    between atoms: C_1  and  O_2
REMARK    2  A    between atoms: O_2  and  C_3
REMARK    3  A    between atoms: C_6  and  C_7
REMARK    4  A    between atoms: C_8  and  C_9
REMARK    5  A    between atoms: C_13  and  C_14
REMARK    6  A    between atoms: C_15  and  C_16
REMARK    7  A    between atoms: C_19  and  O_20
REMARK    8  A    between atoms: O_20  and  C_21
REMARK    9  A    between atoms: N_24  and  C_25
REMARK                            x       y       z     vdW  Elec       q    Type
REMARK                         _______ _______ _______ _____ _____    ______ ____
ROOT
ATOM      1  C   UNL     1       1.389  10.948  18.541  0.00  0.00    +0.000 A 
ATOM      2  C   UNL     1       2.199  12.051  18.264  0.00  0.00    +0.000 A 
ATOM      3  C   UNL     1       1.744  13.332  18.533  0.00  0.00    +0.000 A 
ATOM      4  C   UNL     1       0.494  13.488  19.111  0.00  0.00    +0.000 A 
ATOM      5  C   UNL     1      -0.291  12.369  19.411  0.00  0.00    +0.000 A 
ATOM      6  N   UNL     1       0.152  11.118  19.095  0.00  0.00    +0.000 N 
ATOM      7  C   UNL     1      -0.693   9.925  19.324  0.00  0.00    +0.000 C 
ENDROOT
BRANCH   1   9
ATOM      8  C   UNL     1       2.303   8.536  17.986  0.00  0.00    +0.000 C 
ATOM      9  C   UNL     1       1.877   9.643  18.192  0.00  0.00    +0.000 C 
BRANCH   8  13
ATOM     10  C   UNL     1       4.053   4.684  17.642  0.00  0.00    +0.000 A 
ATOM     11  C   UNL     1       4.758   5.823  17.256  0.00  0.00    +0.000 A 
ATOM     12  C   UNL     1       4.166   7.087  17.358  0.00  0.00    +0.000 A 
ATOM     13  C   UNL     1       2.863   7.224  17.843  0.00  0.00    +0.000 A 
ATOM     14  C   UNL     1       2.148   6.085  18.219  0.00  0.00    +0.000 A 
ATOM     15  C   UNL     1       2.746   4.822  18.118  0.00  0.00    +0.000 A 
BRANCH  10  17
ATOM     16  C   UNL     1       3.595   2.361  17.879  0.00  0.00    +0.000 C 
ATOM     17  O   UNL     1       4.528   3.403  17.608  0.00  0.00    +0.000 OA
ENDBRANCH  10  17
ENDBRANCH   8  13
ENDBRANCH   1   9
BRANCH   5  18
ATOM     18  C   UNL     1      -1.539  12.579  20.091  0.00  0.00    +0.000 C 
ATOM     19  C   UNL     1      -2.595  12.697  20.656  0.00  0.00    +0.000 C 
BRANCH  19  20
ATOM     20  C   UNL     1      -3.884  12.794  21.281  0.00  0.00    +0.000 A 
ATOM     21  C   UNL     1      -5.055  12.684  20.530  0.00  0.00    +0.000 A 
ATOM     22  C   UNL     1      -6.301  12.846  21.150  0.00  0.00    +0.000 A 
ATOM     23  C   UNL     1      -6.390  13.099  22.522  0.00  0.00    +0.000 A 
ATOM     24  C   UNL     1      -5.220  13.198  23.272  0.00  0.00    +0.000 A 
ATOM     25  C   UNL     1      -3.971  13.047  22.652  0.00  0.00    +0.000 A 
BRANCH  23  26
ATOM     26  O   UNL     1      -7.656  13.299  22.997  0.00  0.00    +0.000 OA
ATOM     27  C   UNL     1      -7.772  13.794  24.327  0.00  0.00    +0.000 C 
ENDBRANCH  23  26
ENDBRANCH  19  20
ENDBRANCH   5  18
TORSDOF 6
ENDMDL
MODEL 9
REMARK VINA RESULT:      -7.0      0.900     10.718
REMARK  Name = 
REMARK  9 active torsions:
REMARK  status: ('A' for Active; 'I' for Inactive)
REMARK    1  A    between atoms: C_1  and  O_2
REMARK    2  A    between atoms: O_2  and  C_3
REMARK    3  A    between atoms: C_6  and  C_7
REMARK    4  A    between atoms: C_8  and  C_9
REMARK    5  A    between atoms: C_13  and  C_14
REMARK    6  A    between atoms: C_15  and  C_16
REMARK    7  A    between atoms: C_19  and  O_20
REMARK    8  A    between atoms: O_20  and  C_21
REMARK    9  A    between atoms: N_24  and  C_25
REMARK                            x       y       z     vdW  Elec       q    Type
REMARK                         _______ _______ _______ _____ _____    ______ ____
ROOT
ATOM      1  C   UNL     1       3.361   4.203  18.866  0.00  0.00    +0.000 A 
ATOM      2  C   UNL     1       3.108   3.031  19.582  0.00  0.00    +0.000 A 
ATOM      3  C   UNL     1       2.364   3.078  20.749  0.00  0.00    +0.000 A 
ATOM      4  C   UNL     1       1.851   4.296  21.166  0.00  0.00    +0.000 A 
ATOM      5  C   UNL     1       2.089   5.455  20.419  0.00  0.00    +0.000 A 
ATOM      6  N   UNL     1       2.863   5.400  19.297  0.00  0.00    +0.000 N 
ATOM      7  C   UNL     1       3.199   6.623  18.537  0.00  0.00    +0.000 C 
ENDROOT
BRANCH   1   9
ATOM      8  C   UNL     1       4.860   4.133  16.695  0.00  0.00    +0.000 C 
ATOM      9  C   UNL     1       4.185   4.118  17.693  0.00  0.00    +0.000 C 
BRANCH   8  13
ATOM     10  C   UNL     1       6.977   4.530  13.039  0.00  0.00    +0.000 A 
ATOM     11  C   UNL     1       5.798   3.789  13.101  0.00  0.00    +0.000 A 
ATOM     12  C   UNL     1       5.116   3.651  14.315  0.00  0.00    +0.000 A 
ATOM     13  C   UNL     1       5.609   4.249  15.479  0.00  0.00    +0.000 A 
ATOM     14  C   UNL     1       6.796   4.981  15.424  0.00  0.00    +0.000 A 
ATOM     15  C   UNL     1       7.474   5.119  14.205  0.00  0.00    +0.000 A 
BRANCH  10  17
ATOM     16  C   UNL     1       7.895   6.109  11.512  0.00  0.00    +0.000 C 
ATOM     17  O   UNL     1       7.720   4.754  11.913  0.00  0.00    +0.000 OA
ENDBRANCH  10  17
ENDBRANCH   8  13
ENDBRANCH   1   9
BRANCH   5  18
ATOM     18  C   UNL     1       1.461   6.675  20.844  0.00  0.00    +0.000 C 
ATOM     19  C   UNL     1       0.895   7.690  21.157  0.00  0.00    +0.000 C 
BRANCH  19  20
ATOM     20  C   UNL     1       0.211   8.916  21.461  0.00  0.00    +0.000 A 
ATOM     21  C   UNL     1      -0.037   9.864  20.468  0.00  0.00    +0.000 A 
ATOM     22  C   UNL     1      -0.647  11.081  20.800  0.00  0.00    +0.000 A 
ATOM     23  C   UNL     1      -1.032  11.353  22.116  0.00  0.00    +0.000 A 
ATOM     24  C   UNL     1      -0.793  10.401  23.104  0.00  0.00    +0.000 A 
ATOM     25  C   UNL     1      -0.172   9.187  22.777  0.00  0.00    +0.000 A 
BRANCH  23  26
ATOM     26  O   UNL     1      -1.560  12.597  22.323  0.00  0.00    +0.000 OA
ATOM     27  C   UNL     1      -2.803  12.880  21.690  0.00  0.00    +0.000 C 
ENDBRANCH  23  26
ENDBRANCH  19  20
ENDBRANCH   5  18
TORSDOF 6
ENDMDL
