MODEL 1
REMARK VINA RESULT:      -7.1      0.000      0.000
REMARK  Name = 
REMARK  6 active torsions:
REMARK  status: ('A' for Active; 'I' for Inactive)
REMARK    1  A    between atoms: C_1  and  C_2
REMARK    2  A    between atoms: C_4  and  C_5
REMARK    3  A    between atoms: C_7  and  S_8
REMARK    4  A    between atoms: S_8  and  C_9
REMARK    5  A    between atoms: C_9  and  C_10
REMARK    6  A    between atoms: C_10  and  C_12
REMARK                            x       y       z     vdW  Elec       q    Type
REMARK                         _______ _______ _______ _____ _____    ______ ____
ROOT
ATOM      1  C   UNL     1       2.631   5.530  20.136  0.00  0.00    +0.000 C 
ATOM      2  O   UNL     1       1.948   5.022  21.015  0.00  0.00    +0.000 OA
ENDROOT
BRANCH   1   3
ATOM      3  C   UNL     1       2.231   6.866  19.603  0.00  0.00    +0.000 A 
ATOM      4  C   UNL     1       2.487   7.258  18.255  0.00  0.00    +0.000 A 
ATOM      5  C   UNL     1       2.134   8.549  17.806  0.00  0.00    +0.000 A 
ATOM      6  C   UNL     1       1.535   9.414  18.717  0.00  0.00    +0.000 A 
ATOM      7  C   UNL     1       1.280   9.047  19.987  0.00  0.00    +0.000 A 
ATOM      8  C   UNL     1       1.605   7.790  20.476  0.00  0.00    +0.000 A 
ATOM      9  O   UNL     1       0.713  10.065  20.639  0.00  0.00    +0.000 OA
ATOM     10  C   UNL     1       0.611  11.128  19.747  0.00  0.00    +0.000 C 
ATOM     11  O   UNL     1       1.133  10.676  18.536  0.00  0.00    +0.000 OA
ENDBRANCH   1   3
BRANCH   1  12
ATOM     12  C   UNL     1       3.871   4.808  19.664  0.00  0.00    +0.000 C 
BRANCH  12  13
ATOM     13  S   UNL     1       3.588   3.756  18.180  0.00  0.00    +0.000 S 
BRANCH  13  20
ATOM     14  C   UNL     1       6.275   3.884  13.717  0.00  0.00    +0.000 C 
ATOM     15  C   UNL     1       6.057   4.467  15.083  0.00  0.00    +0.000 A 
ATOM     16  C   UNL     1       6.859   5.514  15.549  0.00  0.00    +0.000 A 
ATOM     17  C   UNL     1       6.627   6.013  16.837  0.00  0.00    +0.000 A 
ATOM     18  C   UNL     1       7.457   7.122  17.397  0.00  0.00    +0.000 C 
ATOM     19  N   UNL     1       5.636   5.477  17.598  0.00  0.00    +0.000 NA
ATOM     20  C   UNL     1       4.859   4.469  17.130  0.00  0.00    +0.000 A 
ATOM     21  N   UNL     1       5.075   3.967  15.883  0.00  0.00    +0.000 NA
ENDBRANCH  13  20
ENDBRANCH  12  13
ENDBRANCH   1  12
TORSDOF 4
ENDMDL
MODEL 2
REMARK VINA RESULT:      -7.0      3.141      4.988
REMARK  Name = 
REMARK  6 active torsions:
REMARK  status: ('A' for Active; 'I' for Inactive)
REMARK    1  A    between atoms: C_1  and  C_2
REMARK    2  A    between atoms: C_4  and  C_5
REMARK    3  A    between atoms: C_7  and  S_8
REMARK    4  A    between atoms: S_8  and  C_9
REMARK    5  A    between atoms: C_9  and  C_10
REMARK    6  A    between atoms: C_10  and  C_12
REMARK                            x       y       z     vdW  Elec       q    Type
REMARK                         _______ _______ _______ _____ _____    ______ ____
ROOT
ATOM      1  C   UNL     1       4.072   6.138  17.543  0.00  0.00    +0.000 C 
ATOM      2  O   UNL     1       4.001   7.272  17.996  0.00  0.00    +0.000 OA
ENDROOT
BRANCH   1   3
ATOM      3  C   UNL     1       3.334   5.043  18.238  0.00  0.00    +0.000 A 
ATOM      4  C   UNL     1       2.696   3.981  17.529  0.00  0.00    +0.000 A 
ATOM      5  C   UNL     1       1.969   2.991  18.224  0.00  0.00    +0.000 A 
ATOM      6  C   UNL     1       1.899   3.089  19.611  0.00  0.00    +0.000 A 
ATOM      7  C   UNL     1       2.507   4.081  20.288  0.00  0.00    +0.000 A 
ATOM      8  C   UNL     1       3.235   5.075  19.651  0.00  0.00    +0.000 A 
ATOM      9  O   UNL     1       2.272   3.938  21.594  0.00  0.00    +0.000 OA
ATOM     10  C   UNL     1       1.471   2.811  21.754  0.00  0.00    +0.000 C 
ATOM     11  O   UNL     1       1.262   2.294  20.476  0.00  0.00    +0.000 OA
ENDBRANCH   1   3
BRANCH   1  12
ATOM     12  C   UNL     1       4.863   5.905  16.277  0.00  0.00    +0.000 C 
BRANCH  12  13
ATOM     13  S   UNL     1       6.147   4.597  16.443  0.00  0.00    +0.000 S 
BRANCH  13  20
ATOM     14  C   UNL     1       8.962   6.219  12.369  0.00  0.00    +0.000 C 
ATOM     15  C   UNL     1       7.912   5.283  12.892  0.00  0.00    +0.000 A 
ATOM     16  C   UNL     1       7.273   4.378  12.038  0.00  0.00    +0.000 A 
ATOM     17  C   UNL     1       6.287   3.537  12.570  0.00  0.00    +0.000 A 
ATOM     18  C   UNL     1       5.559   2.558  11.709  0.00  0.00    +0.000 C 
ATOM     19  N   UNL     1       5.977   3.615  13.893  0.00  0.00    +0.000 NA
ATOM     20  C   UNL     1       6.612   4.490  14.711  0.00  0.00    +0.000 A 
ATOM     21  N   UNL     1       7.568   5.320  14.209  0.00  0.00    +0.000 NA
ENDBRANCH  13  20
ENDBRANCH  12  13
ENDBRANCH   1  12
TORSDOF 4
ENDMDL
MODEL 3
REMARK VINA RESULT:      -7.0      1.060      1.133
REMARK  Name = 
REMARK  6 active torsions:
REMARK  status: ('A' for Active; 'I' for Inactive)
REMARK    1  A    between atoms: C_1  and  C_2
REMARK    2  A    between atoms: C_4  and  C_5
REMARK    3  A    between atoms: C_7  and  S_8
REMARK    4  A    between atoms: S_8  and  C_9
REMARK    5  A    between atoms: C_9  and  C_10
REMARK    6  A    between atoms: C_10  and  C_12
REMARK                            x       y       z     vdW  Elec       q    Type
REMARK                         _______ _______ _______ _____ _____    ______ ____
ROOT
ATOM      1  C   UNL     1       2.357   5.125  19.961  0.00  0.00    +0.000 C 
ATOM      2  O   UNL     1       2.617   4.935  21.140  0.00  0.00    +0.000 OA
ENDROOT
BRANCH   1   3
ATOM      3  C   UNL     1       2.134   6.526  19.494  0.00  0.00    +0.000 A 
ATOM      4  C   UNL     1       2.528   6.971  18.197  0.00  0.00    +0.000 A 
ATOM      5  C   UNL     1       2.339   8.317  17.815  0.00  0.00    +0.000 A 
ATOM      6  C   UNL     1       1.762   9.182  18.740  0.00  0.00    +0.000 A 
ATOM      7  C   UNL     1       1.377   8.766  19.961  0.00  0.00    +0.000 A 
ATOM      8  C   UNL     1       1.538   7.455  20.383  0.00  0.00    +0.000 A 
ATOM      9  O   UNL     1       0.866   9.796  20.640  0.00  0.00    +0.000 OA
ATOM     10  C   UNL     1       0.937  10.916  19.819  0.00  0.00    +0.000 C 
ATOM     11  O   UNL     1       1.503  10.487  18.619  0.00  0.00    +0.000 OA
ENDBRANCH   1   3
BRANCH   1  12
ATOM     12  C   UNL     1       2.319   3.943  19.020  0.00  0.00    +0.000 C 
BRANCH  12  13
ATOM     13  S   UNL     1       3.770   2.823  19.188  0.00  0.00    +0.000 S 
BRANCH  13  20
ATOM     14  C   UNL     1       5.729   4.769  14.768  0.00  0.00    +0.000 C 
ATOM     15  C   UNL     1       5.818   4.680  16.264  0.00  0.00    +0.000 A 
ATOM     16  C   UNL     1       6.841   5.335  16.958  0.00  0.00    +0.000 A 
ATOM     17  C   UNL     1       6.892   5.208  18.351  0.00  0.00    +0.000 A 
ATOM     18  C   UNL     1       7.966   5.873  19.149  0.00  0.00    +0.000 C 
ATOM     19  N   UNL     1       5.956   4.460  18.994  0.00  0.00    +0.000 NA
ATOM     20  C   UNL     1       4.963   3.838  18.310  0.00  0.00    +0.000 A 
ATOM     21  N   UNL     1       4.903   3.945  16.954  0.00  0.00    +0.000 NA
ENDBRANCH  13  20
ENDBRANCH  12  13
ENDBRANCH   1  12
TORSDOF 4
ENDMDL
MODEL 4
REMARK VINA RESULT:      -7.0      3.045      4.501
REMARK  Name = 
REMARK  6 active torsions:
REMARK  status: ('A' for Active; 'I' for Inactive)
REMARK    1  A    between atoms: C_1  and  C_2
REMARK    2  A    between atoms: C_4  and  C_5
REMARK    3  A    between atoms: C_7  and  S_8
REMARK    4  A    between atoms: S_8  and  C_9
REMARK    5  A    between atoms: C_9  and  C_10
REMARK    6  A    between atoms: C_10  and  C_12
REMARK                            x       y       z     vdW  Elec       q    Type
REMARK                         _______ _______ _______ _____ _____    ______ ____
ROOT
ATOM      1  C   UNL     1       4.222   6.330  17.473  0.00  0.00    +0.000 C 
ATOM      2  O   UNL     1       3.731   7.415  17.197  0.00  0.00    +0.000 OA
ENDROOT
BRANCH   1   3
ATOM      3  C   UNL     1       3.370   5.314  18.160  0.00  0.00    +0.000 A 
ATOM      4  C   UNL     1       2.426   4.507  17.457  0.00  0.00    +0.000 A 
ATOM      5  C   UNL     1       1.608   3.592  18.153  0.00  0.00    +0.000 A 
ATOM      6  C   UNL     1       1.755   3.507  19.534  0.00  0.00    +0.000 A 
ATOM      7  C   UNL     1       2.651   4.256  20.203  0.00  0.00    +0.000 A 
ATOM      8  C   UNL     1       3.480   5.168  19.565  0.00  0.00    +0.000 A 
ATOM      9  O   UNL     1       2.576   3.981  21.507  0.00  0.00    +0.000 OA
ATOM     10  C   UNL     1       1.582   3.022  21.676  0.00  0.00    +0.000 C 
ATOM     11  O   UNL     1       1.090   2.739  20.403  0.00  0.00    +0.000 OA
ENDBRANCH   1   3
BRANCH   1  12
ATOM     12  C   UNL     1       5.650   6.048  17.068  0.00  0.00    +0.000 C 
BRANCH  12  13
ATOM     13  S   UNL     1       5.996   4.262  16.788  0.00  0.00    +0.000 S 
BRANCH  13  20
ATOM     14  C   UNL     1       5.172   2.836  11.844  0.00  0.00    +0.000 C 
ATOM     15  C   UNL     1       5.972   3.661  12.809  0.00  0.00    +0.000 A 
ATOM     16  C   UNL     1       7.033   4.455  12.361  0.00  0.00    +0.000 A 
ATOM     17  C   UNL     1       7.761   5.194  13.302  0.00  0.00    +0.000 A 
ATOM     18  C   UNL     1       8.912   6.051  12.889  0.00  0.00    +0.000 C 
ATOM     19  N   UNL     1       7.423   5.127  14.618  0.00  0.00    +0.000 NA
ATOM     20  C   UNL     1       6.386   4.361  15.038  0.00  0.00    +0.000 A 
ATOM     21  N   UNL     1       5.672   3.630  14.137  0.00  0.00    +0.000 NA
ENDBRANCH  13  20
ENDBRANCH  12  13
ENDBRANCH   1  12
TORSDOF 4
ENDMDL
MODEL 5
REMARK VINA RESULT:      -7.0      3.365      6.602
REMARK  Name = 
REMARK  6 active torsions:
REMARK  status: ('A' for Active; 'I' for Inactive)
REMARK    1  A    between atoms: C_1  and  C_2
REMARK    2  A    between atoms: C_4  and  C_5
REMARK    3  A    between atoms: C_7  and  S_8
REMARK    4  A    between atoms: S_8  and  C_9
REMARK    5  A    between atoms: C_9  and  C_10
REMARK    6  A    between atoms: C_10  and  C_12
REMARK                            x       y       z     vdW  Elec       q    Type
REMARK                         _______ _______ _______ _____ _____    ______ ____
ROOT
ATOM      1  C   UNL     1       3.935   3.157  19.249  0.00  0.00    +0.000 C 
ATOM      2  O   UNL     1       4.331   2.225  19.934  0.00  0.00    +0.000 OA
ENDROOT
BRANCH   1   3
ATOM      3  C   UNL     1       4.907   3.851  18.354  0.00  0.00    +0.000 A 
ATOM      4  C   UNL     1       5.766   4.891  18.819  0.00  0.00    +0.000 A 
ATOM      5  C   UNL     1       6.638   5.552  17.928  0.00  0.00    +0.000 A 
ATOM      6  C   UNL     1       6.627   5.157  16.594  0.00  0.00    +0.000 A 
ATOM      7  C   UNL     1       5.827   4.169  16.149  0.00  0.00    +0.000 A 
ATOM      8  C   UNL     1       4.956   3.487  16.986  0.00  0.00    +0.000 A 
ATOM      9  O   UNL     1       6.013   4.002  14.838  0.00  0.00    +0.000 OA
ATOM     10  C   UNL     1       6.965   4.931  14.429  0.00  0.00    +0.000 C 
ATOM     11  O   UNL     1       7.338   5.639  15.570  0.00  0.00    +0.000 OA
ENDBRANCH   1   3
BRANCH   1  12
ATOM     12  C   UNL     1       2.472   3.535  19.304  0.00  0.00    +0.000 C 
BRANCH  12  13
ATOM     13  S   UNL     1       1.949   4.215  20.932  0.00  0.00    +0.000 S 
BRANCH  13  20
ATOM     14  C   UNL     1       0.410   9.117  21.802  0.00  0.00    +0.000 C 
ATOM     15  C   UNL     1       1.134   8.155  20.905  0.00  0.00    +0.000 A 
ATOM     16  C   UNL     1       1.698   8.589  19.701  0.00  0.00    +0.000 A 
ATOM     17  C   UNL     1       2.348   7.651  18.889  0.00  0.00    +0.000 A 
ATOM     18  C   UNL     1       2.961   8.048  17.586  0.00  0.00    +0.000 C 
ATOM     19  N   UNL     1       2.418   6.351  19.286  0.00  0.00    +0.000 NA
ATOM     20  C   UNL     1       1.875   5.946  20.461  0.00  0.00    +0.000 A 
ATOM     21  N   UNL     1       1.234   6.844  21.258  0.00  0.00    +0.000 NA
ENDBRANCH  13  20
ENDBRANCH  12  13
ENDBRANCH   1  12
TORSDOF 4
ENDMDL
MODEL 6
REMARK VINA RESULT:      -7.0      3.106      4.806
REMARK  Name = 
REMARK  6 active torsions:
REMARK  status: ('A' for Active; 'I' for Inactive)
REMARK    1  A    between atoms: C_1  and  C_2
REMARK    2  A    between atoms: C_4  and  C_5
REMARK    3  A    between atoms: C_7  and  S_8
REMARK    4  A    between atoms: S_8  and  C_9
REMARK    5  A    between atoms: C_9  and  C_10
REMARK    6  A    between atoms: C_10  and  C_12
REMARK                            x       y       z     vdW  Elec       q    Type
REMARK                         _______ _______ _______ _____ _____    ______ ____
ROOT
ATOM      1  C   UNL     1       4.994   6.272  16.644  0.00  0.00    +0.000 C 
ATOM      2  O   UNL     1       4.701   6.886  15.627  0.00  0.00    +0.000 OA
ENDROOT
BRANCH   1   3
ATOM      3  C   UNL     1       3.895   5.680  17.463  0.00  0.00    +0.000 A 
ATOM      4  C   UNL     1       3.360   6.336  18.612  0.00  0.00    +0.000 A 
ATOM      5  C   UNL     1       2.353   5.720  19.385  0.00  0.00    +0.000 A 
ATOM      6  C   UNL     1       1.908   4.462  18.989  0.00  0.00    +0.000 A 
ATOM      7  C   UNL     1       2.399   3.842  17.900  0.00  0.00    +0.000 A 
ATOM      8  C   UNL     1       3.386   4.407  17.106  0.00  0.00    +0.000 A 
ATOM      9  O   UNL     1       1.804   2.655  17.757  0.00  0.00    +0.000 OA
ATOM     10  C   UNL     1       0.902   2.510  18.807  0.00  0.00    +0.000 C 
ATOM     11  O   UNL     1       0.989   3.679  19.562  0.00  0.00    +0.000 OA
ENDBRANCH   1   3
BRANCH   1  12
ATOM     12  C   UNL     1       6.452   6.100  17.000  0.00  0.00    +0.000 C 
BRANCH  12  13
ATOM     13  S   UNL     1       7.096   4.409  16.663  0.00  0.00    +0.000 S 
BRANCH  13  20
ATOM     14  C   UNL     1       5.317   2.736  12.060  0.00  0.00    +0.000 C 
ATOM     15  C   UNL     1       6.223   3.673  12.805  0.00  0.00    +0.000 A 
ATOM     16  C   UNL     1       7.060   4.556  12.115  0.00  0.00    +0.000 A 
ATOM     17  C   UNL     1       7.900   5.398  12.854  0.00  0.00    +0.000 A 
ATOM     18  C   UNL     1       8.825   6.355  12.176  0.00  0.00    +0.000 C 
ATOM     19  N   UNL     1       7.883   5.341  14.213  0.00  0.00    +0.000 NA
ATOM     20  C   UNL     1       7.060   4.487  14.869  0.00  0.00    +0.000 A 
ATOM     21  N   UNL     1       6.241   3.656  14.166  0.00  0.00    +0.000 NA
ENDBRANCH  13  20
ENDBRANCH  12  13
ENDBRANCH   1  12
TORSDOF 4
ENDMDL
MODEL 7
REMARK VINA RESULT:      -7.0      3.160      4.676
REMARK  Name = 
REMARK  6 active torsions:
REMARK  status: ('A' for Active; 'I' for Inactive)
REMARK    1  A    between atoms: C_1  and  C_2
REMARK    2  A    between atoms: C_4  and  C_5
REMARK    3  A    between atoms: C_7  and  S_8
REMARK    4  A    between atoms: S_8  and  C_9
REMARK    5  A    between atoms: C_9  and  C_10
REMARK    6  A    between atoms: C_10  and  C_12
REMARK                            x       y       z     vdW  Elec       q    Type
REMARK                         _______ _______ _______ _____ _____    ______ ____
ROOT
ATOM      1  C   UNL     1       6.228   4.983  18.606  0.00  0.00    +0.000 C 
ATOM      2  O   UNL     1       7.141   5.254  19.373  0.00  0.00    +0.000 OA
ENDROOT
BRANCH   1   3
ATOM      3  C   UNL     1       4.845   4.861  19.156  0.00  0.00    +0.000 A 
ATOM      4  C   UNL     1       3.977   5.985  19.298  0.00  0.00    +0.000 A 
ATOM      5  C   UNL     1       2.694   5.831  19.866  0.00  0.00    +0.000 A 
ATOM      6  C   UNL     1       2.313   4.558  20.278  0.00  0.00    +0.000 A 
ATOM      7  C   UNL     1       3.121   3.490  20.136  0.00  0.00    +0.000 A 
ATOM      8  C   UNL     1       4.390   3.589  19.582  0.00  0.00    +0.000 A 
ATOM      9  O   UNL     1       2.513   2.404  20.617  0.00  0.00    +0.000 OA
ATOM     10  C   UNL     1       1.267   2.799  21.094  0.00  0.00    +0.000 C 
ATOM     11  O   UNL     1       1.171   4.169  20.853  0.00  0.00    +0.000 OA
ENDBRANCH   1   3
BRANCH   1  12
ATOM     12  C   UNL     1       6.530   4.830  17.134  0.00  0.00    +0.000 C 
BRANCH  12  13
ATOM     13  S   UNL     1       5.043   4.467  16.112  0.00  0.00    +0.000 S 
BRANCH  13  20
ATOM     14  C   UNL     1       5.595   2.304  11.403  0.00  0.00    +0.000 C 
ATOM     15  C   UNL     1       6.074   3.325  12.394  0.00  0.00    +0.000 A 
ATOM     16  C   UNL     1       7.169   4.144  12.101  0.00  0.00    +0.000 A 
ATOM     17  C   UNL     1       7.590   5.070  13.065  0.00  0.00    +0.000 A 
ATOM     18  C   UNL     1       8.760   5.964  12.818  0.00  0.00    +0.000 C 
ATOM     19  N   UNL     1       6.930   5.153  14.251  0.00  0.00    +0.000 NA
ATOM     20  C   UNL     1       5.863   4.359  14.518  0.00  0.00    +0.000 A 
ATOM     21  N   UNL     1       5.445   3.449  13.595  0.00  0.00    +0.000 NA
ENDBRANCH  13  20
ENDBRANCH  12  13
ENDBRANCH   1  12
TORSDOF 4
ENDMDL
MODEL 8
REMARK VINA RESULT:      -6.9      1.382      1.939
REMARK  Name = 
REMARK  6 active torsions:
REMARK  status: ('A' for Active; 'I' for Inactive)
REMARK    1  A    between atoms: C_1  and  C_2
REMARK    2  A    between atoms: C_4  and  C_5
REMARK    3  A    between atoms: C_7  and  S_8
REMARK    4  A    between atoms: S_8  and  C_9
REMARK    5  A    between atoms: C_9  and  C_10
REMARK    6  A    between atoms: C_10  and  C_12
REMARK                            x       y       z     vdW  Elec       q    Type
REMARK                         _______ _______ _______ _____ _____    ______ ____
ROOT
ATOM      1  C   UNL     1       2.288   4.703  19.141  0.00  0.00    +0.000 C 
ATOM      2  O   UNL     1       1.776   4.152  18.176  0.00  0.00    +0.000 OA
ENDROOT
BRANCH   1   3
ATOM      3  C   UNL     1       2.081   6.171  19.319  0.00  0.00    +0.000 A 
ATOM      4  C   UNL     1       1.645   6.736  20.554  0.00  0.00    +0.000 A 
ATOM      5  C   UNL     1       1.417   8.125  20.665  0.00  0.00    +0.000 A 
ATOM      6  C   UNL     1       1.630   8.912  19.537  0.00  0.00    +0.000 A 
ATOM      7  C   UNL     1       2.052   8.387  18.372  0.00  0.00    +0.000 A 
ATOM      8  C   UNL     1       2.293   7.030  18.213  0.00  0.00    +0.000 A 
ATOM      9  O   UNL     1       2.166   9.358  17.462  0.00  0.00    +0.000 OA
ATOM     10  C   UNL     1       1.791  10.550  18.074  0.00  0.00    +0.000 C 
ATOM     11  O   UNL     1       1.466  10.230  19.391  0.00  0.00    +0.000 OA
ENDBRANCH   1   3
BRANCH   1  12
ATOM     12  C   UNL     1       3.067   3.870  20.132  0.00  0.00    +0.000 C 
BRANCH  12  13
ATOM     13  S   UNL     1       4.171   2.629  19.340  0.00  0.00    +0.000 S 
BRANCH  13  20
ATOM     14  C   UNL     1       5.580   4.757  14.796  0.00  0.00    +0.000 C 
ATOM     15  C   UNL     1       5.781   4.691  16.282  0.00  0.00    +0.000 A 
ATOM     16  C   UNL     1       6.763   5.469  16.905  0.00  0.00    +0.000 A 
ATOM     17  C   UNL     1       6.925   5.360  18.292  0.00  0.00    +0.000 A 
ATOM     18  C   UNL     1       7.964   6.154  19.013  0.00  0.00    +0.000 C 
ATOM     19  N   UNL     1       6.129   4.511  18.997  0.00  0.00    +0.000 NA
ATOM     20  C   UNL     1       5.174   3.771  18.382  0.00  0.00    +0.000 A 
ATOM     21  N   UNL     1       5.008   3.859  17.034  0.00  0.00    +0.000 NA
ENDBRANCH  13  20
ENDBRANCH  12  13
ENDBRANCH   1  12
TORSDOF 4
ENDMDL
MODEL 9
REMARK VINA RESULT:      -6.9      1.040      2.144
REMARK  Name = 
REMARK  6 active torsions:
REMARK  status: ('A' for Active; 'I' for Inactive)
REMARK    1  A    between atoms: C_1  and  C_2
REMARK    2  A    between atoms: C_4  and  C_5
REMARK    3  A    between atoms: C_7  and  S_8
REMARK    4  A    between atoms: S_8  and  C_9
REMARK    5  A    between atoms: C_9  and  C_10
REMARK    6  A    between atoms: C_10  and  C_12
REMARK                            x       y       z     vdW  Elec       q    Type
REMARK                         _______ _______ _______ _____ _____    ______ ____
ROOT
ATOM      1  C   UNL     1       2.630   5.674  18.855  0.00  0.00    +0.000 C 
ATOM      2  O   UNL     1       2.156   4.965  17.979  0.00  0.00    +0.000 OA
ENDROOT
BRANCH   1   3
ATOM      3  C   UNL     1       2.155   7.085  18.968  0.00  0.00    +0.000 A 
ATOM      4  C   UNL     1       2.155   7.982  17.859  0.00  0.00    +0.000 A 
ATOM      5  C   UNL     1       1.741   9.322  18.021  0.00  0.00    +0.000 A 
ATOM      6  C   UNL     1       1.338   9.729  19.289  0.00  0.00    +0.000 A 
ATOM      7  C   UNL     1       1.325   8.886  20.338  0.00  0.00    +0.000 A 
ATOM      8  C   UNL     1       1.720   7.560  20.230  0.00  0.00    +0.000 A 
ATOM      9  O   UNL     1       0.905   9.535  21.427  0.00  0.00    +0.000 OA
ATOM     10  C   UNL     1       0.650  10.852  21.055  0.00  0.00    +0.000 C 
ATOM     11  O   UNL     1       0.927  10.935  19.692  0.00  0.00    +0.000 OA
ENDBRANCH   1   3
BRANCH   1  12
ATOM     12  C   UNL     1       3.639   5.080  19.812  0.00  0.00    +0.000 C 
BRANCH  12  13
ATOM     13  S   UNL     1       4.480   3.581  19.155  0.00  0.00    +0.000 S 
BRANCH  13  20
ATOM     14  C   UNL     1       7.648   7.419  17.609  0.00  0.00    +0.000 C 
ATOM     15  C   UNL     1       6.898   6.170  17.247  0.00  0.00    +0.000 A 
ATOM     16  C   UNL     1       6.931   5.672  15.940  0.00  0.00    +0.000 A 
ATOM     17  C   UNL     1       6.201   4.513  15.647  0.00  0.00    +0.000 A 
ATOM     18  C   UNL     1       6.185   3.938  14.269  0.00  0.00    +0.000 C 
ATOM     19  N   UNL     1       5.485   3.902  16.629  0.00  0.00    +0.000 NA
ATOM     20  C   UNL     1       5.471   4.390  17.894  0.00  0.00    +0.000 A 
ATOM     21  N   UNL     1       6.169   5.519  18.195  0.00  0.00    +0.000 NA
ENDBRANCH  13  20
ENDBRANCH  12  13
ENDBRANCH   1  12
TORSDOF 4
ENDMDL
