MODEL 1
REMARK VINA RESULT:      -8.1      0.000      0.000
REMARK  Name = 
REMARK  5 active torsions:
REMARK  status: ('A' for Active; 'I' for Inactive)
REMARK    1  A    between atoms: C_1  and  C_2
REMARK    2  A    between atoms: C_2  and  C_3
REMARK    3  A    between atoms: C_2  and  N_4
REMARK    4  A    between atoms: C_5  and  C_6
REMARK    5  A    between atoms: C_6  and  N_7
REMARK                            x       y       z     vdW  Elec       q    Type
REMARK                         _______ _______ _______ _____ _____    ______ ____
ROOT
ATOM      1  N   UNL     1       6.499   5.357  16.450  0.00  0.00    +0.000 N 
ATOM      2  C   UNL     1       5.245   4.857  16.772  0.00  0.00    +0.000 A 
ATOM      3  N   UNL     1       4.749   4.174  15.753  0.00  0.00    +0.000 NA
ATOM      4  C   UNL     1       5.642   4.288  14.727  0.00  0.00    +0.000 A 
ATOM      5  C   UNL     1       5.555   3.814  13.410  0.00  0.00    +0.000 A 
ATOM      6  C   UNL     1       6.604   4.086  12.524  0.00  0.00    +0.000 A 
ATOM      7  C   UNL     1       7.716   4.814  12.944  0.00  0.00    +0.000 A 
ATOM      8  C   UNL     1       7.815   5.294  14.254  0.00  0.00    +0.000 A 
ATOM      9  C   UNL     1       6.753   5.014  15.127  0.00  0.00    +0.000 A 
ENDROOT
BRANCH   1  11
ATOM     10  C   UNL     1       6.968   7.659  17.219  0.00  0.00    +0.000 C 
ATOM     11  C   UNL     1       7.419   6.197  17.215  0.00  0.00    +0.000 C 
ATOM     12  C   UNL     1       7.792   5.704  18.608  0.00  0.00    +0.000 C 
ENDBRANCH   1  11
BRANCH   2  13
ATOM     13  C   UNL     1       4.429   5.143  17.990  0.00  0.00    +0.000 C 
BRANCH  13  14
ATOM     14  N   UNL     1       4.119   4.027  18.872  0.00  0.00    +0.000 N 
ATOM     15  N   UNL     1       5.159   3.244  19.252  0.00  0.00    +0.000 NA
ATOM     16  N   UNL     1       4.769   2.513  20.283  0.00  0.00    +0.000 NA
ATOM     17  C   UNL     1       3.451   2.797  20.523  0.00  0.00    +0.000 A 
ATOM     18  C   UNL     1       2.588   2.317  21.521  0.00  0.00    +0.000 A 
ATOM     19  C   UNL     1       1.263   2.766  21.532  0.00  0.00    +0.000 A 
ATOM     20  C   UNL     1       0.804   3.652  20.556  0.00  0.00    +0.000 A 
ATOM     21  C   UNL     1       1.658   4.162  19.572  0.00  0.00    +0.000 A 
ATOM     22  C   UNL     1       2.988   3.725  19.590  0.00  0.00    +0.000 A 
ENDBRANCH  13  14
ENDBRANCH   2  13
TORSDOF 3
ENDMDL
MODEL 2
REMARK VINA RESULT:      -7.7      1.972      6.953
REMARK  Name = 
REMARK  5 active torsions:
REMARK  status: ('A' for Active; 'I' for Inactive)
REMARK    1  A    between atoms: C_1  and  C_2
REMARK    2  A    between atoms: C_2  and  C_3
REMARK    3  A    between atoms: C_2  and  N_4
REMARK    4  A    between atoms: C_5  and  C_6
REMARK    5  A    between atoms: C_6  and  N_7
REMARK                            x       y       z     vdW  Elec       q    Type
REMARK                         _______ _______ _______ _____ _____    ______ ____
ROOT
ATOM      1  N   UNL     1       3.322   4.597  18.909  0.00  0.00    +0.000 N 
ATOM      2  C   UNL     1       3.919   4.942  17.704  0.00  0.00    +0.000 A 
ATOM      3  N   UNL     1       3.745   6.231  17.459  0.00  0.00    +0.000 NA
ATOM      4  C   UNL     1       2.964   6.723  18.464  0.00  0.00    +0.000 A 
ATOM      5  C   UNL     1       2.430   8.009  18.633  0.00  0.00    +0.000 A 
ATOM      6  C   UNL     1       1.625   8.265  19.748  0.00  0.00    +0.000 A 
ATOM      7  C   UNL     1       1.359   7.260  20.676  0.00  0.00    +0.000 A 
ATOM      8  C   UNL     1       1.882   5.972  20.519  0.00  0.00    +0.000 A 
ATOM      9  C   UNL     1       2.685   5.733  19.394  0.00  0.00    +0.000 A 
ENDROOT
BRANCH   1  11
ATOM     10  C   UNL     1       2.081   2.460  18.981  0.00  0.00    +0.000 C 
ATOM     11  C   UNL     1       3.206   3.306  19.584  0.00  0.00    +0.000 C 
ATOM     12  C   UNL     1       4.495   2.512  19.760  0.00  0.00    +0.000 C 
ENDBRANCH   1  11
BRANCH   2  13
ATOM     13  C   UNL     1       4.532   4.031  16.691  0.00  0.00    +0.000 C 
BRANCH  13  14
ATOM     14  N   UNL     1       5.484   4.609  15.753  0.00  0.00    +0.000 N 
ATOM     15  N   UNL     1       6.438   5.420  16.274  0.00  0.00    +0.000 NA
ATOM     16  N   UNL     1       7.386   5.578  15.366  0.00  0.00    +0.000 NA
ATOM     17  C   UNL     1       7.001   4.905  14.237  0.00  0.00    +0.000 A 
ATOM     18  C   UNL     1       7.666   4.734  13.013  0.00  0.00    +0.000 A 
ATOM     19  C   UNL     1       7.033   4.000  12.004  0.00  0.00    +0.000 A 
ATOM     20  C   UNL     1       5.757   3.471  12.204  0.00  0.00    +0.000 A 
ATOM     21  C   UNL     1       5.092   3.607  13.428  0.00  0.00    +0.000 A 
ATOM     22  C   UNL     1       5.750   4.321  14.436  0.00  0.00    +0.000 A 
ENDBRANCH  13  14
ENDBRANCH   2  13
TORSDOF 3
ENDMDL
MODEL 3
REMARK VINA RESULT:      -7.4      3.058      4.748
REMARK  Name = 
REMARK  5 active torsions:
REMARK  status: ('A' for Active; 'I' for Inactive)
REMARK    1  A    between atoms: C_1  and  C_2
REMARK    2  A    between atoms: C_2  and  C_3
REMARK    3  A    between atoms: C_2  and  N_4
REMARK    4  A    between atoms: C_5  and  C_6
REMARK    5  A    between atoms: C_6  and  N_7
REMARK                            x       y       z     vdW  Elec       q    Type
REMARK                         _______ _______ _______ _____ _____    ______ ____
ROOT
ATOM      1  N   UNL     1       3.887   4.420  17.374  0.00  0.00    +0.000 N 
ATOM      2  C   UNL     1       4.248   5.282  18.400  0.00  0.00    +0.000 A 
ATOM      3  N   UNL     1       5.378   5.902  18.101  0.00  0.00    +0.000 NA
ATOM      4  C   UNL     1       5.808   5.391  16.911  0.00  0.00    +0.000 A 
ATOM      5  C   UNL     1       6.988   5.654  16.199  0.00  0.00    +0.000 A 
ATOM      6  C   UNL     1       7.217   4.972  14.999  0.00  0.00    +0.000 A 
ATOM      7  C   UNL     1       6.290   4.050  14.518  0.00  0.00    +0.000 A 
ATOM      8  C   UNL     1       5.111   3.776  15.219  0.00  0.00    +0.000 A 
ATOM      9  C   UNL     1       4.898   4.466  16.421  0.00  0.00    +0.000 A 
ENDROOT
BRANCH   1  11
ATOM     10  C   UNL     1       3.040   2.176  17.971  0.00  0.00    +0.000 C 
ATOM     11  C   UNL     1       2.760   3.497  17.251  0.00  0.00    +0.000 C 
ATOM     12  C   UNL     1       1.383   4.057  17.587  0.00  0.00    +0.000 C 
ENDBRANCH   1  11
BRANCH   2  13
ATOM     13  C   UNL     1       3.613   5.424  19.744  0.00  0.00    +0.000 C 
BRANCH  13  14
ATOM     14  N   UNL     1       2.540   6.398  19.885  0.00  0.00    +0.000 N 
ATOM     15  N   UNL     1       1.793   6.323  21.015  0.00  0.00    +0.000 NA
ATOM     16  N   UNL     1       1.111   7.450  21.134  0.00  0.00    +0.000 NA
ATOM     17  C   UNL     1       1.388   8.225  20.040  0.00  0.00    +0.000 A 
ATOM     18  C   UNL     1       0.949   9.517  19.710  0.00  0.00    +0.000 A 
ATOM     19  C   UNL     1       1.378  10.082  18.504  0.00  0.00    +0.000 A 
ATOM     20  C   UNL     1       2.206   9.364  17.638  0.00  0.00    +0.000 A 
ATOM     21  C   UNL     1       2.675   8.088  17.965  0.00  0.00    +0.000 A 
ATOM     22  C   UNL     1       2.259   7.547  19.186  0.00  0.00    +0.000 A 
ENDBRANCH  13  14
ENDBRANCH   2  13
TORSDOF 3
ENDMDL
MODEL 4
REMARK VINA RESULT:      -7.0      2.072      3.065
REMARK  Name = 
REMARK  5 active torsions:
REMARK  status: ('A' for Active; 'I' for Inactive)
REMARK    1  A    between atoms: C_1  and  C_2
REMARK    2  A    between atoms: C_2  and  C_3
REMARK    3  A    between atoms: C_2  and  N_4
REMARK    4  A    between atoms: C_5  and  C_6
REMARK    5  A    between atoms: C_6  and  N_7
REMARK                            x       y       z     vdW  Elec       q    Type
REMARK                         _______ _______ _______ _____ _____    ______ ____
ROOT
ATOM      1  N   UNL     1       6.613   4.979  17.400  0.00  0.00    +0.000 N 
ATOM      2  C   UNL     1       5.497   4.341  17.922  0.00  0.00    +0.000 A 
ATOM      3  N   UNL     1       4.860   3.679  16.969  0.00  0.00    +0.000 NA
ATOM      4  C   UNL     1       5.510   3.945  15.800  0.00  0.00    +0.000 A 
ATOM      5  C   UNL     1       5.194   3.550  14.491  0.00  0.00    +0.000 A 
ATOM      6  C   UNL     1       6.012   3.979  13.441  0.00  0.00    +0.000 A 
ATOM      7  C   UNL     1       7.124   4.783  13.689  0.00  0.00    +0.000 A 
ATOM      8  C   UNL     1       7.450   5.186  14.989  0.00  0.00    +0.000 A 
ATOM      9  C   UNL     1       6.616   4.749  16.030  0.00  0.00    +0.000 A 
ENDROOT
BRANCH   1  11
ATOM     10  C   UNL     1       7.355   7.321  17.672  0.00  0.00    +0.000 C 
ATOM     11  C   UNL     1       7.598   5.854  18.033  0.00  0.00    +0.000 C 
ATOM     12  C   UNL     1       7.822   5.656  19.527  0.00  0.00    +0.000 C 
ENDBRANCH   1  11
BRANCH   2  13
ATOM     13  C   UNL     1       4.927   4.468  19.297  0.00  0.00    +0.000 C 
BRANCH  13  14
ATOM     14  N   UNL     1       3.684   5.210  19.448  0.00  0.00    +0.000 N 
ATOM     15  N   UNL     1       2.884   4.856  20.484  0.00  0.00    +0.000 NA
ATOM     16  N   UNL     1       1.997   5.819  20.668  0.00  0.00    +0.000 NA
ATOM     17  C   UNL     1       2.202   6.768  19.703  0.00  0.00    +0.000 A 
ATOM     18  C   UNL     1       1.555   7.994  19.486  0.00  0.00    +0.000 A 
ATOM     19  C   UNL     1       1.957   8.780  18.400  0.00  0.00    +0.000 A 
ATOM     20  C   UNL     1       2.965   8.341  17.539  0.00  0.00    +0.000 A 
ATOM     21  C   UNL     1       3.640   7.136  17.759  0.00  0.00    +0.000 A 
ATOM     22  C   UNL     1       3.245   6.373  18.864  0.00  0.00    +0.000 A 
ENDBRANCH  13  14
ENDBRANCH   2  13
TORSDOF 3
ENDMDL
MODEL 5
REMARK VINA RESULT:      -7.0      1.180      1.658
REMARK  Name = 
REMARK  5 active torsions:
REMARK  status: ('A' for Active; 'I' for Inactive)
REMARK    1  A    between atoms: C_1  and  C_2
REMARK    2  A    between atoms: C_2  and  C_3
REMARK    3  A    between atoms: C_2  and  N_4
REMARK    4  A    between atoms: C_5  and  C_6
REMARK    5  A    between atoms: C_6  and  N_7
REMARK                            x       y       z     vdW  Elec       q    Type
REMARK                         _______ _______ _______ _____ _____    ______ ____
ROOT
ATOM      1  N   UNL     1       6.456   5.520  16.743  0.00  0.00    +0.000 N 
ATOM      2  C   UNL     1       5.162   5.180  17.113  0.00  0.00    +0.000 A 
ATOM      3  N   UNL     1       4.578   4.488  16.148  0.00  0.00    +0.000 NA
ATOM      4  C   UNL     1       5.458   4.436  15.107  0.00  0.00    +0.000 A 
ATOM      5  C   UNL     1       5.297   3.888  13.826  0.00  0.00    +0.000 A 
ATOM      6  C   UNL     1       6.352   3.986  12.913  0.00  0.00    +0.000 A 
ATOM      7  C   UNL     1       7.543   4.616  13.269  0.00  0.00    +0.000 A 
ATOM      8  C   UNL     1       7.717   5.170  14.542  0.00  0.00    +0.000 A 
ATOM      9  C   UNL     1       6.647   5.065  15.444  0.00  0.00    +0.000 A 
ENDROOT
BRANCH   1  11
ATOM     10  C   UNL     1       7.197   7.806  17.322  0.00  0.00    +0.000 C 
ATOM     11  C   UNL     1       7.474   6.305  17.438  0.00  0.00    +0.000 C 
ATOM     12  C   UNL     1       7.798   5.886  18.868  0.00  0.00    +0.000 C 
ENDBRANCH   1  11
BRANCH   2  13
ATOM     13  C   UNL     1       4.404   5.633  18.317  0.00  0.00    +0.000 C 
BRANCH  13  14
ATOM     14  N   UNL     1       3.094   5.041  18.552  0.00  0.00    +0.000 N 
ATOM     15  N   UNL     1       2.277   4.921  17.476  0.00  0.00    +0.000 NA
ATOM     16  N   UNL     1       1.302   4.086  17.790  0.00  0.00    +0.000 NA
ATOM     17  C   UNL     1       1.471   3.716  19.097  0.00  0.00    +0.000 A 
ATOM     18  C   UNL     1       0.731   2.826  19.890  0.00  0.00    +0.000 A 
ATOM     19  C   UNL     1       1.117   2.636  21.222  0.00  0.00    +0.000 A 
ATOM     20  C   UNL     1       2.201   3.336  21.755  0.00  0.00    +0.000 A 
ATOM     21  C   UNL     1       2.967   4.205  20.970  0.00  0.00    +0.000 A 
ATOM     22  C   UNL     1       2.585   4.364  19.633  0.00  0.00    +0.000 A 
ENDBRANCH  13  14
ENDBRANCH   2  13
TORSDOF 3
ENDMDL
MODEL 6
REMARK VINA RESULT:      -7.0      3.693      5.202
REMARK  Name = 
REMARK  5 active torsions:
REMARK  status: ('A' for Active; 'I' for Inactive)
REMARK    1  A    between atoms: C_1  and  C_2
REMARK    2  A    between atoms: C_2  and  C_3
REMARK    3  A    between atoms: C_2  and  N_4
REMARK    4  A    between atoms: C_5  and  C_6
REMARK    5  A    between atoms: C_6  and  N_7
REMARK                            x       y       z     vdW  Elec       q    Type
REMARK                         _______ _______ _______ _____ _____    ______ ____
ROOT
ATOM      1  N   UNL     1       3.592   4.716  17.608  0.00  0.00    +0.000 N 
ATOM      2  C   UNL     1       3.630   5.966  18.209  0.00  0.00    +0.000 A 
ATOM      3  N   UNL     1       4.633   6.679  17.721  0.00  0.00    +0.000 NA
ATOM      4  C   UNL     1       5.307   5.872  16.853  0.00  0.00    +0.000 A 
ATOM      5  C   UNL     1       6.485   6.121  16.132  0.00  0.00    +0.000 A 
ATOM      6  C   UNL     1       7.003   5.109  15.316  0.00  0.00    +0.000 A 
ATOM      7  C   UNL     1       6.360   3.876  15.219  0.00  0.00    +0.000 A 
ATOM      8  C   UNL     1       5.186   3.614  15.934  0.00  0.00    +0.000 A 
ATOM      9  C   UNL     1       4.683   4.639  16.749  0.00  0.00    +0.000 A 
ENDROOT
BRANCH   1  11
ATOM     10  C   UNL     1       3.189   2.723  19.012  0.00  0.00    +0.000 C 
ATOM     11  C   UNL     1       2.710   3.573  17.833  0.00  0.00    +0.000 C 
ATOM     12  C   UNL     1       1.217   3.869  17.903  0.00  0.00    +0.000 C 
ENDBRANCH   1  11
BRANCH   2  13
ATOM     13  C   UNL     1       2.815   6.454  19.363  0.00  0.00    +0.000 C 
BRANCH  13  14
ATOM     14  N   UNL     1       2.205   7.771  19.249  0.00  0.00    +0.000 N 
ATOM     15  N   UNL     1       2.125   8.300  18.002  0.00  0.00    +0.000 NA
ATOM     16  N   UNL     1       1.270   9.308  18.036  0.00  0.00    +0.000 NA
ATOM     17  C   UNL     1       0.845   9.454  19.329  0.00  0.00    +0.000 A 
ATOM     18  C   UNL     1      -0.084  10.349  19.883  0.00  0.00    +0.000 A 
ATOM     19  C   UNL     1      -0.328  10.294  21.259  0.00  0.00    +0.000 A 
ATOM     20  C   UNL     1       0.357   9.384  22.067  0.00  0.00    +0.000 A 
ATOM     21  C   UNL     1       1.264   8.466  21.528  0.00  0.00    +0.000 A 
ATOM     22  C   UNL     1       1.478   8.515  20.146  0.00  0.00    +0.000 A 
ENDBRANCH  13  14
ENDBRANCH   2  13
TORSDOF 3
ENDMDL
MODEL 7
REMARK VINA RESULT:      -7.0      4.897      7.774
REMARK  Name = 
REMARK  5 active torsions:
REMARK  status: ('A' for Active; 'I' for Inactive)
REMARK    1  A    between atoms: C_1  and  C_2
REMARK    2  A    between atoms: C_2  and  C_3
REMARK    3  A    between atoms: C_2  and  N_4
REMARK    4  A    between atoms: C_5  and  C_6
REMARK    5  A    between atoms: C_6  and  N_7
REMARK                            x       y       z     vdW  Elec       q    Type
REMARK                         _______ _______ _______ _____ _____    ______ ____
ROOT
ATOM      1  N   UNL     1       0.935   9.269  19.741  0.00  0.00    +0.000 N 
ATOM      2  C   UNL     1       1.548   8.143  20.271  0.00  0.00    +0.000 A 
ATOM      3  N   UNL     1       1.211   7.993  21.542  0.00  0.00    +0.000 NA
ATOM      4  C   UNL     1       0.436   9.066  21.875  0.00  0.00    +0.000 A 
ATOM      5  C   UNL     1      -0.112   9.422  23.116  0.00  0.00    +0.000 A 
ATOM      6  C   UNL     1      -0.859  10.601  23.211  0.00  0.00    +0.000 A 
ATOM      7  C   UNL     1      -1.056  11.408  22.092  0.00  0.00    +0.000 A 
ATOM      8  C   UNL     1      -0.513  11.067  20.848  0.00  0.00    +0.000 A 
ATOM      9  C   UNL     1       0.235   9.882  20.773  0.00  0.00    +0.000 A 
ENDROOT
BRANCH   1  11
ATOM     10  C   UNL     1      -0.354   9.981  17.755  0.00  0.00    +0.000 C 
ATOM     11  C   UNL     1       1.024   9.870  18.411  0.00  0.00    +0.000 C 
ATOM     12  C   UNL     1       1.822  11.164  18.303  0.00  0.00    +0.000 C 
ENDBRANCH   1  11
BRANCH   2  13
ATOM     13  C   UNL     1       2.582   7.275  19.632  0.00  0.00    +0.000 C 
BRANCH  13  14
ATOM     14  N   UNL     1       2.171   5.950  19.188  0.00  0.00    +0.000 N 
ATOM     15  N   UNL     1       2.122   5.744  17.848  0.00  0.00    +0.000 NA
ATOM     16  N   UNL     1       2.063   4.441  17.633  0.00  0.00    +0.000 NA
ATOM     17  C   UNL     1       2.020   3.817  18.851  0.00  0.00    +0.000 A 
ATOM     18  C   UNL     1       1.988   2.450  19.168  0.00  0.00    +0.000 A 
ATOM     19  C   UNL     1       1.931   2.077  20.516  0.00  0.00    +0.000 A 
ATOM     20  C   UNL     1       1.882   3.045  21.520  0.00  0.00    +0.000 A 
ATOM     21  C   UNL     1       1.942   4.411  21.223  0.00  0.00    +0.000 A 
ATOM     22  C   UNL     1       2.026   4.768  19.872  0.00  0.00    +0.000 A 
ENDBRANCH  13  14
ENDBRANCH   2  13
TORSDOF 3
ENDMDL
MODEL 8
REMARK VINA RESULT:      -7.0      1.691      6.609
REMARK  Name = 
REMARK  5 active torsions:
REMARK  status: ('A' for Active; 'I' for Inactive)
REMARK    1  A    between atoms: C_1  and  C_2
REMARK    2  A    between atoms: C_2  and  C_3
REMARK    3  A    between atoms: C_2  and  N_4
REMARK    4  A    between atoms: C_5  and  C_6
REMARK    5  A    between atoms: C_6  and  N_7
REMARK                            x       y       z     vdW  Elec       q    Type
REMARK                         _______ _______ _______ _____ _____    ______ ____
ROOT
ATOM      1  N   UNL     1       5.006   5.221  18.103  0.00  0.00    +0.000 N 
ATOM      2  C   UNL     1       5.115   4.143  17.236  0.00  0.00    +0.000 A 
ATOM      3  N   UNL     1       3.998   3.433  17.245  0.00  0.00    +0.000 NA
ATOM      4  C   UNL     1       3.178   3.996  18.177  0.00  0.00    +0.000 A 
ATOM      5  C   UNL     1       1.915   3.581  18.624  0.00  0.00    +0.000 A 
ATOM      6  C   UNL     1       1.276   4.321  19.625  0.00  0.00    +0.000 A 
ATOM      7  C   UNL     1       1.882   5.453  20.167  0.00  0.00    +0.000 A 
ATOM      8  C   UNL     1       3.143   5.877  19.732  0.00  0.00    +0.000 A 
ATOM      9  C   UNL     1       3.770   5.121  18.731  0.00  0.00    +0.000 A 
ENDROOT
BRANCH   1  11
ATOM     10  C   UNL     1       7.234   5.649  19.083  0.00  0.00    +0.000 C 
ATOM     11  C   UNL     1       5.970   6.256  18.469  0.00  0.00    +0.000 C 
ATOM     12  C   UNL     1       6.289   7.296  17.402  0.00  0.00    +0.000 C 
ENDBRANCH   1  11
BRANCH   2  13
ATOM     13  C   UNL     1       6.329   3.678  16.500  0.00  0.00    +0.000 C 
BRANCH  13  14
ATOM     14  N   UNL     1       6.669   4.361  15.259  0.00  0.00    +0.000 N 
ATOM     15  N   UNL     1       7.618   5.327  15.335  0.00  0.00    +0.000 NA
ATOM     16  N   UNL     1       8.031   5.596  14.108  0.00  0.00    +0.000 NA
ATOM     17  C   UNL     1       7.297   4.831  13.242  0.00  0.00    +0.000 A 
ATOM     18  C   UNL     1       7.372   4.720  11.844  0.00  0.00    +0.000 A 
ATOM     19  C   UNL     1       6.480   3.861  11.192  0.00  0.00    +0.000 A 
ATOM     20  C   UNL     1       5.521   3.150  11.916  0.00  0.00    +0.000 A 
ATOM     21  C   UNL     1       5.451   3.227  13.311  0.00  0.00    +0.000 A 
ATOM     22  C   UNL     1       6.368   4.069  13.951  0.00  0.00    +0.000 A 
ENDBRANCH  13  14
ENDBRANCH   2  13
TORSDOF 3
ENDMDL
MODEL 9
REMARK VINA RESULT:      -6.9      6.541      8.398
REMARK  Name = 
REMARK  5 active torsions:
REMARK  status: ('A' for Active; 'I' for Inactive)
REMARK    1  A    between atoms: C_1  and  C_2
REMARK    2  A    between atoms: C_2  and  C_3
REMARK    3  A    between atoms: C_2  and  N_4
REMARK    4  A    between atoms: C_5  and  C_6
REMARK    5  A    between atoms: C_6  and  N_7
REMARK                            x       y       z     vdW  Elec       q    Type
REMARK                         _______ _______ _______ _____ _____    ______ ____
ROOT
ATOM      1  N   UNL     1       1.391   8.495  20.023  0.00  0.00    +0.000 N 
ATOM      2  C   UNL     1       1.340   9.550  19.123  0.00  0.00    +0.000 A 
ATOM      3  N   UNL     1       2.005   9.243  18.021  0.00  0.00    +0.000 NA
ATOM      4  C   UNL     1       2.564   8.015  18.223  0.00  0.00    +0.000 A 
ATOM      5  C   UNL     1       3.423   7.277  17.396  0.00  0.00    +0.000 A 
ATOM      6  C   UNL     1       3.891   6.037  17.845  0.00  0.00    +0.000 A 
ATOM      7  C   UNL     1       3.507   5.542  19.090  0.00  0.00    +0.000 A 
ATOM      8  C   UNL     1       2.653   6.269  19.926  0.00  0.00    +0.000 A 
ATOM      9  C   UNL     1       2.196   7.512  19.462  0.00  0.00    +0.000 A 
ENDROOT
BRANCH   1  11
ATOM     10  C   UNL     1       1.534   9.338  22.343  0.00  0.00    +0.000 C 
ATOM     11  C   UNL     1       0.853   8.365  21.377  0.00  0.00    +0.000 C 
ATOM     12  C   UNL     1      -0.665   8.386  21.510  0.00  0.00    +0.000 C 
ENDBRANCH   1  11
BRANCH   2  13
ATOM     13  C   UNL     1       0.791  10.921  19.347  0.00  0.00    +0.000 C 
BRANCH  13  14
ATOM     14  N   UNL     1      -0.655  11.084  19.311  0.00  0.00    +0.000 N 
ATOM     15  N   UNL     1      -1.202  11.886  20.259  0.00  0.00    +0.000 NA
ATOM     16  N   UNL     1      -2.435  12.183  19.886  0.00  0.00    +0.000 NA
ATOM     17  C   UNL     1      -2.691  11.518  18.717  0.00  0.00    +0.000 A 
ATOM     18  C   UNL     1      -3.834  11.526  17.901  0.00  0.00    +0.000 A 
ATOM     19  C   UNL     1      -3.839  10.731  16.749  0.00  0.00    +0.000 A 
ATOM     20  C   UNL     1      -2.740   9.929  16.433  0.00  0.00    +0.000 A 
ATOM     21  C   UNL     1      -1.583   9.932  17.219  0.00  0.00    +0.000 A 
ATOM     22  C   UNL     1      -1.583  10.752  18.353  0.00  0.00    +0.000 A 
ENDBRANCH  13  14
ENDBRANCH   2  13
TORSDOF 3
ENDMDL
