MODEL 1
REMARK VINA RESULT:      -4.1      0.000      0.000
REMARK  Name = 
REMARK  5 active torsions:
REMARK  status: ('A' for Active; 'I' for Inactive)
REMARK    1  A    between atoms: C_1  and  C_2
REMARK    2  A    between atoms: C_2  and  C_3
REMARK    3  A    between atoms: C_3  and  C_4
REMARK    4  A    between atoms: C_4  and  C_5
REMARK    5  A    between atoms: C_5  and  O_7
REMARK                            x       y       z     vdW  Elec       q    Type
REMARK                         _______ _______ _______ _____ _____    ______ ____
ROOT
ATOM      1  C   UNL     1       5.970   3.881  14.307  0.00  0.00    +0.000 C 
ENDROOT
BRANCH   1   2
ATOM      2  C   UNL     1       6.935   4.585  15.236  0.00  0.00    +0.000 C 
ATOM      3  O   UNL     1       7.673   5.505  14.924  0.00  0.00    +0.000 OA
BRANCH   2   4
ATOM      4  O   UNL     1       6.905   4.082  16.491  0.00  0.00    +0.000 OA
ATOM      5  H   UNL     1       7.319   4.663  17.156  0.00  0.00    +0.000 HD
ENDBRANCH   2   4
ENDBRANCH   1   2
BRANCH   1   6
ATOM      6  C   UNL     1       6.458   3.933  12.861  0.00  0.00    +0.000 C 
BRANCH   6   8
ATOM      7  C   UNL     1       4.405   3.327  11.551  0.00  0.00    +0.000 C 
ATOM      8  C   UNL     1       5.791   2.874  11.985  0.00  0.00    +0.000 C 
ENDBRANCH   6   8
ENDBRANCH   1   6
TORSDOF 4
ENDMDL
MODEL 2
REMARK VINA RESULT:      -4.1      0.846      1.443
REMARK  Name = 
REMARK  5 active torsions:
REMARK  status: ('A' for Active; 'I' for Inactive)
REMARK    1  A    between atoms: C_1  and  C_2
REMARK    2  A    between atoms: C_2  and  C_3
REMARK    3  A    between atoms: C_3  and  C_4
REMARK    4  A    between atoms: C_4  and  C_5
REMARK    5  A    between atoms: C_5  and  O_7
REMARK                            x       y       z     vdW  Elec       q    Type
REMARK                         _______ _______ _______ _____ _____    ______ ____
ROOT
ATOM      1  C   UNL     1       6.289   3.967  13.942  0.00  0.00    +0.000 C 
ENDROOT
BRANCH   1   2
ATOM      2  C   UNL     1       7.200   5.059  14.457  0.00  0.00    +0.000 C 
ATOM      3  O   UNL     1       7.233   5.471  15.605  0.00  0.00    +0.000 OA
BRANCH   2   4
ATOM      4  O   UNL     1       8.006   5.558  13.493  0.00  0.00    +0.000 OA
ATOM      5  H   UNL     1       7.522   5.981  12.758  0.00  0.00    +0.000 HD
ENDBRANCH   2   4
ENDBRANCH   1   2
BRANCH   1   6
ATOM      6  C   UNL     1       6.462   3.766  12.438  0.00  0.00    +0.000 C 
BRANCH   6   8
ATOM      7  C   UNL     1       4.256   3.256  11.354  0.00  0.00    +0.000 C 
ATOM      8  C   UNL     1       5.552   2.667  11.892  0.00  0.00    +0.000 C 
ENDBRANCH   6   8
ENDBRANCH   1   6
TORSDOF 4
ENDMDL
MODEL 3
REMARK VINA RESULT:      -4.0     13.910     14.544
REMARK  Name = 
REMARK  5 active torsions:
REMARK  status: ('A' for Active; 'I' for Inactive)
REMARK    1  A    between atoms: C_1  and  C_2
REMARK    2  A    between atoms: C_2  and  C_3
REMARK    3  A    between atoms: C_3  and  C_4
REMARK    4  A    between atoms: C_4  and  C_5
REMARK    5  A    between atoms: C_5  and  O_7
REMARK                            x       y       z     vdW  Elec       q    Type
REMARK                         _______ _______ _______ _____ _____    ______ ____
ROOT
ATOM      1  C   UNL     1       7.361   5.396  28.348  0.00  0.00    +0.000 C 
ENDROOT
BRANCH   1   2
ATOM      2  C   UNL     1       5.848   5.415  28.331  0.00  0.00    +0.000 C 
ATOM      3  O   UNL     1       5.153   6.415  28.398  0.00  0.00    +0.000 OA
BRANCH   2   4
ATOM      4  O   UNL     1       5.317   4.175  28.234  0.00  0.00    +0.000 OA
ATOM      5  H   UNL     1       5.601   3.689  27.437  0.00  0.00    +0.000 HD
ENDBRANCH   2   4
ENDBRANCH   1   2
BRANCH   1   6
ATOM      6  C   UNL     1       7.915   4.465  27.271  0.00  0.00    +0.000 C 
BRANCH   6   8
ATOM      7  C   UNL     1      10.158   5.230  28.098  0.00  0.00    +0.000 C 
ATOM      8  C   UNL     1       9.361   4.058  27.545  0.00  0.00    +0.000 C 
ENDBRANCH   6   8
ENDBRANCH   1   6
TORSDOF 4
ENDMDL
MODEL 4
REMARK VINA RESULT:      -4.0      0.945      1.083
REMARK  Name = 
REMARK  5 active torsions:
REMARK  status: ('A' for Active; 'I' for Inactive)
REMARK    1  A    between atoms: C_1  and  C_2
REMARK    2  A    between atoms: C_2  and  C_3
REMARK    3  A    between atoms: C_3  and  C_4
REMARK    4  A    between atoms: C_4  and  C_5
REMARK    5  A    between atoms: C_5  and  O_7
REMARK                            x       y       z     vdW  Elec       q    Type
REMARK                         _______ _______ _______ _____ _____    ______ ____
ROOT
ATOM      1  C   UNL     1       6.314   4.004  13.766  0.00  0.00    +0.000 C 
ENDROOT
BRANCH   1   2
ATOM      2  C   UNL     1       7.298   5.085  14.157  0.00  0.00    +0.000 C 
ATOM      3  O   UNL     1       8.112   5.604  13.411  0.00  0.00    +0.000 OA
BRANCH   2   4
ATOM      4  O   UNL     1       7.190   5.436  15.458  0.00  0.00    +0.000 OA
ATOM      5  H   UNL     1       6.270   5.468  15.780  0.00  0.00    +0.000 HD
ENDBRANCH   2   4
ENDBRANCH   1   2
BRANCH   1   6
ATOM      6  C   UNL     1       6.437   3.654  12.284  0.00  0.00    +0.000 C 
BRANCH   6   8
ATOM      7  C   UNL     1       4.158   3.267  11.305  0.00  0.00    +0.000 C 
ATOM      8  C   UNL     1       5.415   2.605  11.849  0.00  0.00    +0.000 C 
ENDBRANCH   6   8
ENDBRANCH   1   6
TORSDOF 4
ENDMDL
MODEL 5
REMARK VINA RESULT:      -4.0      0.752      1.496
REMARK  Name = 
REMARK  5 active torsions:
REMARK  status: ('A' for Active; 'I' for Inactive)
REMARK    1  A    between atoms: C_1  and  C_2
REMARK    2  A    between atoms: C_2  and  C_3
REMARK    3  A    between atoms: C_3  and  C_4
REMARK    4  A    between atoms: C_4  and  C_5
REMARK    5  A    between atoms: C_5  and  O_7
REMARK                            x       y       z     vdW  Elec       q    Type
REMARK                         _______ _______ _______ _____ _____    ______ ____
ROOT
ATOM      1  C   UNL     1       6.170   3.720  15.307  0.00  0.00    +0.000 C 
ENDROOT
BRANCH   1   2
ATOM      2  C   UNL     1       7.195   4.618  15.965  0.00  0.00    +0.000 C 
ATOM      3  O   UNL     1       7.704   4.428  17.057  0.00  0.00    +0.000 OA
BRANCH   2   4
ATOM      4  O   UNL     1       7.506   5.692  15.204  0.00  0.00    +0.000 OA
ATOM      5  H   UNL     1       8.433   5.702  14.901  0.00  0.00    +0.000 HD
ENDBRANCH   2   4
ENDBRANCH   1   2
BRANCH   1   6
ATOM      6  C   UNL     1       5.658   4.328  14.002  0.00  0.00    +0.000 C 
BRANCH   6   8
ATOM      7  C   UNL     1       4.940   3.206  11.876  0.00  0.00    +0.000 C 
ATOM      8  C   UNL     1       6.119   3.542  12.776  0.00  0.00    +0.000 C 
ENDBRANCH   6   8
ENDBRANCH   1   6
TORSDOF 4
ENDMDL
MODEL 6
REMARK VINA RESULT:      -3.8      0.632      1.510
REMARK  Name = 
REMARK  5 active torsions:
REMARK  status: ('A' for Active; 'I' for Inactive)
REMARK    1  A    between atoms: C_1  and  C_2
REMARK    2  A    between atoms: C_2  and  C_3
REMARK    3  A    between atoms: C_3  and  C_4
REMARK    4  A    between atoms: C_4  and  C_5
REMARK    5  A    between atoms: C_5  and  O_7
REMARK                            x       y       z     vdW  Elec       q    Type
REMARK                         _______ _______ _______ _____ _____    ______ ____
ROOT
ATOM      1  C   UNL     1       5.822   4.231  14.068  0.00  0.00    +0.000 C 
ENDROOT
BRANCH   1   2
ATOM      2  C   UNL     1       6.934   4.662  15.000  0.00  0.00    +0.000 C 
ATOM      3  O   UNL     1       7.070   4.294  16.155  0.00  0.00    +0.000 OA
BRANCH   2   4
ATOM      4  O   UNL     1       7.794   5.526  14.415  0.00  0.00    +0.000 OA
ATOM      5  H   UNL     1       7.892   5.390  13.454  0.00  0.00    +0.000 HD
ENDBRANCH   2   4
ENDBRANCH   1   2
BRANCH   1   6
ATOM      6  C   UNL     1       6.379   3.745  12.731  0.00  0.00    +0.000 C 
BRANCH   6   8
ATOM      7  C   UNL     1       5.875   1.687  11.386  0.00  0.00    +0.000 C 
ATOM      8  C   UNL     1       5.330   3.012  11.898  0.00  0.00    +0.000 C 
ENDBRANCH   6   8
ENDBRANCH   1   6
TORSDOF 4
ENDMDL
MODEL 7
REMARK VINA RESULT:      -3.8      6.304      7.449
REMARK  Name = 
REMARK  5 active torsions:
REMARK  status: ('A' for Active; 'I' for Inactive)
REMARK    1  A    between atoms: C_1  and  C_2
REMARK    2  A    between atoms: C_2  and  C_3
REMARK    3  A    between atoms: C_3  and  C_4
REMARK    4  A    between atoms: C_4  and  C_5
REMARK    5  A    between atoms: C_5  and  O_7
REMARK                            x       y       z     vdW  Elec       q    Type
REMARK                         _______ _______ _______ _____ _____    ______ ____
ROOT
ATOM      1  C   UNL     1       1.783   3.233  18.056  0.00  0.00    +0.000 C 
ENDROOT
BRANCH   1   2
ATOM      2  C   UNL     1       3.147   2.588  18.162  0.00  0.00    +0.000 C 
ATOM      3  O   UNL     1       4.215   3.170  18.059  0.00  0.00    +0.000 OA
BRANCH   2   4
ATOM      4  O   UNL     1       3.074   1.257  18.388  0.00  0.00    +0.000 OA
ATOM      5  H   UNL     1       3.515   0.975  19.211  0.00  0.00    +0.000 HD
ENDBRANCH   2   4
ENDBRANCH   1   2
BRANCH   1   6
ATOM      6  C   UNL     1       0.868   2.781  19.193  0.00  0.00    +0.000 C 
BRANCH   6   8
ATOM      7  C   UNL     1       1.632   2.741  21.583  0.00  0.00    +0.000 C 
ATOM      8  C   UNL     1       1.071   3.605  20.463  0.00  0.00    +0.000 C 
ENDBRANCH   6   8
ENDBRANCH   1   6
TORSDOF 4
ENDMDL
MODEL 8
REMARK VINA RESULT:      -3.8      0.963      1.123
REMARK  Name = 
REMARK  5 active torsions:
REMARK  status: ('A' for Active; 'I' for Inactive)
REMARK    1  A    between atoms: C_1  and  C_2
REMARK    2  A    between atoms: C_2  and  C_3
REMARK    3  A    between atoms: C_3  and  C_4
REMARK    4  A    between atoms: C_4  and  C_5
REMARK    5  A    between atoms: C_5  and  O_7
REMARK                            x       y       z     vdW  Elec       q    Type
REMARK                         _______ _______ _______ _____ _____    ______ ____
ROOT
ATOM      1  C   UNL     1       5.523   4.148  14.013  0.00  0.00    +0.000 C 
ENDROOT
BRANCH   1   2
ATOM      2  C   UNL     1       6.207   5.174  14.890  0.00  0.00    +0.000 C 
ATOM      3  O   UNL     1       5.684   6.178  15.343  0.00  0.00    +0.000 OA
BRANCH   2   4
ATOM      4  O   UNL     1       7.501   4.866  15.133  0.00  0.00    +0.000 OA
ATOM      5  H   UNL     1       7.876   4.223  14.502  0.00  0.00    +0.000 HD
ENDBRANCH   2   4
ENDBRANCH   1   2
BRANCH   1   6
ATOM      6  C   UNL     1       6.422   3.725  12.852  0.00  0.00    +0.000 C 
BRANCH   6   8
ATOM      7  C   UNL     1       4.326   3.305  11.537  0.00  0.00    +0.000 C 
ATOM      8  C   UNL     1       5.712   2.782  11.883  0.00  0.00    +0.000 C 
ENDBRANCH   6   8
ENDBRANCH   1   6
TORSDOF 4
ENDMDL
MODEL 9
REMARK VINA RESULT:      -3.8      2.698      3.747
REMARK  Name = 
REMARK  5 active torsions:
REMARK  status: ('A' for Active; 'I' for Inactive)
REMARK    1  A    between atoms: C_1  and  C_2
REMARK    2  A    between atoms: C_2  and  C_3
REMARK    3  A    between atoms: C_3  and  C_4
REMARK    4  A    between atoms: C_4  and  C_5
REMARK    5  A    between atoms: C_5  and  O_7
REMARK                            x       y       z     vdW  Elec       q    Type
REMARK                         _______ _______ _______ _____ _____    ______ ____
ROOT
ATOM      1  C   UNL     1       5.780   3.915  15.871  0.00  0.00    +0.000 C 
ENDROOT
BRANCH   1   2
ATOM      2  C   UNL     1       7.115   4.621  15.956  0.00  0.00    +0.000 C 
ATOM      3  O   UNL     1       7.485   5.523  15.222  0.00  0.00    +0.000 OA
BRANCH   2   4
ATOM      4  O   UNL     1       7.891   4.144  16.955  0.00  0.00    +0.000 OA
ATOM      5  H   UNL     1       8.622   4.741  17.202  0.00  0.00    +0.000 HD
ENDBRANCH   2   4
ENDBRANCH   1   2
BRANCH   1   6
ATOM      6  C   UNL     1       4.730   4.611  16.735  0.00  0.00    +0.000 C 
BRANCH   6   8
ATOM      7  C   UNL     1       2.432   4.445  17.731  0.00  0.00    +0.000 C 
ATOM      8  C   UNL     1       3.605   3.667  17.156  0.00  0.00    +0.000 C 
ENDBRANCH   6   8
ENDBRANCH   1   6
TORSDOF 4
ENDMDL
