MODEL 1
REMARK VINA RESULT:      -7.0      0.000      0.000
REMARK  Name = 
REMARK  5 active torsions:
REMARK  status: ('A' for Active; 'I' for Inactive)
REMARK    1  A    between atoms: C_1  and  N_2
REMARK    2  A    between atoms: C_8  and  N_9
REMARK    3  A    between atoms: N_9  and  C_10
REMARK    4  A    between atoms: C_10  and  C_11
REMARK    5  A    between atoms: C_11  and  O_12
REMARK                            x       y       z     vdW  Elec       q    Type
REMARK                         _______ _______ _______ _____ _____    ______ ____
ROOT
ATOM      1  C   UNL     1       1.119   3.120  20.710  0.00  0.00    +0.000 C 
ATOM      2  N   UNL     1       2.481   3.622  20.530  0.00  0.00    +0.000 NA
ATOM      3  C   UNL     1       2.458   4.968  19.896  0.00  0.00    +0.000 C 
ATOM      4  C   UNL     1       3.869   5.511  19.537  0.00  0.00    +0.000 C 
ATOM      5  N   UNL     1       4.515   4.510  18.692  0.00  0.00    +0.000 N 
ATOM      6  C   UNL     1       5.457   4.895  17.758  0.00  0.00    +0.000 A 
ATOM      7  C   UNL     1       5.596   4.111  16.634  0.00  0.00    +0.000 A 
ATOM      8  C   UNL     1       6.513   4.483  15.677  0.00  0.00    +0.000 A 
ATOM      9  N   UNL     1       7.240   5.598  15.816  0.00  0.00    +0.000 NA
ATOM     10  C   UNL     1       6.996   6.341  16.902  0.00  0.00    +0.000 A 
ATOM     11  N   UNL     1       7.712   7.519  17.029  0.00  0.00    +0.000 N 
ATOM     12  N   UNL     1       6.148   6.033  17.889  0.00  0.00    +0.000 NA
ATOM     13  C   UNL     1       4.669   3.207  19.347  0.00  0.00    +0.000 C 
ATOM     14  C   UNL     1       3.261   2.676  19.695  0.00  0.00    +0.000 C 
ATOM     15  H   UNL     1       8.559   7.467  16.482  0.00  0.00    +0.000 HD
ATOM     16  H   UNL     1       7.789   7.769  18.004  0.00  0.00    +0.000 HD
ENDROOT
BRANCH   8  17
ATOM     17  N   UNL     1       6.543   3.739  14.493  0.00  0.00    +0.000 N 
ATOM     18  H   UNL     1       7.451   3.777  14.031  0.00  0.00    +0.000 HD
BRANCH  17  19
ATOM     19  C   UNL     1       5.478   4.006  13.535  0.00  0.00    +0.000 C 
BRANCH  19  20
ATOM     20  C   UNL     1       5.789   3.219  12.252  0.00  0.00    +0.000 C 
BRANCH  20  21
ATOM     21  O   UNL     1       4.608   3.062  11.454  0.00  0.00    +0.000 OA
ATOM     22  H   UNL     1       3.888   3.535  11.905  0.00  0.00    +0.000 HD
ENDBRANCH  20  21
ENDBRANCH  19  20
ENDBRANCH  17  19
ENDBRANCH   8  17
TORSDOF 4
ENDMDL
MODEL 2
REMARK VINA RESULT:      -6.9      1.304      1.324
REMARK  Name = 
REMARK  5 active torsions:
REMARK  status: ('A' for Active; 'I' for Inactive)
REMARK    1  A    between atoms: C_1  and  N_2
REMARK    2  A    between atoms: C_8  and  N_9
REMARK    3  A    between atoms: N_9  and  C_10
REMARK    4  A    between atoms: C_10  and  C_11
REMARK    5  A    between atoms: C_11  and  O_12
REMARK                            x       y       z     vdW  Elec       q    Type
REMARK                         _______ _______ _______ _____ _____    ______ ____
ROOT
ATOM      1  C   UNL     1       0.411   2.587  18.942  0.00  0.00    +0.000 C 
ATOM      2  N   UNL     1       1.804   3.028  19.012  0.00  0.00    +0.000 NA
ATOM      3  C   UNL     1       1.925   4.439  18.554  0.00  0.00    +0.000 C 
ATOM      4  C   UNL     1       3.393   4.939  18.461  0.00  0.00    +0.000 C 
ATOM      5  N   UNL     1       4.111   4.011  17.592  0.00  0.00    +0.000 N 
ATOM      6  C   UNL     1       5.190   4.448  16.849  0.00  0.00    +0.000 A 
ATOM      7  C   UNL     1       5.455   3.797  15.665  0.00  0.00    +0.000 A 
ATOM      8  C   UNL     1       6.512   4.227  14.896  0.00  0.00    +0.000 A 
ATOM      9  N   UNL     1       7.256   5.274  15.270  0.00  0.00    +0.000 NA
ATOM     10  C   UNL     1       6.892   5.895  16.398  0.00  0.00    +0.000 A 
ATOM     11  N   UNL     1       7.629   7.007  16.767  0.00  0.00    +0.000 N 
ATOM     12  N   UNL     1       5.901   5.522  17.214  0.00  0.00    +0.000 NA
ATOM     13  C   UNL     1       4.118   2.632  18.094  0.00  0.00    +0.000 C 
ATOM     14  C   UNL     1       2.656   2.145  18.179  0.00  0.00    +0.000 C 
ATOM     15  H   UNL     1       8.542   6.972  16.338  0.00  0.00    +0.000 HD
ATOM     16  H   UNL     1       7.577   7.135  17.767  0.00  0.00    +0.000 HD
ENDROOT
BRANCH   8  17
ATOM     17  N   UNL     1       6.680   3.627  13.642  0.00  0.00    +0.000 N 
ATOM     18  H   UNL     1       7.530   3.935  13.174  0.00  0.00    +0.000 HD
BRANCH  17  19
ATOM     19  C   UNL     1       5.544   3.706  12.732  0.00  0.00    +0.000 C 
BRANCH  19  20
ATOM     20  C   UNL     1       5.634   2.517  11.762  0.00  0.00    +0.000 C 
BRANCH  20  21
ATOM     21  O   UNL     1       6.999   2.121  11.570  0.00  0.00    +0.000 OA
ATOM     22  H   UNL     1       7.269   2.429  10.689  0.00  0.00    +0.000 HD
ENDBRANCH  20  21
ENDBRANCH  19  20
ENDBRANCH  17  19
ENDBRANCH   8  17
TORSDOF 4
ENDMDL
MODEL 3
REMARK VINA RESULT:      -6.8      1.198      1.198
REMARK  Name = 
REMARK  5 active torsions:
REMARK  status: ('A' for Active; 'I' for Inactive)
REMARK    1  A    between atoms: C_1  and  N_2
REMARK    2  A    between atoms: C_8  and  N_9
REMARK    3  A    between atoms: N_9  and  C_10
REMARK    4  A    between atoms: C_10  and  C_11
REMARK    5  A    between atoms: C_11  and  O_12
REMARK                            x       y       z     vdW  Elec       q    Type
REMARK                         _______ _______ _______ _____ _____    ______ ____
ROOT
ATOM      1  C   UNL     1       0.930   3.005  20.411  0.00  0.00    +0.000 C 
ATOM      2  N   UNL     1       2.292   3.525  20.291  0.00  0.00    +0.000 NA
ATOM      3  C   UNL     1       2.281   4.859  19.631  0.00  0.00    +0.000 C 
ATOM      4  C   UNL     1       3.701   5.418  19.334  0.00  0.00    +0.000 C 
ATOM      5  N   UNL     1       4.403   4.414  18.541  0.00  0.00    +0.000 N 
ATOM      6  C   UNL     1       5.385   4.796  17.648  0.00  0.00    +0.000 A 
ATOM      7  C   UNL     1       5.592   3.995  16.547  0.00  0.00    +0.000 A 
ATOM      8  C   UNL     1       6.550   4.365  15.631  0.00  0.00    +0.000 A 
ATOM      9  N   UNL     1       7.253   5.494  15.786  0.00  0.00    +0.000 NA
ATOM     10  C   UNL     1       6.944   6.251  16.845  0.00  0.00    +0.000 A 
ATOM     11  N   UNL     1       7.635   7.442  16.985  0.00  0.00    +0.000 N 
ATOM     12  N   UNL     1       6.051   5.947  17.793  0.00  0.00    +0.000 NA
ATOM     13  C   UNL     1       4.543   3.124  19.227  0.00  0.00    +0.000 C 
ATOM     14  C   UNL     1       3.128   2.578  19.513  0.00  0.00    +0.000 C 
ATOM     15  H   UNL     1       8.509   7.394  16.483  0.00  0.00    +0.000 HD
ATOM     16  H   UNL     1       7.658   7.711  17.958  0.00  0.00    +0.000 HD
ENDROOT
BRANCH   8  17
ATOM     17  N   UNL     1       6.651   3.600  14.463  0.00  0.00    +0.000 N 
ATOM     18  H   UNL     1       7.587   3.221  14.326  0.00  0.00    +0.000 HD
BRANCH  17  19
ATOM     19  C   UNL     1       6.176   4.229  13.237  0.00  0.00    +0.000 C 
BRANCH  19  20
ATOM     20  C   UNL     1       7.389   4.443  12.317  0.00  0.00    +0.000 C 
BRANCH  20  21
ATOM     21  O   UNL     1       8.123   5.611  12.709  0.00  0.00    +0.000 OA
ATOM     22  H   UNL     1       7.922   5.778  13.646  0.00  0.00    +0.000 HD
ENDBRANCH  20  21
ENDBRANCH  19  20
ENDBRANCH  17  19
ENDBRANCH   8  17
TORSDOF 4
ENDMDL
MODEL 4
REMARK VINA RESULT:      -6.8      2.899      4.261
REMARK  Name = 
REMARK  5 active torsions:
REMARK  status: ('A' for Active; 'I' for Inactive)
REMARK    1  A    between atoms: C_1  and  N_2
REMARK    2  A    between atoms: C_8  and  N_9
REMARK    3  A    between atoms: N_9  and  C_10
REMARK    4  A    between atoms: C_10  and  C_11
REMARK    5  A    between atoms: C_11  and  O_12
REMARK                            x       y       z     vdW  Elec       q    Type
REMARK                         _______ _______ _______ _____ _____    ______ ____
ROOT
ATOM      1  C   UNL     1       1.439   2.709  21.402  0.00  0.00    +0.000 C 
ATOM      2  N   UNL     1       1.737   2.913  19.984  0.00  0.00    +0.000 NA
ATOM      3  C   UNL     1       3.005   2.226  19.616  0.00  0.00    +0.000 C 
ATOM      4  C   UNL     1       3.469   2.513  18.161  0.00  0.00    +0.000 C 
ATOM      5  N   UNL     1       3.561   3.963  18.016  0.00  0.00    +0.000 N 
ATOM      6  C   UNL     1       4.460   4.515  17.124  0.00  0.00    +0.000 A 
ATOM      7  C   UNL     1       4.950   5.770  17.408  0.00  0.00    +0.000 A 
ATOM      8  C   UNL     1       5.863   6.335  16.547  0.00  0.00    +0.000 A 
ATOM      9  N   UNL     1       6.291   5.672  15.467  0.00  0.00    +0.000 NA
ATOM     10  C   UNL     1       5.820   4.431  15.298  0.00  0.00    +0.000 A 
ATOM     11  N   UNL     1       6.295   3.724  14.207  0.00  0.00    +0.000 N 
ATOM     12  N   UNL     1       4.911   3.827  16.069  0.00  0.00    +0.000 NA
ATOM     13  C   UNL     1       2.286   4.653  18.244  0.00  0.00    +0.000 C 
ATOM     14  C   UNL     1       1.838   4.363  19.693  0.00  0.00    +0.000 C 
ATOM     15  H   UNL     1       6.641   4.363  13.507  0.00  0.00    +0.000 HD
ATOM     16  H   UNL     1       5.616   3.032  13.927  0.00  0.00    +0.000 HD
ENDROOT
BRANCH   8  17
ATOM     17  N   UNL     1       6.435   7.555  16.927  0.00  0.00    +0.000 N 
ATOM     18  H   UNL     1       6.546   8.194  16.141  0.00  0.00    +0.000 HD
BRANCH  17  19
ATOM     19  C   UNL     1       7.671   7.477  17.694  0.00  0.00    +0.000 C 
BRANCH  19  20
ATOM     20  C   UNL     1       8.194   8.909  17.892  0.00  0.00    +0.000 C 
BRANCH  20  21
ATOM     21  O   UNL     1       8.881   9.029  19.144  0.00  0.00    +0.000 OA
ATOM     22  H   UNL     1       8.466   9.760  19.633  0.00  0.00    +0.000 HD
ENDBRANCH  20  21
ENDBRANCH  19  20
ENDBRANCH  17  19
ENDBRANCH   8  17
TORSDOF 4
ENDMDL
MODEL 5
REMARK VINA RESULT:      -6.6      3.004      4.427
REMARK  Name = 
REMARK  5 active torsions:
REMARK  status: ('A' for Active; 'I' for Inactive)
REMARK    1  A    between atoms: C_1  and  N_2
REMARK    2  A    between atoms: C_8  and  N_9
REMARK    3  A    between atoms: N_9  and  C_10
REMARK    4  A    between atoms: C_10  and  C_11
REMARK    5  A    between atoms: C_11  and  O_12
REMARK                            x       y       z     vdW  Elec       q    Type
REMARK                         _______ _______ _______ _____ _____    ______ ____
ROOT
ATOM      1  C   UNL     1       1.594   2.770  21.045  0.00  0.00    +0.000 C 
ATOM      2  N   UNL     1       2.010   3.296  19.745  0.00  0.00    +0.000 NA
ATOM      3  C   UNL     1       3.087   2.449  19.164  0.00  0.00    +0.000 C 
ATOM      4  C   UNL     1       3.687   3.020  17.849  0.00  0.00    +0.000 C 
ATOM      5  N   UNL     1       4.143   4.377  18.137  0.00  0.00    +0.000 N 
ATOM      6  C   UNL     1       5.198   4.919  17.429  0.00  0.00    +0.000 A 
ATOM      7  C   UNL     1       5.967   5.871  18.061  0.00  0.00    +0.000 A 
ATOM      8  C   UNL     1       7.037   6.412  17.386  0.00  0.00    +0.000 A 
ATOM      9  N   UNL     1       7.348   6.007  16.149  0.00  0.00    +0.000 NA
ATOM     10  C   UNL     1       6.594   5.030  15.631  0.00  0.00    +0.000 A 
ATOM     11  N   UNL     1       6.938   4.575  14.370  0.00  0.00    +0.000 N 
ATOM     12  N   UNL     1       5.523   4.477  16.209  0.00  0.00    +0.000 NA
ATOM     13  C   UNL     1       3.068   5.269  18.586  0.00  0.00    +0.000 C 
ATOM     14  C   UNL     1       2.483   4.693  19.893  0.00  0.00    +0.000 C 
ATOM     15  H   UNL     1       7.470   5.281  13.883  0.00  0.00    +0.000 HD
ATOM     16  H   UNL     1       6.125   4.189  13.912  0.00  0.00    +0.000 HD
ENDROOT
BRANCH   8  17
ATOM     17  N   UNL     1       7.871   7.282  18.097  0.00  0.00    +0.000 N 
ATOM     18  H   UNL     1       7.729   7.222  19.104  0.00  0.00    +0.000 HD
BRANCH  17  19
ATOM     19  C   UNL     1       7.865   8.675  17.669  0.00  0.00    +0.000 C 
BRANCH  19  20
ATOM     20  C   UNL     1       8.764   9.468  18.631  0.00  0.00    +0.000 C 
BRANCH  20  21
ATOM     21  O   UNL     1       8.964  10.805  18.153  0.00  0.00    +0.000 OA
ATOM     22  H   UNL     1       9.014  11.387  18.931  0.00  0.00    +0.000 HD
ENDBRANCH  20  21
ENDBRANCH  19  20
ENDBRANCH  17  19
ENDBRANCH   8  17
TORSDOF 4
ENDMDL
MODEL 6
REMARK VINA RESULT:      -6.6      1.616      1.648
REMARK  Name = 
REMARK  5 active torsions:
REMARK  status: ('A' for Active; 'I' for Inactive)
REMARK    1  A    between atoms: C_1  and  N_2
REMARK    2  A    between atoms: C_8  and  N_9
REMARK    3  A    between atoms: N_9  and  C_10
REMARK    4  A    between atoms: C_10  and  C_11
REMARK    5  A    between atoms: C_11  and  O_12
REMARK                            x       y       z     vdW  Elec       q    Type
REMARK                         _______ _______ _______ _____ _____    ______ ____
ROOT
ATOM      1  C   UNL     1       0.324   2.499  18.956  0.00  0.00    +0.000 C 
ATOM      2  N   UNL     1       1.744   2.618  19.287  0.00  0.00    +0.000 NA
ATOM      3  C   UNL     1       2.096   4.039  19.557  0.00  0.00    +0.000 C 
ATOM      4  C   UNL     1       3.617   4.272  19.774  0.00  0.00    +0.000 C 
ATOM      5  N   UNL     1       4.307   3.743  18.602  0.00  0.00    +0.000 N 
ATOM      6  C   UNL     1       5.513   4.285  18.201  0.00  0.00    +0.000 A 
ATOM      7  C   UNL     1       5.829   4.218  16.863  0.00  0.00    +0.000 A 
ATOM      8  C   UNL     1       7.014   4.771  16.435  0.00  0.00    +0.000 A 
ATOM      9  N   UNL     1       7.837   5.386  17.292  0.00  0.00    +0.000 NA
ATOM     10  C   UNL     1       7.425   5.470  18.562  0.00  0.00    +0.000 A 
ATOM     11  N   UNL     1       8.251   6.146  19.444  0.00  0.00    +0.000 N 
ATOM     12  N   UNL     1       6.307   4.934  19.061  0.00  0.00    +0.000 NA
ATOM     13  C   UNL     1       4.080   2.308  18.391  0.00  0.00    +0.000 C 
ATOM     14  C   UNL     1       2.568   2.090  18.173  0.00  0.00    +0.000 C 
ATOM     15  H   UNL     1       9.195   6.160  19.089  0.00  0.00    +0.000 HD
ATOM     16  H   UNL     1       8.099   5.806  20.383  0.00  0.00    +0.000 HD
ENDROOT
BRANCH   8  17
ATOM     17  N   UNL     1       7.249   4.797  15.055  0.00  0.00    +0.000 N 
ATOM     18  H   UNL     1       7.789   5.612  14.767  0.00  0.00    +0.000 HD
BRANCH  17  19
ATOM     19  C   UNL     1       6.081   4.636  14.198  0.00  0.00    +0.000 C 
BRANCH  19  20
ATOM     20  C   UNL     1       6.491   3.764  13.001  0.00  0.00    +0.000 C 
BRANCH  20  21
ATOM     21  O   UNL     1       7.368   4.485  12.125  0.00  0.00    +0.000 OA
ATOM     22  H   UNL     1       7.146   4.224  11.214  0.00  0.00    +0.000 HD
ENDBRANCH  20  21
ENDBRANCH  19  20
ENDBRANCH  17  19
ENDBRANCH   8  17
TORSDOF 4
ENDMDL
MODEL 7
REMARK VINA RESULT:      -6.6      2.667      4.005
REMARK  Name = 
REMARK  5 active torsions:
REMARK  status: ('A' for Active; 'I' for Inactive)
REMARK    1  A    between atoms: C_1  and  N_2
REMARK    2  A    between atoms: C_8  and  N_9
REMARK    3  A    between atoms: N_9  and  C_10
REMARK    4  A    between atoms: C_10  and  C_11
REMARK    5  A    between atoms: C_11  and  O_12
REMARK                            x       y       z     vdW  Elec       q    Type
REMARK                         _______ _______ _______ _____ _____    ______ ____
ROOT
ATOM      1  C   UNL     1       1.137   2.874  21.065  0.00  0.00    +0.000 C 
ATOM      2  N   UNL     1       1.531   3.134  19.681  0.00  0.00    +0.000 NA
ATOM      3  C   UNL     1       2.724   2.321  19.319  0.00  0.00    +0.000 C 
ATOM      4  C   UNL     1       3.295   2.646  17.911  0.00  0.00    +0.000 C 
ATOM      5  N   UNL     1       3.570   4.079  17.877  0.00  0.00    +0.000 N 
ATOM      6  C   UNL     1       4.575   4.574  17.069  0.00  0.00    +0.000 A 
ATOM      7  C   UNL     1       5.198   5.736  17.466  0.00  0.00    +0.000 A 
ATOM      8  C   UNL     1       6.217   6.239  16.689  0.00  0.00    +0.000 A 
ATOM      9  N   UNL     1       6.618   5.603  15.583  0.00  0.00    +0.000 NA
ATOM     10  C   UNL     1       6.009   4.445  15.303  0.00  0.00    +0.000 A 
ATOM     11  N   UNL     1       6.451   3.760  14.184  0.00  0.00    +0.000 N 
ATOM     12  N   UNL     1       4.994   3.908  15.987  0.00  0.00    +0.000 NA
ATOM     13  C   UNL     1       2.379   4.906  18.100  0.00  0.00    +0.000 C 
ATOM     14  C   UNL     1       1.823   4.577  19.502  0.00  0.00    +0.000 C 
ATOM     15  H   UNL     1       6.909   4.397  13.549  0.00  0.00    +0.000 HD
ATOM     16  H   UNL     1       5.709   3.178  13.824  0.00  0.00    +0.000 HD
ENDROOT
BRANCH   8  17
ATOM     17  N   UNL     1       6.912   7.349  17.183  0.00  0.00    +0.000 N 
ATOM     18  H   UNL     1       7.298   7.929  16.439  0.00  0.00    +0.000 HD
BRANCH  17  19
ATOM     19  C   UNL     1       7.929   7.079  18.191  0.00  0.00    +0.000 C 
BRANCH  19  20
ATOM     20  C   UNL     1       7.703   5.652  18.717  0.00  0.00    +0.000 C 
BRANCH  20  21
ATOM     21  O   UNL     1       7.765   5.624  20.149  0.00  0.00    +0.000 OA
ATOM     22  H   UNL     1       8.672   5.377  20.395  0.00  0.00    +0.000 HD
ENDBRANCH  20  21
ENDBRANCH  19  20
ENDBRANCH  17  19
ENDBRANCH   8  17
TORSDOF 4
ENDMDL
MODEL 8
REMARK VINA RESULT:      -6.3      3.983      7.372
REMARK  Name = 
REMARK  5 active torsions:
REMARK  status: ('A' for Active; 'I' for Inactive)
REMARK    1  A    between atoms: C_1  and  N_2
REMARK    2  A    between atoms: C_8  and  N_9
REMARK    3  A    between atoms: N_9  and  C_10
REMARK    4  A    between atoms: C_10  and  C_11
REMARK    5  A    between atoms: C_11  and  O_12
REMARK                            x       y       z     vdW  Elec       q    Type
REMARK                         _______ _______ _______ _____ _____    ______ ____
ROOT
ATOM      1  C   UNL     1       7.136   4.833  14.904  0.00  0.00    +0.000 C 
ATOM      2  N   UNL     1       6.499   4.352  16.130  0.00  0.00    +0.000 NA
ATOM      3  C   UNL     1       5.089   3.957  15.862  0.00  0.00    +0.000 C 
ATOM      4  C   UNL     1       4.297   3.571  17.142  0.00  0.00    +0.000 C 
ATOM      5  N   UNL     1       4.390   4.699  18.064  0.00  0.00    +0.000 N 
ATOM      6  C   UNL     1       3.378   4.939  18.972  0.00  0.00    +0.000 A 
ATOM      7  C   UNL     1       3.180   6.240  19.378  0.00  0.00    +0.000 A 
ATOM      8  C   UNL     1       2.164   6.509  20.267  0.00  0.00    +0.000 A 
ATOM      9  N   UNL     1       1.363   5.534  20.712  0.00  0.00    +0.000 NA
ATOM     10  C   UNL     1       1.576   4.309  20.217  0.00  0.00    +0.000 A 
ATOM     11  N   UNL     1       0.721   3.306  20.639  0.00  0.00    +0.000 N 
ATOM     12  N   UNL     1       2.557   3.963  19.378  0.00  0.00    +0.000 NA
ATOM     13  C   UNL     1       5.768   5.024  18.448  0.00  0.00    +0.000 C 
ATOM     14  C   UNL     1       6.544   5.409  17.170  0.00  0.00    +0.000 C 
ATOM     15  H   UNL     1       0.299   3.561  21.520  0.00  0.00    +0.000 HD
ATOM     16  H   UNL     1       1.185   2.412  20.574  0.00  0.00    +0.000 HD
ENDROOT
BRANCH   8  17
ATOM     17  N   UNL     1       1.910   7.852  20.563  0.00  0.00    +0.000 N 
ATOM     18  H   UNL     1       2.744   8.347  20.874  0.00  0.00    +0.000 HD
BRANCH  17  19
ATOM     19  C   UNL     1       0.800   8.114  21.471  0.00  0.00    +0.000 C 
BRANCH  19  20
ATOM     20  C   UNL     1       0.907   9.574  21.938  0.00  0.00    +0.000 C 
BRANCH  20  21
ATOM     21  O   UNL     1       0.742   9.665  23.360  0.00  0.00    +0.000 OA
ATOM     22  H   UNL     1      -0.029   9.122  23.598  0.00  0.00    +0.000 HD
ENDBRANCH  20  21
ENDBRANCH  19  20
ENDBRANCH  17  19
ENDBRANCH   8  17
TORSDOF 4
ENDMDL
MODEL 9
REMARK VINA RESULT:      -6.1      2.941      4.797
REMARK  Name = 
REMARK  5 active torsions:
REMARK  status: ('A' for Active; 'I' for Inactive)
REMARK    1  A    between atoms: C_1  and  N_2
REMARK    2  A    between atoms: C_8  and  N_9
REMARK    3  A    between atoms: N_9  and  C_10
REMARK    4  A    between atoms: C_10  and  C_11
REMARK    5  A    between atoms: C_11  and  O_12
REMARK                            x       y       z     vdW  Elec       q    Type
REMARK                         _______ _______ _______ _____ _____    ______ ____
ROOT
ATOM      1  C   UNL     1       1.058  10.547  19.776  0.00  0.00    +0.000 C 
ATOM      2  N   UNL     1       1.104   9.114  19.484  0.00  0.00    +0.000 NA
ATOM      3  C   UNL     1       1.418   8.343  20.718  0.00  0.00    +0.000 C 
ATOM      4  C   UNL     1       1.628   6.824  20.465  0.00  0.00    +0.000 C 
ATOM      5  N   UNL     1       2.670   6.695  19.451  0.00  0.00    +0.000 N 
ATOM      6  C   UNL     1       3.482   5.578  19.428  0.00  0.00    +0.000 A 
ATOM      7  C   UNL     1       4.753   5.725  18.916  0.00  0.00    +0.000 A 
ATOM      8  C   UNL     1       5.590   4.632  18.901  0.00  0.00    +0.000 A 
ATOM      9  N   UNL     1       5.194   3.454  19.397  0.00  0.00    +0.000 NA
ATOM     10  C   UNL     1       3.971   3.412  19.939  0.00  0.00    +0.000 A 
ATOM     11  N   UNL     1       3.574   2.209  20.495  0.00  0.00    +0.000 N 
ATOM     12  N   UNL     1       3.090   4.417  19.964  0.00  0.00    +0.000 NA
ATOM     13  C   UNL     1       2.324   7.336  18.177  0.00  0.00    +0.000 C 
ATOM     14  C   UNL     1       2.121   8.844  18.439  0.00  0.00    +0.000 C 
ATOM     15  H   UNL     1       4.108   1.452  20.094  0.00  0.00    +0.000 HD
ATOM     16  H   UNL     1       2.567   2.141  20.480  0.00  0.00    +0.000 HD
ENDROOT
BRANCH   8  17
ATOM     17  N   UNL     1       6.911   4.842  18.491  0.00  0.00    +0.000 N 
ATOM     18  H   UNL     1       7.503   5.186  19.245  0.00  0.00    +0.000 HD
BRANCH  17  19
ATOM     19  C   UNL     1       7.095   5.654  17.295  0.00  0.00    +0.000 C 
BRANCH  19  20
ATOM     20  C   UNL     1       7.009   4.722  16.075  0.00  0.00    +0.000 C 
BRANCH  20  21
ATOM     21  O   UNL     1       7.650   5.315  14.938  0.00  0.00    +0.000 OA
ATOM     22  H   UNL     1       8.236   6.017  15.269  0.00  0.00    +0.000 HD
ENDBRANCH  20  21
ENDBRANCH  19  20
ENDBRANCH  17  19
ENDBRANCH   8  17
TORSDOF 4
ENDMDL
