MODEL 1
REMARK VINA RESULT:      -7.3      0.000      0.000
REMARK  Name = 
REMARK  12 active torsions:
REMARK  status: ('A' for Active; 'I' for Inactive)
REMARK    1  A    between atoms: N_1  and  C_2
REMARK    2  A    between atoms: N_10  and  C_11
REMARK    3  A    between atoms: C_13  and  C_14
REMARK    4  A    between atoms: C_14  and  S_15
REMARK    5  A    between atoms: S_15  and  C_17
REMARK    6  A    between atoms: C_17  and  C_18
REMARK    7  A    between atoms: C_18  and  CA_19
REMARK    8  A    between atoms: CA_19  and  N_20
REMARK    9  A    between atoms: CA_19  and  C_21
REMARK   10  A    between atoms: C_21  and  OXT_23
REMARK   11  A    between atoms: C_24  and  O_25
REMARK   12  A    between atoms: C_26  and  O_27
REMARK                            x       y       z     vdW  Elec       q    Type
REMARK                         _______ _______ _______ _____ _____    ______ ____
ROOT
ATOM      1  C   UNL     1       3.041   5.623  19.694  0.00  0.00    +0.000 C 
ATOM      2  O   UNL     1       4.457   5.450  19.510  0.00  0.00    +0.000 OA
ATOM      3  C   UNL     1       4.727   4.063  19.195  0.00  0.00    +0.000 C 
ATOM      4  C   UNL     1       3.407   3.317  19.377  0.00  0.00    +0.000 C 
ATOM      5  C   UNL     1       2.352   4.384  19.128  0.00  0.00    +0.000 C 
ENDROOT
BRANCH   1  14
ATOM      6  C   UNL     1       1.117  10.032  19.045  0.00  0.00    +0.000 A 
ATOM      7  N   UNL     1       0.582  10.127  20.284  0.00  0.00    +0.000 NA
ATOM      8  C   UNL     1       0.725   9.083  21.124  0.00  0.00    +0.000 A 
ATOM      9  N   UNL     1       1.359   7.908  20.912  0.00  0.00    +0.000 NA
ATOM     10  C   UNL     1       1.891   7.873  19.677  0.00  0.00    +0.000 A 
ATOM     11  C   UNL     1       1.820   8.863  18.708  0.00  0.00    +0.000 A 
ATOM     12  N   UNL     1       2.503   8.490  17.570  0.00  0.00    +0.000 NA
ATOM     13  C   UNL     1       2.974   7.293  17.840  0.00  0.00    +0.000 A 
ATOM     14  N   UNL     1       2.635   6.878  19.102  0.00  0.00    +0.000 N 
BRANCH   6  15
ATOM     15  N   UNL     1       0.974  11.108  18.179  0.00  0.00    +0.000 N 
ATOM     16  H   UNL     1       1.789  11.239  17.594  0.00  0.00    +0.000 HD
ATOM     17  H   UNL     1       0.065  11.145  17.734  0.00  0.00    +0.000 HD
ENDBRANCH   6  15
ENDBRANCH   1  14
BRANCH   4  18
ATOM     18  O   UNL     1       3.240   2.854  20.732  0.00  0.00    +0.000 OA
ATOM     19  H   UNL     1       3.161   1.881  20.736  0.00  0.00    +0.000 HD
ENDBRANCH   4  18
BRANCH   5  20
ATOM     20  O   UNL     1       1.131   4.081  19.801  0.00  0.00    +0.000 OA
ATOM     21  H   UNL     1       1.310   4.199  20.759  0.00  0.00    +0.000 HD
ENDBRANCH   5  20
BRANCH   3  22
ATOM     22  C   UNL     1       5.310   3.955  17.785  0.00  0.00    +0.000 C 
BRANCH  22  23
ATOM     23  S   UNL     1       6.648   5.194  17.623  0.00  0.00    +0.000 S 
ATOM     24  O   UNL     1       7.926   4.414  17.132  0.00  0.00    +0.000 OA
BRANCH  23  25
ATOM     25  C   UNL     1       5.988   6.068  16.169  0.00  0.00    +0.000 C 
BRANCH  25  26
ATOM     26  C   UNL     1       5.550   5.082  15.082  0.00  0.00    +0.000 C 
BRANCH  26  27
ATOM     27  CA  UNL     1       6.682   4.384  14.305  0.00  0.00    +0.000 C 
BRANCH  27  28
ATOM     28  N   UNL     1       7.754   5.378  14.039  0.00  0.00    +0.000 NA
ATOM     29  H1  UNL     1       7.965   5.850  14.924  0.00  0.00    +0.000 HD
ATOM     30  H2  UNL     1       7.361   6.120  13.457  0.00  0.00    +0.000 HD
ENDBRANCH  27  28
BRANCH  27  31
ATOM     31  C   UNL     1       6.174   3.808  12.973  0.00  0.00    +0.000 C 
ATOM     32  O   UNL     1       6.916   3.468  12.057  0.00  0.00    +0.000 OA
BRANCH  31  33
ATOM     33  OXT UNL     1       4.830   3.731  12.870  0.00  0.00    +0.000 OA
ATOM     34  HXT UNL     1       4.386   3.325  13.660  0.00  0.00    +0.000 HD
ENDBRANCH  31  33
ENDBRANCH  27  31
ENDBRANCH  26  27
ENDBRANCH  25  26
ENDBRANCH  23  25
ENDBRANCH  22  23
ENDBRANCH   3  22
TORSDOF 12
ENDMDL
MODEL 2
REMARK VINA RESULT:      -7.2      2.203      2.915
REMARK  Name = 
REMARK  12 active torsions:
REMARK  status: ('A' for Active; 'I' for Inactive)
REMARK    1  A    between atoms: N_1  and  C_2
REMARK    2  A    between atoms: N_10  and  C_11
REMARK    3  A    between atoms: C_13  and  C_14
REMARK    4  A    between atoms: C_14  and  S_15
REMARK    5  A    between atoms: S_15  and  C_17
REMARK    6  A    between atoms: C_17  and  C_18
REMARK    7  A    between atoms: C_18  and  CA_19
REMARK    8  A    between atoms: CA_19  and  N_20
REMARK    9  A    between atoms: CA_19  and  C_21
REMARK   10  A    between atoms: C_21  and  OXT_23
REMARK   11  A    between atoms: C_24  and  O_25
REMARK   12  A    between atoms: C_26  and  O_27
REMARK                            x       y       z     vdW  Elec       q    Type
REMARK                         _______ _______ _______ _____ _____    ______ ____
ROOT
ATOM      1  C   UNL     1       2.890   6.092  19.447  0.00  0.00    +0.000 C 
ATOM      2  O   UNL     1       3.986   5.668  18.618  0.00  0.00    +0.000 OA
ATOM      3  C   UNL     1       3.879   4.244  18.383  0.00  0.00    +0.000 C 
ATOM      4  C   UNL     1       2.744   3.746  19.277  0.00  0.00    +0.000 C 
ATOM      5  C   UNL     1       1.856   4.969  19.446  0.00  0.00    +0.000 C 
ENDROOT
BRANCH   1  14
ATOM      6  C   UNL     1       0.776  10.457  19.258  0.00  0.00    +0.000 A 
ATOM      7  N   UNL     1       0.303  10.431  20.525  0.00  0.00    +0.000 NA
ATOM      8  C   UNL     1       0.527   9.329  21.268  0.00  0.00    +0.000 A 
ATOM      9  N   UNL     1       1.192   8.202  20.930  0.00  0.00    +0.000 NA
ATOM     10  C   UNL     1       1.659   8.287  19.671  0.00  0.00    +0.000 A 
ATOM     11  C   UNL     1       1.502   9.349  18.792  0.00  0.00    +0.000 A 
ATOM     12  N   UNL     1       2.138   9.095  17.594  0.00  0.00    +0.000 NA
ATOM     13  C   UNL     1       2.666   7.900  17.742  0.00  0.00    +0.000 A 
ATOM     14  N   UNL     1       2.409   7.373  18.981  0.00  0.00    +0.000 N 
BRANCH   6  15
ATOM     15  N   UNL     1       0.549  11.592  18.491  0.00  0.00    +0.000 N 
ATOM     16  H   UNL     1       0.004  11.392  17.663  0.00  0.00    +0.000 HD
ATOM     17  H   UNL     1       0.287  12.402  19.041  0.00  0.00    +0.000 HD
ENDBRANCH   6  15
ENDBRANCH   1  14
BRANCH   4  18
ATOM     18  O   UNL     1       3.222   3.375  20.585  0.00  0.00    +0.000 OA
ATOM     19  H   UNL     1       3.014   4.087  21.221  0.00  0.00    +0.000 HD
ENDBRANCH   4  18
BRANCH   5  20
ATOM     20  O   UNL     1       1.110   4.910  20.661  0.00  0.00    +0.000 OA
ATOM     21  H   UNL     1       0.770   3.993  20.730  0.00  0.00    +0.000 HD
ENDBRANCH   5  20
BRANCH   3  22
ATOM     22  C   UNL     1       3.655   3.978  16.893  0.00  0.00    +0.000 C 
BRANCH  22  23
ATOM     23  S   UNL     1       5.285   3.986  16.061  0.00  0.00    +0.000 S 
ATOM     24  O   UNL     1       5.485   5.436  15.475  0.00  0.00    +0.000 OA
BRANCH  23  25
ATOM     25  C   UNL     1       6.317   3.890  17.558  0.00  0.00    +0.000 C 
BRANCH  25  26
ATOM     26  C   UNL     1       7.581   4.742  17.415  0.00  0.00    +0.000 C 
BRANCH  26  27
ATOM     27  CA  UNL     1       7.784   5.838  18.477  0.00  0.00    +0.000 C 
BRANCH  27  28
ATOM     28  N   UNL     1       6.938   5.515  19.655  0.00  0.00    +0.000 NA
ATOM     29  H1  UNL     1       6.430   6.366  19.914  0.00  0.00    +0.000 HD
ATOM     30  H2  UNL     1       7.554   5.348  20.453  0.00  0.00    +0.000 HD
ENDBRANCH  27  28
BRANCH  27  31
ATOM     31  C   UNL     1       7.398   7.224  17.933  0.00  0.00    +0.000 C 
ATOM     32  O   UNL     1       8.130   8.206  18.005  0.00  0.00    +0.000 OA
BRANCH  31  33
ATOM     33  OXT UNL     1       6.165   7.289  17.389  0.00  0.00    +0.000 OA
ATOM     34  HXT UNL     1       6.147   7.144  16.407  0.00  0.00    +0.000 HD
ENDBRANCH  31  33
ENDBRANCH  27  31
ENDBRANCH  26  27
ENDBRANCH  25  26
ENDBRANCH  23  25
ENDBRANCH  22  23
ENDBRANCH   3  22
TORSDOF 12
ENDMDL
MODEL 3
REMARK VINA RESULT:      -7.1      1.033      1.245
REMARK  Name = 
REMARK  12 active torsions:
REMARK  status: ('A' for Active; 'I' for Inactive)
REMARK    1  A    between atoms: N_1  and  C_2
REMARK    2  A    between atoms: N_10  and  C_11
REMARK    3  A    between atoms: C_13  and  C_14
REMARK    4  A    between atoms: C_14  and  S_15
REMARK    5  A    between atoms: S_15  and  C_17
REMARK    6  A    between atoms: C_17  and  C_18
REMARK    7  A    between atoms: C_18  and  CA_19
REMARK    8  A    between atoms: CA_19  and  N_20
REMARK    9  A    between atoms: CA_19  and  C_21
REMARK   10  A    between atoms: C_21  and  OXT_23
REMARK   11  A    between atoms: C_24  and  O_25
REMARK   12  A    between atoms: C_26  and  O_27
REMARK                            x       y       z     vdW  Elec       q    Type
REMARK                         _______ _______ _______ _____ _____    ______ ____
ROOT
ATOM      1  C   UNL     1       3.300   5.511  18.993  0.00  0.00    +0.000 C 
ATOM      2  O   UNL     1       4.681   5.381  18.614  0.00  0.00    +0.000 OA
ATOM      3  C   UNL     1       4.905   4.049  18.093  0.00  0.00    +0.000 C 
ATOM      4  C   UNL     1       3.616   3.269  18.340  0.00  0.00    +0.000 C 
ATOM      5  C   UNL     1       2.541   4.345  18.363  0.00  0.00    +0.000 C 
ENDROOT
BRANCH   1  14
ATOM      6  C   UNL     1       1.185   9.878  19.114  0.00  0.00    +0.000 A 
ATOM      7  N   UNL     1       0.684   9.749  20.364  0.00  0.00    +0.000 NA
ATOM      8  C   UNL     1       0.893   8.590  21.019  0.00  0.00    +0.000 A 
ATOM      9  N   UNL     1       1.567   7.494  20.605  0.00  0.00    +0.000 NA
ATOM     10  C   UNL     1       2.062   7.681  19.368  0.00  0.00    +0.000 A 
ATOM     11  C   UNL     1       1.923   8.811  18.575  0.00  0.00    +0.000 A 
ATOM     12  N   UNL     1       2.585   8.655  17.375  0.00  0.00    +0.000 NA
ATOM     13  C   UNL     1       3.111   7.452  17.436  0.00  0.00    +0.000 A 
ATOM     14  N   UNL     1       2.827   6.826  18.622  0.00  0.00    +0.000 N 
BRANCH   6  15
ATOM     15  N   UNL     1       0.974  11.072  18.437  0.00  0.00    +0.000 N 
ATOM     16  H   UNL     1      -0.008  11.305  18.370  0.00  0.00    +0.000 HD
ATOM     17  H   UNL     1       1.614  11.808  18.713  0.00  0.00    +0.000 HD
ENDBRANCH   6  15
ENDBRANCH   1  14
BRANCH   4  18
ATOM     18  O   UNL     1       3.618   2.634  19.635  0.00  0.00    +0.000 OA
ATOM     19  H   UNL     1       3.704   1.668  19.523  0.00  0.00    +0.000 HD
ENDBRANCH   4  18
BRANCH   5  20
ATOM     20  O   UNL     1       1.413   3.943  19.138  0.00  0.00    +0.000 OA
ATOM     21  H   UNL     1       0.718   3.684  18.496  0.00  0.00    +0.000 HD
ENDBRANCH   5  20
BRANCH   3  22
ATOM     22  C   UNL     1       5.307   4.129  16.618  0.00  0.00    +0.000 C 
BRANCH  22  23
ATOM     23  S   UNL     1       6.776   5.213  16.486  0.00  0.00    +0.000 S 
ATOM     24  O   UNL     1       8.000   4.380  17.024  0.00  0.00    +0.000 OA
BRANCH  23  25
ATOM     25  C   UNL     1       6.910   5.211  14.670  0.00  0.00    +0.000 C 
BRANCH  25  26
ATOM     26  C   UNL     1       6.014   4.133  14.051  0.00  0.00    +0.000 C 
BRANCH  26  27
ATOM     27  CA  UNL     1       6.560   3.441  12.788  0.00  0.00    +0.000 C 
BRANCH  27  28
ATOM     28  N   UNL     1       7.256   4.457  11.957  0.00  0.00    +0.000 NA
ATOM     29  H1  UNL     1       6.539   4.998  11.465  0.00  0.00    +0.000 HD
ATOM     30  H2  UNL     1       7.750   3.970  11.207  0.00  0.00    +0.000 HD
ENDBRANCH  27  28
BRANCH  27  31
ATOM     31  C   UNL     1       5.428   2.797  11.970  0.00  0.00    +0.000 C 
ATOM     32  O   UNL     1       4.355   3.350  11.750  0.00  0.00    +0.000 OA
BRANCH  31  33
ATOM     33  OXT UNL     1       5.694   1.550  11.529  0.00  0.00    +0.000 OA
ATOM     34  HXT UNL     1       5.093   1.239  10.802  0.00  0.00    +0.000 HD
ENDBRANCH  31  33
ENDBRANCH  27  31
ENDBRANCH  26  27
ENDBRANCH  25  26
ENDBRANCH  23  25
ENDBRANCH  22  23
ENDBRANCH   3  22
TORSDOF 12
ENDMDL
MODEL 4
REMARK VINA RESULT:      -7.1      1.353      1.416
REMARK  Name = 
REMARK  12 active torsions:
REMARK  status: ('A' for Active; 'I' for Inactive)
REMARK    1  A    between atoms: N_1  and  C_2
REMARK    2  A    between atoms: N_10  and  C_11
REMARK    3  A    between atoms: C_13  and  C_14
REMARK    4  A    between atoms: C_14  and  S_15
REMARK    5  A    between atoms: S_15  and  C_17
REMARK    6  A    between atoms: C_17  and  C_18
REMARK    7  A    between atoms: C_18  and  CA_19
REMARK    8  A    between atoms: CA_19  and  N_20
REMARK    9  A    between atoms: CA_19  and  C_21
REMARK   10  A    between atoms: C_21  and  OXT_23
REMARK   11  A    between atoms: C_24  and  O_25
REMARK   12  A    between atoms: C_26  and  O_27
REMARK                            x       y       z     vdW  Elec       q    Type
REMARK                         _______ _______ _______ _____ _____    ______ ____
ROOT
ATOM      1  C   UNL     1       2.573   5.371  19.182  0.00  0.00    +0.000 C 
ATOM      2  O   UNL     1       3.869   5.223  19.789  0.00  0.00    +0.000 OA
ATOM      3  C   UNL     1       4.435   3.951  19.392  0.00  0.00    +0.000 C 
ATOM      4  C   UNL     1       3.333   3.207  18.640  0.00  0.00    +0.000 C 
ATOM      5  C   UNL     1       2.463   4.321  18.079  0.00  0.00    +0.000 C 
ENDROOT
BRANCH   1  14
ATOM      6  C   UNL     1       1.473  10.098  19.084  0.00  0.00    +0.000 A 
ATOM      7  N   UNL     1       0.944  10.137  20.329  0.00  0.00    +0.000 NA
ATOM      8  C   UNL     1       0.887   8.991  21.035  0.00  0.00    +0.000 A 
ATOM      9  N   UNL     1       1.306   7.756  20.679  0.00  0.00    +0.000 NA
ATOM     10  C   UNL     1       1.841   7.775  19.445  0.00  0.00    +0.000 A 
ATOM     11  C   UNL     1       1.961   8.871  18.604  0.00  0.00    +0.000 A 
ATOM     12  N   UNL     1       2.584   8.521  17.423  0.00  0.00    +0.000 NA
ATOM     13  C   UNL     1       2.831   7.236  17.544  0.00  0.00    +0.000 A 
ATOM     14  N   UNL     1       2.405   6.740  18.749  0.00  0.00    +0.000 N 
BRANCH   6  15
ATOM     15  N   UNL     1       1.536  11.278  18.355  0.00  0.00    +0.000 N 
ATOM     16  H   UNL     1       1.158  12.064  18.867  0.00  0.00    +0.000 HD
ATOM     17  H   UNL     1       2.421  11.407  17.879  0.00  0.00    +0.000 HD
ENDBRANCH   6  15
ENDBRANCH   1  14
BRANCH   4  18
ATOM     18  O   UNL     1       2.512   2.429  19.535  0.00  0.00    +0.000 OA
ATOM     19  H   UNL     1       2.163   1.650  19.060  0.00  0.00    +0.000 HD
ENDBRANCH   4  18
BRANCH   5  20
ATOM     20  O   UNL     1       1.121   3.884  17.872  0.00  0.00    +0.000 OA
ATOM     21  H   UNL     1       0.573   4.360  18.533  0.00  0.00    +0.000 HD
ENDBRANCH   5  20
BRANCH   3  22
ATOM     22  C   UNL     1       5.701   4.182  18.564  0.00  0.00    +0.000 C 
BRANCH  22  23
ATOM     23  S   UNL     1       6.457   5.759  19.106  0.00  0.00    +0.000 S 
ATOM     24  O   UNL     1       7.574   5.385  20.154  0.00  0.00    +0.000 OA
BRANCH  23  25
ATOM     25  C   UNL     1       7.321   6.155  17.553  0.00  0.00    +0.000 C 
BRANCH  25  26
ATOM     26  C   UNL     1       7.329   4.953  16.602  0.00  0.00    +0.000 C 
BRANCH  26  27
ATOM     27  CA  UNL     1       6.760   5.200  15.193  0.00  0.00    +0.000 C 
BRANCH  27  28
ATOM     28  N   UNL     1       5.625   6.153  15.303  0.00  0.00    +0.000 NA
ATOM     29  H1  UNL     1       5.490   6.361  16.297  0.00  0.00    +0.000 HD
ATOM     30  H2  UNL     1       4.770   5.659  15.041  0.00  0.00    +0.000 HD
ENDBRANCH  27  28
BRANCH  27  31
ATOM     31  C   UNL     1       6.271   3.892  14.550  0.00  0.00    +0.000 C 
ATOM     32  O   UNL     1       6.153   3.737  13.338  0.00  0.00    +0.000 OA
BRANCH  31  33
ATOM     33  OXT UNL     1       5.946   2.921  15.430  0.00  0.00    +0.000 OA
ATOM     34  HXT UNL     1       5.258   2.287  15.099  0.00  0.00    +0.000 HD
ENDBRANCH  31  33
ENDBRANCH  27  31
ENDBRANCH  26  27
ENDBRANCH  25  26
ENDBRANCH  23  25
ENDBRANCH  22  23
ENDBRANCH   3  22
TORSDOF 12
ENDMDL
MODEL 5
REMARK VINA RESULT:      -7.0      4.105      7.578
REMARK  Name = 
REMARK  12 active torsions:
REMARK  status: ('A' for Active; 'I' for Inactive)
REMARK    1  A    between atoms: N_1  and  C_2
REMARK    2  A    between atoms: N_10  and  C_11
REMARK    3  A    between atoms: C_13  and  C_14
REMARK    4  A    between atoms: C_14  and  S_15
REMARK    5  A    between atoms: S_15  and  C_17
REMARK    6  A    between atoms: C_17  and  C_18
REMARK    7  A    between atoms: C_18  and  CA_19
REMARK    8  A    between atoms: CA_19  and  N_20
REMARK    9  A    between atoms: CA_19  and  C_21
REMARK   10  A    between atoms: C_21  and  OXT_23
REMARK   11  A    between atoms: C_24  and  O_25
REMARK   12  A    between atoms: C_26  and  O_27
REMARK                            x       y       z     vdW  Elec       q    Type
REMARK                         _______ _______ _______ _____ _____    ______ ____
ROOT
ATOM      1  C   UNL     1       7.387   5.127  17.066  0.00  0.00    +0.000 C 
ATOM      2  O   UNL     1       6.968   4.398  18.233  0.00  0.00    +0.000 OA
ATOM      3  C   UNL     1       6.715   5.333  19.309  0.00  0.00    +0.000 C 
ATOM      4  C   UNL     1       7.183   6.699  18.809  0.00  0.00    +0.000 C 
ATOM      5  C   UNL     1       7.046   6.597  17.298  0.00  0.00    +0.000 C 
ENDROOT
BRANCH   1  14
ATOM      6  C   UNL     1       6.419   3.904  12.469  0.00  0.00    +0.000 A 
ATOM      7  N   UNL     1       7.383   4.678  11.920  0.00  0.00    +0.000 NA
ATOM      8  C   UNL     1       8.136   5.438  12.739  0.00  0.00    +0.000 A 
ATOM      9  N   UNL     1       8.081   5.540  14.085  0.00  0.00    +0.000 NA
ATOM     10  C   UNL     1       7.123   4.737  14.583  0.00  0.00    +0.000 A 
ATOM     11  C   UNL     1       6.272   3.909  13.866  0.00  0.00    +0.000 A 
ATOM     12  N   UNL     1       5.433   3.213  14.712  0.00  0.00    +0.000 NA
ATOM     13  C   UNL     1       5.765   3.616  15.918  0.00  0.00    +0.000 A 
ATOM     14  N   UNL     1       6.784   4.532  15.893  0.00  0.00    +0.000 N 
BRANCH   6  15
ATOM     15  N   UNL     1       5.643   3.117  11.628  0.00  0.00    +0.000 N 
ATOM     16  H   UNL     1       6.186   2.398  11.168  0.00  0.00    +0.000 HD
ATOM     17  H   UNL     1       4.756   2.848  12.037  0.00  0.00    +0.000 HD
ENDBRANCH   6  15
ENDBRANCH   1  14
BRANCH   4  18
ATOM     18  O   UNL     1       8.577   6.922  19.101  0.00  0.00    +0.000 OA
ATOM     19  H   UNL     1       9.119   6.620  18.348  0.00  0.00    +0.000 HD
ENDBRANCH   4  18
BRANCH   5  20
ATOM     20  O   UNL     1       7.945   7.479  16.630  0.00  0.00    +0.000 OA
ATOM     21  H   UNL     1       7.791   7.351  15.669  0.00  0.00    +0.000 HD
ENDBRANCH   5  20
BRANCH   3  22
ATOM     22  C   UNL     1       5.235   5.290  19.697  0.00  0.00    +0.000 C 
BRANCH  22  23
ATOM     23  S   UNL     1       4.510   3.756  19.010  0.00  0.00    +0.000 S 
ATOM     24  O   UNL     1       4.510   2.697  20.177  0.00  0.00    +0.000 OA
BRANCH  23  25
ATOM     25  C   UNL     1       2.797   4.351  18.855  0.00  0.00    +0.000 C 
BRANCH  25  26
ATOM     26  C   UNL     1       2.103   4.400  20.220  0.00  0.00    +0.000 C 
BRANCH  26  27
ATOM     27  CA  UNL     1       1.171   3.220  20.550  0.00  0.00    +0.000 C 
BRANCH  27  28
ATOM     28  N   UNL     1       1.742   2.477  21.704  0.00  0.00    +0.000 NA
ATOM     29  H1  UNL     1       2.567   1.970  21.368  0.00  0.00    +0.000 HD
ATOM     30  H2  UNL     1       1.088   1.734  21.958  0.00  0.00    +0.000 HD
ENDBRANCH  27  28
BRANCH  27  31
ATOM     31  C   UNL     1       1.026   2.269  19.349  0.00  0.00    +0.000 C 
ATOM     32  O   UNL     1       0.124   2.358  18.522  0.00  0.00    +0.000 OA
BRANCH  31  33
ATOM     33  OXT UNL     1       1.960   1.297  19.287  0.00  0.00    +0.000 OA
ATOM     34  HXT UNL     1       2.889   1.618  19.421  0.00  0.00    +0.000 HD
ENDBRANCH  31  33
ENDBRANCH  27  31
ENDBRANCH  26  27
ENDBRANCH  25  26
ENDBRANCH  23  25
ENDBRANCH  22  23
ENDBRANCH   3  22
TORSDOF 12
ENDMDL
MODEL 6
REMARK VINA RESULT:      -7.0      0.975      1.154
REMARK  Name = 
REMARK  12 active torsions:
REMARK  status: ('A' for Active; 'I' for Inactive)
REMARK    1  A    between atoms: N_1  and  C_2
REMARK    2  A    between atoms: N_10  and  C_11
REMARK    3  A    between atoms: C_13  and  C_14
REMARK    4  A    between atoms: C_14  and  S_15
REMARK    5  A    between atoms: S_15  and  C_17
REMARK    6  A    between atoms: C_17  and  C_18
REMARK    7  A    between atoms: C_18  and  CA_19
REMARK    8  A    between atoms: CA_19  and  N_20
REMARK    9  A    between atoms: CA_19  and  C_21
REMARK   10  A    between atoms: C_21  and  OXT_23
REMARK   11  A    between atoms: C_24  and  O_25
REMARK   12  A    between atoms: C_26  and  O_27
REMARK                            x       y       z     vdW  Elec       q    Type
REMARK                         _______ _______ _______ _____ _____    ______ ____
ROOT
ATOM      1  C   UNL     1       2.857   5.653  19.779  0.00  0.00    +0.000 C 
ATOM      2  O   UNL     1       4.288   5.507  19.766  0.00  0.00    +0.000 OA
ATOM      3  C   UNL     1       4.621   4.132  19.461  0.00  0.00    +0.000 C 
ATOM      4  C   UNL     1       3.302   3.360  19.468  0.00  0.00    +0.000 C 
ATOM      5  C   UNL     1       2.266   4.414  19.111  0.00  0.00    +0.000 C 
ENDROOT
BRANCH   1  14
ATOM      6  C   UNL     1       1.134  10.133  19.058  0.00  0.00    +0.000 A 
ATOM      7  N   UNL     1       0.622  10.280  20.302  0.00  0.00    +0.000 NA
ATOM      8  C   UNL     1       0.728   9.249  21.163  0.00  0.00    +0.000 A 
ATOM      9  N   UNL     1       1.303   8.042  20.969  0.00  0.00    +0.000 NA
ATOM     10  C   UNL     1       1.814   7.954  19.727  0.00  0.00    +0.000 A 
ATOM     11  C   UNL     1       1.775   8.925  18.738  0.00  0.00    +0.000 A 
ATOM     12  N   UNL     1       2.423   8.495  17.598  0.00  0.00    +0.000 NA
ATOM     13  C   UNL     1       2.841   7.283  17.889  0.00  0.00    +0.000 A 
ATOM     14  N   UNL     1       2.502   6.913  19.164  0.00  0.00    +0.000 N 
BRANCH   6  15
ATOM     15  N   UNL     1       1.029  11.195  18.170  0.00  0.00    +0.000 N 
ATOM     16  H   UNL     1       0.101  11.599  18.165  0.00  0.00    +0.000 HD
ATOM     17  H   UNL     1       1.818  11.830  18.210  0.00  0.00    +0.000 HD
ENDBRANCH   6  15
ENDBRANCH   1  14
BRANCH   4  18
ATOM     18  O   UNL     1       2.981   2.867  20.784  0.00  0.00    +0.000 OA
ATOM     19  H   UNL     1       3.117   1.901  20.811  0.00  0.00    +0.000 HD
ENDBRANCH   4  18
BRANCH   5  20
ATOM     20  O   UNL     1       0.978   4.077  19.625  0.00  0.00    +0.000 OA
ATOM     21  H   UNL     1       1.018   4.240  20.592  0.00  0.00    +0.000 HD
ENDBRANCH   5  20
BRANCH   3  22
ATOM     22  C   UNL     1       5.372   4.062  18.130  0.00  0.00    +0.000 C 
BRANCH  22  23
ATOM     23  S   UNL     1       6.764   5.248  18.198  0.00  0.00    +0.000 S 
ATOM     24  O   UNL     1       8.087   4.391  18.184  0.00  0.00    +0.000 OA
BRANCH  23  25
ATOM     25  C   UNL     1       6.576   5.932  16.521  0.00  0.00    +0.000 C 
BRANCH  25  26
ATOM     26  C   UNL     1       7.358   5.104  15.496  0.00  0.00    +0.000 C 
BRANCH  26  27
ATOM     27  CA  UNL     1       6.628   4.796  14.176  0.00  0.00    +0.000 C 
BRANCH  27  28
ATOM     28  N   UNL     1       6.176   3.380  14.207  0.00  0.00    +0.000 NA
ATOM     29  H1  UNL     1       6.094   3.103  15.190  0.00  0.00    +0.000 HD
ATOM     30  H2  UNL     1       6.937   2.797  13.853  0.00  0.00    +0.000 HD
ENDBRANCH  27  28
BRANCH  27  31
ATOM     31  C   UNL     1       7.549   5.014  12.963  0.00  0.00    +0.000 C 
ATOM     32  O   UNL     1       7.400   4.438  11.890  0.00  0.00    +0.000 OA
BRANCH  31  33
ATOM     33  OXT UNL     1       8.566   5.874  13.178  0.00  0.00    +0.000 OA
ATOM     34  HXT UNL     1       9.112   5.664  13.980  0.00  0.00    +0.000 HD
ENDBRANCH  31  33
ENDBRANCH  27  31
ENDBRANCH  26  27
ENDBRANCH  25  26
ENDBRANCH  23  25
ENDBRANCH  22  23
ENDBRANCH   3  22
TORSDOF 12
ENDMDL
MODEL 7
REMARK VINA RESULT:      -7.0      1.322      1.503
REMARK  Name = 
REMARK  12 active torsions:
REMARK  status: ('A' for Active; 'I' for Inactive)
REMARK    1  A    between atoms: N_1  and  C_2
REMARK    2  A    between atoms: N_10  and  C_11
REMARK    3  A    between atoms: C_13  and  C_14
REMARK    4  A    between atoms: C_14  and  S_15
REMARK    5  A    between atoms: S_15  and  C_17
REMARK    6  A    between atoms: C_17  and  C_18
REMARK    7  A    between atoms: C_18  and  CA_19
REMARK    8  A    between atoms: CA_19  and  N_20
REMARK    9  A    between atoms: CA_19  and  C_21
REMARK   10  A    between atoms: C_21  and  OXT_23
REMARK   11  A    between atoms: C_24  and  O_25
REMARK   12  A    between atoms: C_26  and  O_27
REMARK                            x       y       z     vdW  Elec       q    Type
REMARK                         _______ _______ _______ _____ _____    ______ ____
ROOT
ATOM      1  C   UNL     1       2.234   5.065  20.462  0.00  0.00    +0.000 C 
ATOM      2  O   UNL     1       3.603   4.654  20.629  0.00  0.00    +0.000 OA
ATOM      3  C   UNL     1       3.672   3.209  20.582  0.00  0.00    +0.000 C 
ATOM      4  C   UNL     1       2.229   2.710  20.563  0.00  0.00    +0.000 C 
ATOM      5  C   UNL     1       1.458   3.860  19.934  0.00  0.00    +0.000 C 
ENDROOT
BRANCH   1  14
ATOM      6  C   UNL     1       1.551   9.601  18.876  0.00  0.00    +0.000 A 
ATOM      7  N   UNL     1       1.016  10.066  20.029  0.00  0.00    +0.000 NA
ATOM      8  C   UNL     1       0.853   9.203  21.051  0.00  0.00    +0.000 A 
ATOM      9  N   UNL     1       1.166   7.889  21.106  0.00  0.00    +0.000 NA
ATOM     10  C   UNL     1       1.712   7.482  19.946  0.00  0.00    +0.000 A 
ATOM     11  C   UNL     1       1.936   8.252  18.814  0.00  0.00    +0.000 A 
ATOM     12  N   UNL     1       2.537   7.505  17.821  0.00  0.00    +0.000 NA
ATOM     13  C   UNL     1       2.670   6.305  18.340  0.00  0.00    +0.000 A 
ATOM     14  N   UNL     1       2.191   6.241  19.622  0.00  0.00    +0.000 N 
BRANCH   6  15
ATOM     15  N   UNL     1       1.724  10.489  17.823  0.00  0.00    +0.000 N 
ATOM     16  H   UNL     1       2.197  10.063  17.037  0.00  0.00    +0.000 HD
ATOM     17  H   UNL     1       0.900  11.046  17.630  0.00  0.00    +0.000 HD
ENDBRANCH   6  15
ENDBRANCH   1  14
BRANCH   4  18
ATOM     18  O   UNL     1       1.713   2.524  21.896  0.00  0.00    +0.000 OA
ATOM     19  H   UNL     1       2.384   2.073  22.444  0.00  0.00    +0.000 HD
ENDBRANCH   4  18
BRANCH   5  20
ATOM     20  O   UNL     1       0.093   3.865  20.349  0.00  0.00    +0.000 OA
ATOM     21  H   UNL     1      -0.245   2.958  20.190  0.00  0.00    +0.000 HD
ENDBRANCH   5  20
BRANCH   3  22
ATOM     22  C   UNL     1       4.495   2.768  19.369  0.00  0.00    +0.000 C 
BRANCH  22  23
ATOM     23  S   UNL     1       5.168   4.267  18.561  0.00  0.00    +0.000 S 
ATOM     24  O   UNL     1       6.735   4.189  18.702  0.00  0.00    +0.000 OA
BRANCH  23  25
ATOM     25  C   UNL     1       4.782   3.805  16.843  0.00  0.00    +0.000 C 
BRANCH  25  26
ATOM     26  C   UNL     1       5.300   4.857  15.857  0.00  0.00    +0.000 C 
BRANCH  26  27
ATOM     27  CA  UNL     1       6.798   4.781  15.510  0.00  0.00    +0.000 C 
BRANCH  27  28
ATOM     28  N   UNL     1       7.455   6.026  15.985  0.00  0.00    +0.000 NA
ATOM     29  H1  UNL     1       6.717   6.693  16.227  0.00  0.00    +0.000 HD
ATOM     30  H2  UNL     1       7.923   6.462  15.187  0.00  0.00    +0.000 HD
ENDBRANCH  27  28
BRANCH  27  31
ATOM     31  C   UNL     1       7.013   4.633  13.994  0.00  0.00    +0.000 C 
ATOM     32  O   UNL     1       7.698   5.406  13.330  0.00  0.00    +0.000 OA
BRANCH  31  33
ATOM     33  OXT UNL     1       6.362   3.593  13.433  0.00  0.00    +0.000 OA
ATOM     34  HXT UNL     1       6.275   3.653  12.446  0.00  0.00    +0.000 HD
ENDBRANCH  31  33
ENDBRANCH  27  31
ENDBRANCH  26  27
ENDBRANCH  25  26
ENDBRANCH  23  25
ENDBRANCH  22  23
ENDBRANCH   3  22
TORSDOF 12
ENDMDL
MODEL 8
REMARK VINA RESULT:      -6.9      1.614      2.845
REMARK  Name = 
REMARK  12 active torsions:
REMARK  status: ('A' for Active; 'I' for Inactive)
REMARK    1  A    between atoms: N_1  and  C_2
REMARK    2  A    between atoms: N_10  and  C_11
REMARK    3  A    between atoms: C_13  and  C_14
REMARK    4  A    between atoms: C_14  and  S_15
REMARK    5  A    between atoms: S_15  and  C_17
REMARK    6  A    between atoms: C_17  and  C_18
REMARK    7  A    between atoms: C_18  and  CA_19
REMARK    8  A    between atoms: CA_19  and  N_20
REMARK    9  A    between atoms: CA_19  and  C_21
REMARK   10  A    between atoms: C_21  and  OXT_23
REMARK   11  A    between atoms: C_24  and  O_25
REMARK   12  A    between atoms: C_26  and  O_27
REMARK                            x       y       z     vdW  Elec       q    Type
REMARK                         _______ _______ _______ _____ _____    ______ ____
ROOT
ATOM      1  C   UNL     1       3.041   5.896  19.374  0.00  0.00    +0.000 C 
ATOM      2  O   UNL     1       4.201   5.545  18.600  0.00  0.00    +0.000 OA
ATOM      3  C   UNL     1       4.155   4.131  18.293  0.00  0.00    +0.000 C 
ATOM      4  C   UNL     1       2.982   3.557  19.086  0.00  0.00    +0.000 C 
ATOM      5  C   UNL     1       2.046   4.744  19.253  0.00  0.00    +0.000 C 
ENDROOT
BRANCH   1  14
ATOM      6  C   UNL     1       0.871  10.237  19.276  0.00  0.00    +0.000 A 
ATOM      7  N   UNL     1       0.379  10.168  20.535  0.00  0.00    +0.000 NA
ATOM      8  C   UNL     1       0.608   9.049  21.250  0.00  0.00    +0.000 A 
ATOM      9  N   UNL     1       1.293   7.941  20.890  0.00  0.00    +0.000 NA
ATOM     10  C   UNL     1       1.777   8.067  19.641  0.00  0.00    +0.000 A 
ATOM     11  C   UNL     1       1.619   9.151  18.790  0.00  0.00    +0.000 A 
ATOM     12  N   UNL     1       2.275   8.940  17.596  0.00  0.00    +0.000 NA
ATOM     13  C   UNL     1       2.817   7.749  17.717  0.00  0.00    +0.000 A 
ATOM     14  N   UNL     1       2.549   7.183  18.937  0.00  0.00    +0.000 N 
BRANCH   6  15
ATOM     15  N   UNL     1       0.640  11.390  18.538  0.00  0.00    +0.000 N 
ATOM     16  H   UNL     1       0.816  11.254  17.552  0.00  0.00    +0.000 HD
ATOM     17  H   UNL     1      -0.213  11.870  18.803  0.00  0.00    +0.000 HD
ENDBRANCH   6  15
ENDBRANCH   1  14
BRANCH   4  18
ATOM     18  O   UNL     1       3.387   3.138  20.404  0.00  0.00    +0.000 OA
ATOM     19  H   UNL     1       3.175   3.841  21.048  0.00  0.00    +0.000 HD
ENDBRANCH   4  18
BRANCH   5  20
ATOM     20  O   UNL     1       1.226   4.605  20.412  0.00  0.00    +0.000 OA
ATOM     21  H   UNL     1       0.472   4.035  20.149  0.00  0.00    +0.000 HD
ENDBRANCH   5  20
BRANCH   3  22
ATOM     22  C   UNL     1       4.036   3.931  16.781  0.00  0.00    +0.000 C 
BRANCH  22  23
ATOM     23  S   UNL     1       5.707   4.096  16.050  0.00  0.00    +0.000 S 
ATOM     24  O   UNL     1       5.584   3.656  14.542  0.00  0.00    +0.000 OA
BRANCH  23  25
ATOM     25  C   UNL     1       5.789   5.915  16.051  0.00  0.00    +0.000 C 
BRANCH  25  26
ATOM     26  C   UNL     1       7.147   6.408  16.560  0.00  0.00    +0.000 C 
BRANCH  26  27
ATOM     27  CA  UNL     1       7.237   6.710  18.067  0.00  0.00    +0.000 C 
BRANCH  27  28
ATOM     28  N   UNL     1       8.286   7.741  18.279  0.00  0.00    +0.000 NA
ATOM     29  H1  UNL     1       8.157   8.465  17.565  0.00  0.00    +0.000 HD
ATOM     30  H2  UNL     1       9.190   7.327  18.045  0.00  0.00    +0.000 HD
ENDBRANCH  27  28
BRANCH  27  31
ATOM     31  C   UNL     1       7.590   5.447  18.871  0.00  0.00    +0.000 C 
ATOM     32  O   UNL     1       8.282   4.536  18.428  0.00  0.00    +0.000 OA
BRANCH  31  33
ATOM     33  OXT UNL     1       7.051   5.399  20.107  0.00  0.00    +0.000 OA
ATOM     34  HXT UNL     1       6.148   4.988  20.140  0.00  0.00    +0.000 HD
ENDBRANCH  31  33
ENDBRANCH  27  31
ENDBRANCH  26  27
ENDBRANCH  25  26
ENDBRANCH  23  25
ENDBRANCH  22  23
ENDBRANCH   3  22
TORSDOF 12
ENDMDL
MODEL 9
REMARK VINA RESULT:      -6.9      1.414      1.512
REMARK  Name = 
REMARK  12 active torsions:
REMARK  status: ('A' for Active; 'I' for Inactive)
REMARK    1  A    between atoms: N_1  and  C_2
REMARK    2  A    between atoms: N_10  and  C_11
REMARK    3  A    between atoms: C_13  and  C_14
REMARK    4  A    between atoms: C_14  and  S_15
REMARK    5  A    between atoms: S_15  and  C_17
REMARK    6  A    between atoms: C_17  and  C_18
REMARK    7  A    between atoms: C_18  and  CA_19
REMARK    8  A    between atoms: CA_19  and  N_20
REMARK    9  A    between atoms: CA_19  and  C_21
REMARK   10  A    between atoms: C_21  and  OXT_23
REMARK   11  A    between atoms: C_24  and  O_25
REMARK   12  A    between atoms: C_26  and  O_27
REMARK                            x       y       z     vdW  Elec       q    Type
REMARK                         _______ _______ _______ _____ _____    ______ ____
ROOT
ATOM      1  C   UNL     1       2.180   5.279  19.272  0.00  0.00    +0.000 C 
ATOM      2  O   UNL     1       3.380   5.063  20.035  0.00  0.00    +0.000 OA
ATOM      3  C   UNL     1       3.897   3.743  19.740  0.00  0.00    +0.000 C 
ATOM      4  C   UNL     1       2.842   3.052  18.878  0.00  0.00    +0.000 C 
ATOM      5  C   UNL     1       2.127   4.204  18.189  0.00  0.00    +0.000 C 
ENDROOT
BRANCH   1  14
ATOM      6  C   UNL     1       1.589  10.089  18.994  0.00  0.00    +0.000 A 
ATOM      7  N   UNL     1       1.052  10.228  20.229  0.00  0.00    +0.000 NA
ATOM      8  C   UNL     1       0.865   9.121  20.973  0.00  0.00    +0.000 A 
ATOM      9  N   UNL     1       1.155   7.837  20.666  0.00  0.00    +0.000 NA
ATOM     10  C   UNL     1       1.703   7.755  19.440  0.00  0.00    +0.000 A 
ATOM     11  C   UNL     1       1.950   8.801  18.564  0.00  0.00    +0.000 A 
ATOM     12  N   UNL     1       2.546   8.345  17.406  0.00  0.00    +0.000 NA
ATOM     13  C   UNL     1       2.654   7.046  17.574  0.00  0.00    +0.000 A 
ATOM     14  N   UNL     1       2.163   6.642  18.789  0.00  0.00    +0.000 N 
BRANCH   6  15
ATOM     15  N   UNL     1       1.785  11.229  18.226  0.00  0.00    +0.000 N 
ATOM     16  H   UNL     1       2.747  11.541  18.244  0.00  0.00    +0.000 HD
ATOM     17  H   UNL     1       1.320  11.190  17.326  0.00  0.00    +0.000 HD
ENDBRANCH   6  15
ENDBRANCH   1  14
BRANCH   4  18
ATOM     18  O   UNL     1       1.867   2.361  19.684  0.00  0.00    +0.000 OA
ATOM     19  H   UNL     1       2.194   2.292  20.601  0.00  0.00    +0.000 HD
ENDBRANCH   4  18
BRANCH   5  20
ATOM     20  O   UNL     1       0.792   3.853  17.831  0.00  0.00    +0.000 OA
ATOM     21  H   UNL     1       0.830   2.931  17.499  0.00  0.00    +0.000 HD
ENDBRANCH   5  20
BRANCH   3  22
ATOM     22  C   UNL     1       5.266   3.861  19.066  0.00  0.00    +0.000 C 
BRANCH  22  23
ATOM     23  S   UNL     1       5.883   5.565  19.322  0.00  0.00    +0.000 S 
ATOM     24  O   UNL     1       7.359   5.433  19.859  0.00  0.00    +0.000 OA
BRANCH  23  25
ATOM     25  C   UNL     1       6.013   6.037  17.569  0.00  0.00    +0.000 C 
BRANCH  25  26
ATOM     26  C   UNL     1       5.572   4.891  16.653  0.00  0.00    +0.000 C 
BRANCH  26  27
ATOM     27  CA  UNL     1       6.700   4.108  15.956  0.00  0.00    +0.000 C 
BRANCH  27  28
ATOM     28  N   UNL     1       7.928   4.209  16.788  0.00  0.00    +0.000 NA
ATOM     29  H1  UNL     1       7.776   4.954  17.474  0.00  0.00    +0.000 HD
ATOM     30  H2  UNL     1       8.680   4.571  16.200  0.00  0.00    +0.000 HD
ENDBRANCH  27  28
BRANCH  27  31
ATOM     31  C   UNL     1       6.985   4.668  14.552  0.00  0.00    +0.000 C 
ATOM     32  O   UNL     1       7.813   5.546  14.330  0.00  0.00    +0.000 OA
BRANCH  31  33
ATOM     33  OXT UNL     1       6.224   4.138  13.571  0.00  0.00    +0.000 OA
ATOM     34  HXT UNL     1       5.389   4.642  13.388  0.00  0.00    +0.000 HD
ENDBRANCH  31  33
ENDBRANCH  27  31
ENDBRANCH  26  27
ENDBRANCH  25  26
ENDBRANCH  23  25
ENDBRANCH  22  23
ENDBRANCH   3  22
TORSDOF 12
ENDMDL
