MODEL 1
REMARK VINA RESULT:      -8.8      0.000      0.000
REMARK  Name = 
REMARK  4 active torsions:
REMARK  status: ('A' for Active; 'I' for Inactive)
REMARK    1  A    between atoms: C_1  and  C_2
REMARK    2  A    between atoms: C_10  and  C_11
REMARK    3  A    between atoms: C_15  and  C_16
REMARK    4  A    between atoms: C_16  and  C_18
REMARK                            x       y       z     vdW  Elec       q    Type
REMARK                         _______ _______ _______ _____ _____    ______ ____
ROOT
ATOM      1  C   UNL     1       1.807   5.753  20.533  0.00  0.00    +0.000 A 
ATOM      2  C   UNL     1       0.896   4.702  20.395  0.00  0.00    +0.000 A 
ATOM      3  C   UNL     1       1.309   3.481  19.858  0.00  0.00    +0.000 A 
ATOM      4  C   UNL     1       2.639   3.303  19.473  0.00  0.00    +0.000 A 
ATOM      5  C   UNL     1       3.562   4.345  19.625  0.00  0.00    +0.000 A 
ATOM      6  C   UNL     1       3.136   5.579  20.132  0.00  0.00    +0.000 A 
ENDROOT
BRANCH   1  16
ATOM      7  C   UNL     1       0.804  13.107  20.515  0.00  0.00    +0.000 C 
ATOM      8  C   UNL     1       0.476  11.793  21.195  0.00  0.00    +0.000 C 
ATOM      9  O   UNL     1      -0.098  11.836  22.282  0.00  0.00    +0.000 OA
ATOM     10  N   UNL     1       0.840  10.623  20.519  0.00  0.00    +0.000 N 
ATOM     11  C   UNL     1       1.398  10.722  19.174  0.00  0.00    +0.000 C 
ATOM     12  C   UNL     1       1.687   9.450  18.410  0.00  0.00    +0.000 C 
ATOM     13  O   UNL     1       1.998   9.454  17.222  0.00  0.00    +0.000 OA
ATOM     14  N   UNL     1       1.680   8.299  19.125  0.00  0.00    +0.000 N 
ATOM     15  C   UNL     1       1.332   8.199  20.447  0.00  0.00    +0.000 C 
ATOM     16  C   UNL     1       1.376   7.029  21.108  0.00  0.00    +0.000 C 
ATOM     17  C   UNL     1       0.859   9.417  21.215  0.00  0.00    +0.000 C 
ATOM     18  O   UNL     1       0.508   9.269  22.383  0.00  0.00    +0.000 OA
ATOM     19  H   UNL     1       1.955   7.467  18.616  0.00  0.00    +0.000 HD
ENDBRANCH   1  16
BRANCH   5  20
ATOM     20  C   UNL     1       4.970   4.112  19.203  0.00  0.00    +0.000 C 
ATOM     21  O   UNL     1       5.459   2.994  19.344  0.00  0.00    +0.000 OA
BRANCH  20  22
ATOM     22  C   UNL     1       5.796   5.196  18.607  0.00  0.00    +0.000 A 
ATOM     23  C   UNL     1       7.012   5.522  19.217  0.00  0.00    +0.000 A 
ATOM     24  C   UNL     1       7.827   6.513  18.669  0.00  0.00    +0.000 A 
ATOM     25  C   UNL     1       7.426   7.187  17.514  0.00  0.00    +0.000 A 
ATOM     26  C   UNL     1       6.201   6.888  16.920  0.00  0.00    +0.000 A 
ATOM     27  C   UNL     1       5.378   5.906  17.473  0.00  0.00    +0.000 A 
ENDBRANCH  20  22
ENDBRANCH   5  20
TORSDOF 3
ENDMDL
MODEL 2
REMARK VINA RESULT:      -8.7      1.130      1.592
REMARK  Name = 
REMARK  4 active torsions:
REMARK  status: ('A' for Active; 'I' for Inactive)
REMARK    1  A    between atoms: C_1  and  C_2
REMARK    2  A    between atoms: C_10  and  C_11
REMARK    3  A    between atoms: C_15  and  C_16
REMARK    4  A    between atoms: C_16  and  C_18
REMARK                            x       y       z     vdW  Elec       q    Type
REMARK                         _______ _______ _______ _____ _____    ______ ____
ROOT
ATOM      1  C   UNL     1       1.884   5.708  20.442  0.00  0.00    +0.000 A 
ATOM      2  C   UNL     1       1.051   4.587  20.381  0.00  0.00    +0.000 A 
ATOM      3  C   UNL     1       1.493   3.418  19.760  0.00  0.00    +0.000 A 
ATOM      4  C   UNL     1       2.777   3.360  19.214  0.00  0.00    +0.000 A 
ATOM      5  C   UNL     1       3.623   4.473  19.288  0.00  0.00    +0.000 A 
ATOM      6  C   UNL     1       3.163   5.656  19.880  0.00  0.00    +0.000 A 
ENDROOT
BRANCH   1  16
ATOM      7  C   UNL     1       0.622  13.008  20.899  0.00  0.00    +0.000 C 
ATOM      8  C   UNL     1       0.359  11.644  21.505  0.00  0.00    +0.000 C 
ATOM      9  O   UNL     1      -0.188  11.601  22.606  0.00  0.00    +0.000 OA
ATOM     10  N   UNL     1       0.746  10.532  20.750  0.00  0.00    +0.000 N 
ATOM     11  C   UNL     1       1.264  10.732  19.400  0.00  0.00    +0.000 C 
ATOM     12  C   UNL     1       1.577   9.520  18.553  0.00  0.00    +0.000 C 
ATOM     13  O   UNL     1       1.856   9.607  17.360  0.00  0.00    +0.000 OA
ATOM     14  N   UNL     1       1.630   8.328  19.197  0.00  0.00    +0.000 N 
ATOM     15  C   UNL     1       1.320   8.136  20.518  0.00  0.00    +0.000 C 
ATOM     16  C   UNL     1       1.423   6.930  21.105  0.00  0.00    +0.000 C 
ATOM     17  C   UNL     1       0.825   9.287  21.370  0.00  0.00    +0.000 C 
ATOM     18  O   UNL     1       0.511   9.056  22.535  0.00  0.00    +0.000 OA
ATOM     19  H   UNL     1       1.920   7.539  18.631  0.00  0.00    +0.000 HD
ENDBRANCH   1  16
BRANCH   5  20
ATOM     20  C   UNL     1       4.984   4.370  18.694  0.00  0.00    +0.000 C 
ATOM     21  O   UNL     1       5.925   4.034  19.410  0.00  0.00    +0.000 OA
BRANCH  20  22
ATOM     22  C   UNL     1       5.232   4.654  17.256  0.00  0.00    +0.000 A 
ATOM     23  C   UNL     1       5.043   5.960  16.790  0.00  0.00    +0.000 A 
ATOM     24  C   UNL     1       5.294   6.270  15.452  0.00  0.00    +0.000 A 
ATOM     25  C   UNL     1       5.729   5.275  14.575  0.00  0.00    +0.000 A 
ATOM     26  C   UNL     1       5.889   3.966  15.026  0.00  0.00    +0.000 A 
ATOM     27  C   UNL     1       5.626   3.650  16.360  0.00  0.00    +0.000 A 
ENDBRANCH  20  22
ENDBRANCH   5  20
TORSDOF 3
ENDMDL
MODEL 3
REMARK VINA RESULT:      -8.5      0.777      1.204
REMARK  Name = 
REMARK  4 active torsions:
REMARK  status: ('A' for Active; 'I' for Inactive)
REMARK    1  A    between atoms: C_1  and  C_2
REMARK    2  A    between atoms: C_10  and  C_11
REMARK    3  A    between atoms: C_15  and  C_16
REMARK    4  A    between atoms: C_16  and  C_18
REMARK                            x       y       z     vdW  Elec       q    Type
REMARK                         _______ _______ _______ _____ _____    ______ ____
ROOT
ATOM      1  C   UNL     1       1.983   5.669  20.276  0.00  0.00    +0.000 A 
ATOM      2  C   UNL     1       1.349   4.450  20.534  0.00  0.00    +0.000 A 
ATOM      3  C   UNL     1       1.771   3.289  19.884  0.00  0.00    +0.000 A 
ATOM      4  C   UNL     1       2.841   3.340  18.988  0.00  0.00    +0.000 A 
ATOM      5  C   UNL     1       3.492   4.554  18.739  0.00  0.00    +0.000 A 
ATOM      6  C   UNL     1       3.043   5.724  19.366  0.00  0.00    +0.000 A 
ENDROOT
BRANCH   1  16
ATOM      7  C   UNL     1       0.742  12.964  20.857  0.00  0.00    +0.000 C 
ATOM      8  C   UNL     1       0.500  11.593  21.457  0.00  0.00    +0.000 C 
ATOM      9  O   UNL     1      -0.007  11.538  22.576  0.00  0.00    +0.000 OA
ATOM     10  N   UNL     1       0.859  10.489  20.676  0.00  0.00    +0.000 N 
ATOM     11  C   UNL     1       1.330  10.704  19.311  0.00  0.00    +0.000 C 
ATOM     12  C   UNL     1       1.611   9.501  18.441  0.00  0.00    +0.000 C 
ATOM     13  O   UNL     1       1.848   9.600  17.240  0.00  0.00    +0.000 OA
ATOM     14  N   UNL     1       1.686   8.302  19.069  0.00  0.00    +0.000 N 
ATOM     15  C   UNL     1       1.424   8.096  20.398  0.00  0.00    +0.000 C 
ATOM     16  C   UNL     1       1.546   6.884  20.968  0.00  0.00    +0.000 C 
ATOM     17  C   UNL     1       0.960   9.238  21.280  0.00  0.00    +0.000 C 
ATOM     18  O   UNL     1       0.687   8.994  22.453  0.00  0.00    +0.000 OA
ATOM     19  H   UNL     1       1.956   7.519  18.485  0.00  0.00    +0.000 HD
ENDBRANCH   1  16
BRANCH   5  20
ATOM     20  C   UNL     1       4.628   4.566  17.778  0.00  0.00    +0.000 C 
ATOM     21  O   UNL     1       4.586   3.829  16.795  0.00  0.00    +0.000 OA
BRANCH  20  22
ATOM     22  C   UNL     1       5.806   5.451  17.970  0.00  0.00    +0.000 A 
ATOM     23  C   UNL     1       5.954   6.561  17.131  0.00  0.00    +0.000 A 
ATOM     24  C   UNL     1       7.032   7.430  17.302  0.00  0.00    +0.000 A 
ATOM     25  C   UNL     1       7.971   7.189  18.306  0.00  0.00    +0.000 A 
ATOM     26  C   UNL     1       7.847   6.068  19.125  0.00  0.00    +0.000 A 
ATOM     27  C   UNL     1       6.776   5.190  18.949  0.00  0.00    +0.000 A 
ENDBRANCH  20  22
ENDBRANCH   5  20
TORSDOF 3
ENDMDL
MODEL 4
REMARK VINA RESULT:      -8.2      2.008      4.403
REMARK  Name = 
REMARK  4 active torsions:
REMARK  status: ('A' for Active; 'I' for Inactive)
REMARK    1  A    between atoms: C_1  and  C_2
REMARK    2  A    between atoms: C_10  and  C_11
REMARK    3  A    between atoms: C_15  and  C_16
REMARK    4  A    between atoms: C_16  and  C_18
REMARK                            x       y       z     vdW  Elec       q    Type
REMARK                         _______ _______ _______ _____ _____    ______ ____
ROOT
ATOM      1  C   UNL     1       4.001   6.579  17.029  0.00  0.00    +0.000 A 
ATOM      2  C   UNL     1       5.132   6.524  16.210  0.00  0.00    +0.000 A 
ATOM      3  C   UNL     1       5.774   5.305  15.981  0.00  0.00    +0.000 A 
ATOM      4  C   UNL     1       5.275   4.135  16.556  0.00  0.00    +0.000 A 
ATOM      5  C   UNL     1       4.131   4.180  17.363  0.00  0.00    +0.000 A 
ATOM      6  C   UNL     1       3.511   5.410  17.619  0.00  0.00    +0.000 A 
ENDROOT
BRANCH   1  16
ATOM      7  C   UNL     1      -0.644  11.149  20.583  0.00  0.00    +0.000 C 
ATOM      8  C   UNL     1       0.475  11.030  19.568  0.00  0.00    +0.000 C 
ATOM      9  O   UNL     1       0.744  12.021  18.892  0.00  0.00    +0.000 OA
ATOM     10  N   UNL     1       1.131   9.797  19.492  0.00  0.00    +0.000 N 
ATOM     11  C   UNL     1       0.792   8.749  20.450  0.00  0.00    +0.000 C 
ATOM     12  C   UNL     1       1.583   7.461  20.430  0.00  0.00    +0.000 C 
ATOM     13  O   UNL     1       1.468   6.606  21.304  0.00  0.00    +0.000 OA
ATOM     14  N   UNL     1       2.361   7.244  19.341  0.00  0.00    +0.000 N 
ATOM     15  C   UNL     1       2.559   8.145  18.328  0.00  0.00    +0.000 C 
ATOM     16  C   UNL     1       3.322   7.856  17.258  0.00  0.00    +0.000 C 
ATOM     17  C   UNL     1       1.935   9.525  18.387  0.00  0.00    +0.000 C 
ATOM     18  O   UNL     1       2.183  10.316  17.481  0.00  0.00    +0.000 OA
ATOM     19  H   UNL     1       2.820   6.342  19.305  0.00  0.00    +0.000 HD
ENDBRANCH   1  16
BRANCH   5  20
ATOM     20  C   UNL     1       3.631   2.910  17.957  0.00  0.00    +0.000 C 
ATOM     21  O   UNL     1       3.933   1.843  17.427  0.00  0.00    +0.000 OA
BRANCH  20  22
ATOM     22  C   UNL     1       2.784   2.899  19.178  0.00  0.00    +0.000 A 
ATOM     23  C   UNL     1       3.393   2.647  20.413  0.00  0.00    +0.000 A 
ATOM     24  C   UNL     1       2.634   2.657  21.584  0.00  0.00    +0.000 A 
ATOM     25  C   UNL     1       1.263   2.912  21.525  0.00  0.00    +0.000 A 
ATOM     26  C   UNL     1       0.645   3.132  20.294  0.00  0.00    +0.000 A 
ATOM     27  C   UNL     1       1.400   3.110  19.120  0.00  0.00    +0.000 A 
ENDBRANCH  20  22
ENDBRANCH   5  20
TORSDOF 3
ENDMDL
MODEL 5
REMARK VINA RESULT:      -8.2      2.731      3.844
REMARK  Name = 
REMARK  4 active torsions:
REMARK  status: ('A' for Active; 'I' for Inactive)
REMARK    1  A    between atoms: C_1  and  C_2
REMARK    2  A    between atoms: C_10  and  C_11
REMARK    3  A    between atoms: C_15  and  C_16
REMARK    4  A    between atoms: C_16  and  C_18
REMARK                            x       y       z     vdW  Elec       q    Type
REMARK                         _______ _______ _______ _____ _____    ______ ____
ROOT
ATOM      1  C   UNL     1       3.552   6.560  17.442  0.00  0.00    +0.000 A 
ATOM      2  C   UNL     1       2.877   5.504  18.060  0.00  0.00    +0.000 A 
ATOM      3  C   UNL     1       3.413   4.216  18.032  0.00  0.00    +0.000 A 
ATOM      4  C   UNL     1       4.637   3.983  17.400  0.00  0.00    +0.000 A 
ATOM      5  C   UNL     1       5.329   5.040  16.796  0.00  0.00    +0.000 A 
ATOM      6  C   UNL     1       4.769   6.324  16.796  0.00  0.00    +0.000 A 
ENDROOT
BRANCH   1  16
ATOM      7  C   UNL     1      -0.559  12.022  20.332  0.00  0.00    +0.000 C 
ATOM      8  C   UNL     1       0.511  11.649  19.326  0.00  0.00    +0.000 C 
ATOM      9  O   UNL     1       0.842  12.496  18.498  0.00  0.00    +0.000 OA
ATOM     10  N   UNL     1       1.055  10.364  19.430  0.00  0.00    +0.000 N 
ATOM     11  C   UNL     1       0.659   9.511  20.546  0.00  0.00    +0.000 C 
ATOM     12  C   UNL     1       1.334   8.168  20.711  0.00  0.00    +0.000 C 
ATOM     13  O   UNL     1       1.175   7.472  21.710  0.00  0.00    +0.000 OA
ATOM     14  N   UNL     1       2.054   7.718  19.654  0.00  0.00    +0.000 N 
ATOM     15  C   UNL     1       2.296   8.431  18.509  0.00  0.00    +0.000 C 
ATOM     16  C   UNL     1       2.994   7.914  17.483  0.00  0.00    +0.000 C 
ATOM     17  C   UNL     1       1.795   9.854  18.365  0.00  0.00    +0.000 C 
ATOM     18  O   UNL     1       2.080  10.471  17.342  0.00  0.00    +0.000 OA
ATOM     19  H   UNL     1       2.432   6.782  19.750  0.00  0.00    +0.000 HD
ENDBRANCH   1  16
BRANCH   5  20
ATOM     20  C   UNL     1       6.630   4.749  16.134  0.00  0.00    +0.000 C 
ATOM     21  O   UNL     1       7.642   4.650  16.824  0.00  0.00    +0.000 OA
BRANCH  20  22
ATOM     22  C   UNL     1       6.735   4.569  14.662  0.00  0.00    +0.000 A 
ATOM     23  C   UNL     1       7.690   5.315  13.963  0.00  0.00    +0.000 A 
ATOM     24  C   UNL     1       7.836   5.151  12.585  0.00  0.00    +0.000 A 
ATOM     25  C   UNL     1       7.025   4.245  11.900  0.00  0.00    +0.000 A 
ATOM     26  C   UNL     1       6.050   3.521  12.586  0.00  0.00    +0.000 A 
ATOM     27  C   UNL     1       5.893   3.693  13.962  0.00  0.00    +0.000 A 
ENDBRANCH  20  22
ENDBRANCH   5  20
TORSDOF 3
ENDMDL
MODEL 6
REMARK VINA RESULT:      -8.1      2.676      4.644
REMARK  Name = 
REMARK  4 active torsions:
REMARK  status: ('A' for Active; 'I' for Inactive)
REMARK    1  A    between atoms: C_1  and  C_2
REMARK    2  A    between atoms: C_10  and  C_11
REMARK    3  A    between atoms: C_15  and  C_16
REMARK    4  A    between atoms: C_16  and  C_18
REMARK                            x       y       z     vdW  Elec       q    Type
REMARK                         _______ _______ _______ _____ _____    ______ ____
ROOT
ATOM      1  C   UNL     1       1.237   9.243  19.909  0.00  0.00    +0.000 A 
ATOM      2  C   UNL     1       1.376   9.799  18.634  0.00  0.00    +0.000 A 
ATOM      3  C   UNL     1       2.079   9.114  17.642  0.00  0.00    +0.000 A 
ATOM      4  C   UNL     1       2.631   7.861  17.917  0.00  0.00    +0.000 A 
ATOM      5  C   UNL     1       2.480   7.289  19.186  0.00  0.00    +0.000 A 
ATOM      6  C   UNL     1       1.804   7.996  20.189  0.00  0.00    +0.000 A 
ENDROOT
BRANCH   1  16
ATOM      7  C   UNL     1      -3.868  14.031  22.381  0.00  0.00    +0.000 C 
ATOM      8  C   UNL     1      -2.921  12.903  22.739  0.00  0.00    +0.000 C 
ATOM      9  O   UNL     1      -2.746  12.656  23.931  0.00  0.00    +0.000 OA
ATOM     10  N   UNL     1      -2.329  12.213  21.676  0.00  0.00    +0.000 N 
ATOM     11  C   UNL     1      -2.732  12.529  20.309  0.00  0.00    +0.000 C 
ATOM     12  C   UNL     1      -2.168  11.704  19.174  0.00  0.00    +0.000 C 
ATOM     13  O   UNL     1      -2.583  11.801  18.023  0.00  0.00    +0.000 OA
ATOM     14  N   UNL     1      -1.107  10.914  19.469  0.00  0.00    +0.000 N 
ATOM     15  C   UNL     1      -0.588  10.734  20.724  0.00  0.00    +0.000 C 
ATOM     16  C   UNL     1       0.488   9.957  20.945  0.00  0.00    +0.000 C 
ATOM     17  C   UNL     1      -1.229  11.396  21.927  0.00  0.00    +0.000 C 
ATOM     18  O   UNL     1      -0.760  11.164  23.039  0.00  0.00    +0.000 OA
ATOM     19  H   UNL     1      -0.690  10.430  18.681  0.00  0.00    +0.000 HD
ENDBRANCH   1  16
BRANCH   5  20
ATOM     20  C   UNL     1       3.083   5.952  19.438  0.00  0.00    +0.000 C 
ATOM     21  O   UNL     1       4.296   5.867  19.615  0.00  0.00    +0.000 OA
BRANCH  20  22
ATOM     22  C   UNL     1       2.255   4.718  19.489  0.00  0.00    +0.000 A 
ATOM     23  C   UNL     1       1.863   4.227  20.740  0.00  0.00    +0.000 A 
ATOM     24  C   UNL     1       1.062   3.088  20.825  0.00  0.00    +0.000 A 
ATOM     25  C   UNL     1       0.655   2.432  19.663  0.00  0.00    +0.000 A 
ATOM     26  C   UNL     1       1.068   2.898  18.415  0.00  0.00    +0.000 A 
ATOM     27  C   UNL     1       1.881   4.030  18.327  0.00  0.00    +0.000 A 
ENDBRANCH  20  22
ENDBRANCH   5  20
TORSDOF 3
ENDMDL
MODEL 7
REMARK VINA RESULT:      -8.1      2.264      4.346
REMARK  Name = 
REMARK  4 active torsions:
REMARK  status: ('A' for Active; 'I' for Inactive)
REMARK    1  A    between atoms: C_1  and  C_2
REMARK    2  A    between atoms: C_10  and  C_11
REMARK    3  A    between atoms: C_15  and  C_16
REMARK    4  A    between atoms: C_16  and  C_18
REMARK                            x       y       z     vdW  Elec       q    Type
REMARK                         _______ _______ _______ _____ _____    ______ ____
ROOT
ATOM      1  C   UNL     1       2.123   8.032  17.899  0.00  0.00    +0.000 A 
ATOM      2  C   UNL     1       3.433   8.336  17.518  0.00  0.00    +0.000 A 
ATOM      3  C   UNL     1       4.359   7.312  17.313  0.00  0.00    +0.000 A 
ATOM      4  C   UNL     1       3.972   5.979  17.472  0.00  0.00    +0.000 A 
ATOM      5  C   UNL     1       2.657   5.667  17.835  0.00  0.00    +0.000 A 
ATOM      6  C   UNL     1       1.740   6.699  18.074  0.00  0.00    +0.000 A 
ENDROOT
BRANCH   1  16
ATOM      7  C   UNL     1      -2.191  12.476  21.991  0.00  0.00    +0.000 C 
ATOM      8  C   UNL     1      -1.588  12.215  20.625  0.00  0.00    +0.000 C 
ATOM      9  O   UNL     1      -1.997  12.885  19.679  0.00  0.00    +0.000 OA
ATOM     10  N   UNL     1      -0.591  11.235  20.550  0.00  0.00    +0.000 N 
ATOM     11  C   UNL     1      -0.112  10.612  21.780  0.00  0.00    +0.000 C 
ATOM     12  C   UNL     1       1.039   9.635  21.700  0.00  0.00    +0.000 C 
ATOM     13  O   UNL     1       1.601   9.200  22.701  0.00  0.00    +0.000 OA
ATOM     14  N   UNL     1       1.364   9.181  20.465  0.00  0.00    +0.000 N 
ATOM     15  C   UNL     1       0.802   9.621  19.295  0.00  0.00    +0.000 C 
ATOM     16  C   UNL     1       1.149   9.107  18.102  0.00  0.00    +0.000 C 
ATOM     17  C   UNL     1      -0.230  10.731  19.303  0.00  0.00    +0.000 C 
ATOM     18  O   UNL     1      -0.668  11.127  18.226  0.00  0.00    +0.000 OA
ATOM     19  H   UNL     1       2.083   8.467  20.437  0.00  0.00    +0.000 HD
ENDBRANCH   1  16
BRANCH   5  20
ATOM     20  C   UNL     1       2.286   4.234  17.993  0.00  0.00    +0.000 C 
ATOM     21  O   UNL     1       2.010   3.575  16.994  0.00  0.00    +0.000 OA
BRANCH  20  22
ATOM     22  C   UNL     1       2.248   3.580  19.327  0.00  0.00    +0.000 A 
ATOM     23  C   UNL     1       3.417   2.983  19.813  0.00  0.00    +0.000 A 
ATOM     24  C   UNL     1       3.427   2.384  21.073  0.00  0.00    +0.000 A 
ATOM     25  C   UNL     1       2.268   2.373  21.850  0.00  0.00    +0.000 A 
ATOM     26  C   UNL     1       1.091   2.938  21.359  0.00  0.00    +0.000 A 
ATOM     27  C   UNL     1       1.075   3.527  20.093  0.00  0.00    +0.000 A 
ENDBRANCH  20  22
ENDBRANCH   5  20
TORSDOF 3
ENDMDL
MODEL 8
REMARK VINA RESULT:      -8.1      3.330      8.177
REMARK  Name = 
REMARK  4 active torsions:
REMARK  status: ('A' for Active; 'I' for Inactive)
REMARK    1  A    between atoms: C_1  and  C_2
REMARK    2  A    between atoms: C_10  and  C_11
REMARK    3  A    between atoms: C_15  and  C_16
REMARK    4  A    between atoms: C_16  and  C_18
REMARK                            x       y       z     vdW  Elec       q    Type
REMARK                         _______ _______ _______ _____ _____    ______ ____
ROOT
ATOM      1  C   UNL     1       1.920   8.499  19.218  0.00  0.00    +0.000 A 
ATOM      2  C   UNL     1       1.679   7.867  20.441  0.00  0.00    +0.000 A 
ATOM      3  C   UNL     1       0.624   8.287  21.253  0.00  0.00    +0.000 A 
ATOM      4  C   UNL     1      -0.206   9.330  20.834  0.00  0.00    +0.000 A 
ATOM      5  C   UNL     1       0.017   9.955  19.601  0.00  0.00    +0.000 A 
ATOM      6  C   UNL     1       1.099   9.554  18.806  0.00  0.00    +0.000 A 
ENDROOT
BRANCH   1  16
ATOM      7  C   UNL     1       5.980   3.410  15.654  0.00  0.00    +0.000 C 
ATOM      8  C   UNL     1       5.672   4.884  15.821  0.00  0.00    +0.000 C 
ATOM      9  O   UNL     1       6.421   5.693  15.274  0.00  0.00    +0.000 OA
ATOM     10  N   UNL     1       4.541   5.213  16.575  0.00  0.00    +0.000 N 
ATOM     11  C   UNL     1       3.669   4.144  17.054  0.00  0.00    +0.000 C 
ATOM     12  C   UNL     1       2.392   4.514  17.774  0.00  0.00    +0.000 C 
ATOM     13  O   UNL     1       1.534   3.683  18.057  0.00  0.00    +0.000 OA
ATOM     14  N   UNL     1       2.278   5.802  18.183  0.00  0.00    +0.000 N 
ATOM     15  C   UNL     1       3.177   6.797  17.899  0.00  0.00    +0.000 C 
ATOM     16  C   UNL     1       3.020   8.049  18.362  0.00  0.00    +0.000 C 
ATOM     17  C   UNL     1       4.384   6.521  17.027  0.00  0.00    +0.000 C 
ATOM     18  O   UNL     1       5.134   7.457  16.758  0.00  0.00    +0.000 OA
ATOM     19  H   UNL     1       1.454   6.013  18.734  0.00  0.00    +0.000 HD
ENDBRANCH   1  16
BRANCH   5  20
ATOM     20  C   UNL     1      -0.890  11.061  19.192  0.00  0.00    +0.000 C 
ATOM     21  O   UNL     1      -0.766  12.163  19.722  0.00  0.00    +0.000 OA
BRANCH  20  22
ATOM     22  C   UNL     1      -1.938  10.870  18.155  0.00  0.00    +0.000 A 
ATOM     23  C   UNL     1      -3.137  11.581  18.276  0.00  0.00    +0.000 A 
ATOM     24  C   UNL     1      -4.131  11.448  17.305  0.00  0.00    +0.000 A 
ATOM     25  C   UNL     1      -3.933  10.600  16.215  0.00  0.00    +0.000 A 
ATOM     26  C   UNL     1      -2.754   9.864  16.105  0.00  0.00    +0.000 A 
ATOM     27  C   UNL     1      -1.763   9.985  17.082  0.00  0.00    +0.000 A 
ENDBRANCH  20  22
ENDBRANCH   5  20
TORSDOF 3
ENDMDL
MODEL 9
REMARK VINA RESULT:      -8.1      1.382      1.690
REMARK  Name = 
REMARK  4 active torsions:
REMARK  status: ('A' for Active; 'I' for Inactive)
REMARK    1  A    between atoms: C_1  and  C_2
REMARK    2  A    between atoms: C_10  and  C_11
REMARK    3  A    between atoms: C_15  and  C_16
REMARK    4  A    between atoms: C_16  and  C_18
REMARK                            x       y       z     vdW  Elec       q    Type
REMARK                         _______ _______ _______ _____ _____    ______ ____
ROOT
ATOM      1  C   UNL     1       1.844   6.679  20.341  0.00  0.00    +0.000 A 
ATOM      2  C   UNL     1       1.142   5.505  20.628  0.00  0.00    +0.000 A 
ATOM      3  C   UNL     1       1.455   4.319  19.961  0.00  0.00    +0.000 A 
ATOM      4  C   UNL     1       2.485   4.300  19.019  0.00  0.00    +0.000 A 
ATOM      5  C   UNL     1       3.206   5.468  18.740  0.00  0.00    +0.000 A 
ATOM      6  C   UNL     1       2.864   6.664  19.385  0.00  0.00    +0.000 A 
ENDROOT
BRANCH   1  16
ATOM      7  C   UNL     1      -0.591  13.674  20.827  0.00  0.00    +0.000 C 
ATOM      8  C   UNL     1      -0.206  12.419  21.584  0.00  0.00    +0.000 C 
ATOM      9  O   UNL     1      -0.102  12.495  22.807  0.00  0.00    +0.000 OA
ATOM     10  N   UNL     1      -0.016  11.257  20.828  0.00  0.00    +0.000 N 
ATOM     11  C   UNL     1      -0.305  11.284  19.397  0.00  0.00    +0.000 C 
ATOM     12  C   UNL     1      -0.201   9.997  18.610  0.00  0.00    +0.000 C 
ATOM     13  O   UNL     1      -0.585   9.907  17.447  0.00  0.00    +0.000 OA
ATOM     14  N   UNL     1       0.429   8.963  19.219  0.00  0.00    +0.000 N 
ATOM     15  C   UNL     1       0.876   8.970  20.514  0.00  0.00    +0.000 C 
ATOM     16  C   UNL     1       1.522   7.920  21.050  0.00  0.00    +0.000 C 
ATOM     17  C   UNL     1       0.635  10.171  21.407  0.00  0.00    +0.000 C 
ATOM     18  O   UNL     1       1.008  10.111  22.576  0.00  0.00    +0.000 OA
ATOM     19  H   UNL     1       0.562   8.136  18.648  0.00  0.00    +0.000 HD
ENDBRANCH   1  16
BRANCH   5  20
ATOM     20  C   UNL     1       4.296   5.404  17.730  0.00  0.00    +0.000 C 
ATOM     21  O   UNL     1       4.060   4.919  16.626  0.00  0.00    +0.000 OA
BRANCH  20  22
ATOM     22  C   UNL     1       5.660   5.920  18.018  0.00  0.00    +0.000 A 
ATOM     23  C   UNL     1       6.154   6.976  17.243  0.00  0.00    +0.000 A 
ATOM     24  C   UNL     1       7.419   7.505  17.504  0.00  0.00    +0.000 A 
ATOM     25  C   UNL     1       8.197   6.977  18.535  0.00  0.00    +0.000 A 
ATOM     26  C   UNL     1       7.724   5.905  19.290  0.00  0.00    +0.000 A 
ATOM     27  C   UNL     1       6.464   5.365  19.023  0.00  0.00    +0.000 A 
ENDBRANCH  20  22
ENDBRANCH   5  20
TORSDOF 3
ENDMDL
