MODEL 1
REMARK VINA RESULT:      -7.5      0.000      0.000
REMARK  Name = 
REMARK  12 active torsions:
REMARK  status: ('A' for Active; 'I' for Inactive)
REMARK    1  A    between atoms: C_1  and  O_2
REMARK    2  A    between atoms: O_2  and  C_3
REMARK    3  A    between atoms: C_6  and  C_7
REMARK    4  A    between atoms: C_9  and  C_10
REMARK    5  A    between atoms: C_10  and  S_11
REMARK    6  A    between atoms: S_11  and  C_12
REMARK    7  A    between atoms: C_12  and  C_13
REMARK    8  A    between atoms: N_15  and  C_16
REMARK    9  A    between atoms: C_16  and  C_17
REMARK   10  A    between atoms: C_22  and  C_23
REMARK   11  A    between atoms: C_26  and  O_27
REMARK   12  A    between atoms: O_27  and  C_28
REMARK                            x       y       z     vdW  Elec       q    Type
REMARK                         _______ _______ _______ _____ _____    ______ ____
ROOT
ATOM      1  C   UNL     1       2.424   6.064  20.023  0.00  0.00    +0.000 A 
ATOM      2  N   UNL     1       3.460   5.401  19.546  0.00  0.00    +0.000 NA
ATOM      3  C   UNL     1       3.306   4.116  20.050  0.00  0.00    +0.000 A 
ATOM      4  C   UNL     1       2.155   4.067  20.807  0.00  0.00    +0.000 A 
ATOM      5  C   UNL     1       1.408   3.055  21.572  0.00  0.00    +0.000 C 
ATOM      6  O   UNL     1       1.598   5.305  20.802  0.00  0.00    +0.000 OA
ENDROOT
BRANCH   1  10
ATOM      7  C   UNL     1       0.971  10.027  19.401  0.00  0.00    +0.000 A 
ATOM      8  C   UNL     1       1.593   9.319  18.356  0.00  0.00    +0.000 A 
ATOM      9  C   UNL     1       2.081   8.027  18.553  0.00  0.00    +0.000 A 
ATOM     10  C   UNL     1       2.003   7.437  19.814  0.00  0.00    +0.000 A 
ATOM     11  C   UNL     1       1.483   8.193  20.876  0.00  0.00    +0.000 A 
ATOM     12  C   UNL     1       0.971   9.482  20.690  0.00  0.00    +0.000 A 
BRANCH   7  14
ATOM     13  C   UNL     1      -0.888  11.177  18.515  0.00  0.00    +0.000 C 
ATOM     14  O   UNL     1       0.382  11.240  19.167  0.00  0.00    +0.000 OA
ENDBRANCH   7  14
BRANCH  12  15
ATOM     15  O   UNL     1       0.499  10.002  21.863  0.00  0.00    +0.000 OA
ATOM     16  C   UNL     1      -0.459   9.278  22.612  0.00  0.00    +0.000 C 
ENDBRANCH  12  15
ENDBRANCH   1  10
BRANCH   3  17
ATOM     17  C   UNL     1       4.281   3.043  19.720  0.00  0.00    +0.000 C 
BRANCH  17  18
ATOM     18  S   UNL     1       3.827   2.056  18.256  0.00  0.00    +0.000 S 
BRANCH  18  19
ATOM     19  C   UNL     1       3.261   3.378  17.132  0.00  0.00    +0.000 C 
BRANCH  19  20
ATOM     20  C   UNL     1       4.460   4.023  16.445  0.00  0.00    +0.000 C 
ATOM     21  O   UNL     1       5.279   3.363  15.810  0.00  0.00    +0.000 OA
ATOM     22  N   UNL     1       4.589   5.376  16.674  0.00  0.00    +0.000 N 
ATOM     23  H   UNL     1       3.750   5.875  16.958  0.00  0.00    +0.000 HD
BRANCH  22  24
ATOM     24  C   UNL     1       5.635   6.167  16.045  0.00  0.00    +0.000 C 
BRANCH  24  25
ATOM     25  C   UNL     1       6.956   6.115  16.820  0.00  0.00    +0.000 C 
ATOM     26  C   UNL     1       6.813   5.673  18.270  0.00  0.00    +0.000 C 
ATOM     27  C   UNL     1       7.979   6.362  18.930  0.00  0.00    +0.000 C 
ATOM     28  C   UNL     1       8.062   7.667  18.168  0.00  0.00    +0.000 C 
ATOM     29  O   UNL     1       7.581   7.414  16.842  0.00  0.00    +0.000 OA
ENDBRANCH  24  25
ENDBRANCH  22  24
ENDBRANCH  19  20
ENDBRANCH  18  19
ENDBRANCH  17  18
ENDBRANCH   3  17
TORSDOF 9
ENDMDL
MODEL 2
REMARK VINA RESULT:      -7.3      1.021      1.033
REMARK  Name = 
REMARK  12 active torsions:
REMARK  status: ('A' for Active; 'I' for Inactive)
REMARK    1  A    between atoms: C_1  and  O_2
REMARK    2  A    between atoms: O_2  and  C_3
REMARK    3  A    between atoms: C_6  and  C_7
REMARK    4  A    between atoms: C_9  and  C_10
REMARK    5  A    between atoms: C_10  and  S_11
REMARK    6  A    between atoms: S_11  and  C_12
REMARK    7  A    between atoms: C_12  and  C_13
REMARK    8  A    between atoms: N_15  and  C_16
REMARK    9  A    between atoms: C_16  and  C_17
REMARK   10  A    between atoms: C_22  and  C_23
REMARK   11  A    between atoms: C_26  and  O_27
REMARK   12  A    between atoms: O_27  and  C_28
REMARK                            x       y       z     vdW  Elec       q    Type
REMARK                         _______ _______ _______ _____ _____    ______ ____
ROOT
ATOM      1  C   UNL     1       2.398   6.148  19.953  0.00  0.00    +0.000 A 
ATOM      2  N   UNL     1       3.531   5.526  19.691  0.00  0.00    +0.000 NA
ATOM      3  C   UNL     1       3.311   4.220  20.112  0.00  0.00    +0.000 A 
ATOM      4  C   UNL     1       2.026   4.120  20.602  0.00  0.00    +0.000 A 
ATOM      5  C   UNL     1       1.162   3.066  21.159  0.00  0.00    +0.000 C 
ATOM      6  O   UNL     1       1.447   5.345  20.514  0.00  0.00    +0.000 OA
ENDROOT
BRANCH   1  10
ATOM      7  C   UNL     1       0.991  10.101  19.176  0.00  0.00    +0.000 A 
ATOM      8  C   UNL     1       1.722   9.395  18.202  0.00  0.00    +0.000 A 
ATOM      9  C   UNL     1       2.195   8.107  18.451  0.00  0.00    +0.000 A 
ATOM     10  C   UNL     1       1.992   7.518  19.698  0.00  0.00    +0.000 A 
ATOM     11  C   UNL     1       1.361   8.272  20.700  0.00  0.00    +0.000 A 
ATOM     12  C   UNL     1       0.862   9.558  20.459  0.00  0.00    +0.000 A 
BRANCH   7  14
ATOM     13  C   UNL     1       1.335  12.409  18.832  0.00  0.00    +0.000 C 
ATOM     14  O   UNL     1       0.422  11.310  18.879  0.00  0.00    +0.000 OA
ENDBRANCH   7  14
BRANCH  12  15
ATOM     15  O   UNL     1       0.268  10.076  21.576  0.00  0.00    +0.000 OA
ATOM     16  C   UNL     1      -0.380   9.210  22.489  0.00  0.00    +0.000 C 
ENDBRANCH  12  15
ENDBRANCH   1  10
BRANCH   3  17
ATOM     17  C   UNL     1       4.364   3.182  19.968  0.00  0.00    +0.000 C 
BRANCH  17  18
ATOM     18  S   UNL     1       4.127   2.081  18.534  0.00  0.00    +0.000 S 
BRANCH  18  19
ATOM     19  C   UNL     1       3.308   3.227  17.373  0.00  0.00    +0.000 C 
BRANCH  19  20
ATOM     20  C   UNL     1       4.353   4.076  16.658  0.00  0.00    +0.000 C 
ATOM     21  O   UNL     1       4.142   5.246  16.349  0.00  0.00    +0.000 OA
ATOM     22  N   UNL     1       5.503   3.396  16.316  0.00  0.00    +0.000 N 
ATOM     23  H   UNL     1       5.707   2.548  16.838  0.00  0.00    +0.000 HD
BRANCH  22  24
ATOM     24  C   UNL     1       6.633   4.063  15.688  0.00  0.00    +0.000 C 
BRANCH  24  25
ATOM     25  C   UNL     1       7.519   4.795  16.702  0.00  0.00    +0.000 C 
ATOM     26  C   UNL     1       7.042   4.684  18.143  0.00  0.00    +0.000 C 
ATOM     27  C   UNL     1       7.568   5.957  18.754  0.00  0.00    +0.000 C 
ATOM     28  C   UNL     1       7.438   6.944  17.612  0.00  0.00    +0.000 C 
ATOM     29  O   UNL     1       7.583   6.202  16.394  0.00  0.00    +0.000 OA
ENDBRANCH  24  25
ENDBRANCH  22  24
ENDBRANCH  19  20
ENDBRANCH  18  19
ENDBRANCH  17  18
ENDBRANCH   3  17
TORSDOF 9
ENDMDL
MODEL 3
REMARK VINA RESULT:      -7.1      2.130      3.464
REMARK  Name = 
REMARK  12 active torsions:
REMARK  status: ('A' for Active; 'I' for Inactive)
REMARK    1  A    between atoms: C_1  and  O_2
REMARK    2  A    between atoms: O_2  and  C_3
REMARK    3  A    between atoms: C_6  and  C_7
REMARK    4  A    between atoms: C_9  and  C_10
REMARK    5  A    between atoms: C_10  and  S_11
REMARK    6  A    between atoms: S_11  and  C_12
REMARK    7  A    between atoms: C_12  and  C_13
REMARK    8  A    between atoms: N_15  and  C_16
REMARK    9  A    between atoms: C_16  and  C_17
REMARK   10  A    between atoms: C_22  and  C_23
REMARK   11  A    between atoms: C_26  and  O_27
REMARK   12  A    between atoms: O_27  and  C_28
REMARK                            x       y       z     vdW  Elec       q    Type
REMARK                         _______ _______ _______ _____ _____    ______ ____
ROOT
ATOM      1  C   UNL     1       1.110   7.991  20.738  0.00  0.00    +0.000 A 
ATOM      2  N   UNL     1       1.295   6.756  21.164  0.00  0.00    +0.000 NA
ATOM      3  C   UNL     1       2.112   6.180  20.199  0.00  0.00    +0.000 A 
ATOM      4  C   UNL     1       2.391   7.121  19.231  0.00  0.00    +0.000 A 
ATOM      5  C   UNL     1       3.185   7.193  17.993  0.00  0.00    +0.000 C 
ATOM      6  O   UNL     1       1.748   8.269  19.564  0.00  0.00    +0.000 OA
ENDROOT
BRANCH   1  10
ATOM      7  C   UNL     1      -0.816  11.346  22.539  0.00  0.00    +0.000 A 
ATOM      8  C   UNL     1      -0.714  10.123  23.227  0.00  0.00    +0.000 A 
ATOM      9  C   UNL     1      -0.095   9.018  22.642  0.00  0.00    +0.000 A 
ATOM     10  C   UNL     1       0.386   9.097  21.337  0.00  0.00    +0.000 A 
ATOM     11  C   UNL     1       0.179  10.286  20.619  0.00  0.00    +0.000 A 
ATOM     12  C   UNL     1      -0.421  11.410  21.198  0.00  0.00    +0.000 A 
BRANCH   7  14
ATOM     13  C   UNL     1      -2.732  12.503  23.283  0.00  0.00    +0.000 C 
ATOM     14  O   UNL     1      -1.308  12.459  23.165  0.00  0.00    +0.000 OA
ENDBRANCH   7  14
BRANCH  12  15
ATOM     15  O   UNL     1      -0.487  12.449  20.311  0.00  0.00    +0.000 OA
ATOM     16  C   UNL     1      -1.628  12.592  19.486  0.00  0.00    +0.000 C 
ENDBRANCH  12  15
ENDBRANCH   1  10
BRANCH   3  17
ATOM     17  C   UNL     1       2.570   4.772  20.326  0.00  0.00    +0.000 C 
BRANCH  17  18
ATOM     18  S   UNL     1       1.222   3.547  20.266  0.00  0.00    +0.000 S 
BRANCH  18  19
ATOM     19  C   UNL     1       1.963   2.298  19.161  0.00  0.00    +0.000 C 
BRANCH  19  20
ATOM     20  C   UNL     1       2.647   2.987  17.985  0.00  0.00    +0.000 C 
ATOM     21  O   UNL     1       2.009   3.571  17.113  0.00  0.00    +0.000 OA
ATOM     22  N   UNL     1       4.014   2.819  17.942  0.00  0.00    +0.000 N 
ATOM     23  H   UNL     1       4.475   2.577  18.816  0.00  0.00    +0.000 HD
BRANCH  22  24
ATOM     24  C   UNL     1       4.837   3.460  16.928  0.00  0.00    +0.000 C 
BRANCH  24  25
ATOM     25  C   UNL     1       5.495   4.748  17.436  0.00  0.00    +0.000 C 
ATOM     26  C   UNL     1       6.251   5.527  16.369  0.00  0.00    +0.000 C 
ATOM     27  C   UNL     1       7.307   6.235  17.177  0.00  0.00    +0.000 C 
ATOM     28  C   UNL     1       7.631   5.219  18.252  0.00  0.00    +0.000 C 
ATOM     29  O   UNL     1       6.441   4.453  18.483  0.00  0.00    +0.000 OA
ENDBRANCH  24  25
ENDBRANCH  22  24
ENDBRANCH  19  20
ENDBRANCH  18  19
ENDBRANCH  17  18
ENDBRANCH   3  17
TORSDOF 9
ENDMDL
MODEL 4
REMARK VINA RESULT:      -7.1      3.852      7.430
REMARK  Name = 
REMARK  12 active torsions:
REMARK  status: ('A' for Active; 'I' for Inactive)
REMARK    1  A    between atoms: C_1  and  O_2
REMARK    2  A    between atoms: O_2  and  C_3
REMARK    3  A    between atoms: C_6  and  C_7
REMARK    4  A    between atoms: C_9  and  C_10
REMARK    5  A    between atoms: C_10  and  S_11
REMARK    6  A    between atoms: S_11  and  C_12
REMARK    7  A    between atoms: C_12  and  C_13
REMARK    8  A    between atoms: N_15  and  C_16
REMARK    9  A    between atoms: C_16  and  C_17
REMARK   10  A    between atoms: C_22  and  C_23
REMARK   11  A    between atoms: C_26  and  O_27
REMARK   12  A    between atoms: O_27  and  C_28
REMARK                            x       y       z     vdW  Elec       q    Type
REMARK                         _______ _______ _______ _____ _____    ______ ____
ROOT
ATOM      1  C   UNL     1       8.438   8.932  18.263  0.00  0.00    +0.000 A 
ATOM      2  N   UNL     1       7.574   8.697  17.294  0.00  0.00    +0.000 NA
ATOM      3  C   UNL     1       7.247   7.355  17.444  0.00  0.00    +0.000 A 
ATOM      4  C   UNL     1       7.934   6.846  18.526  0.00  0.00    +0.000 A 
ATOM      5  C   UNL     1       8.031   5.561  19.236  0.00  0.00    +0.000 C 
ATOM      6  O   UNL     1       8.700   7.842  19.041  0.00  0.00    +0.000 OA
ENDROOT
BRANCH   1  10
ATOM      7  C   UNL     1      10.194  12.639  19.441  0.00  0.00    +0.000 A 
ATOM      8  C   UNL     1      10.216  12.230  18.095  0.00  0.00    +0.000 A 
ATOM      9  C   UNL     1       9.654  11.015  17.702  0.00  0.00    +0.000 A 
ATOM     10  C   UNL     1       9.105  10.160  18.655  0.00  0.00    +0.000 A 
ATOM     11  C   UNL     1       9.188  10.524  20.009  0.00  0.00    +0.000 A 
ATOM     12  C   UNL     1       9.730  11.748  20.417  0.00  0.00    +0.000 A 
BRANCH   7  14
ATOM     13  C   UNL     1      12.018  14.130  19.552  0.00  0.00    +0.000 C 
ATOM     14  O   UNL     1      10.631  13.885  19.799  0.00  0.00    +0.000 OA
ENDBRANCH   7  14
BRANCH  12  15
ATOM     15  O   UNL     1       9.675  11.886  21.776  0.00  0.00    +0.000 OA
ATOM     16  C   UNL     1       8.879  12.910  22.343  0.00  0.00    +0.000 C 
ENDBRANCH  12  15
ENDBRANCH   1  10
BRANCH   3  17
ATOM     17  C   UNL     1       6.269   6.700  16.538  0.00  0.00    +0.000 C 
BRANCH  17  18
ATOM     18  S   UNL     1       4.881   5.894  17.404  0.00  0.00    +0.000 S 
BRANCH  18  19
ATOM     19  C   UNL     1       4.761   4.340  16.455  0.00  0.00    +0.000 C 
BRANCH  19  20
ATOM     20  C   UNL     1       3.687   3.444  17.063  0.00  0.00    +0.000 C 
ATOM     21  O   UNL     1       2.521   3.473  16.679  0.00  0.00    +0.000 OA
ATOM     22  N   UNL     1       4.118   2.677  18.124  0.00  0.00    +0.000 N 
ATOM     23  H   UNL     1       5.119   2.505  18.191  0.00  0.00    +0.000 HD
BRANCH  22  24
ATOM     24  C   UNL     1       3.248   1.715  18.783  0.00  0.00    +0.000 C 
BRANCH  24  25
ATOM     25  C   UNL     1       2.470   2.332  19.950  0.00  0.00    +0.000 C 
ATOM     26  C   UNL     1       1.071   2.808  19.587  0.00  0.00    +0.000 C 
ATOM     27  C   UNL     1       0.846   3.923  20.575  0.00  0.00    +0.000 C 
ATOM     28  C   UNL     1       2.227   4.528  20.706  0.00  0.00    +0.000 C 
ATOM     29  O   UNL     1       3.173   3.474  20.479  0.00  0.00    +0.000 OA
ENDBRANCH  24  25
ENDBRANCH  22  24
ENDBRANCH  19  20
ENDBRANCH  18  19
ENDBRANCH  17  18
ENDBRANCH   3  17
TORSDOF 9
ENDMDL
MODEL 5
REMARK VINA RESULT:      -7.1      1.522      2.075
REMARK  Name = 
REMARK  12 active torsions:
REMARK  status: ('A' for Active; 'I' for Inactive)
REMARK    1  A    between atoms: C_1  and  O_2
REMARK    2  A    between atoms: O_2  and  C_3
REMARK    3  A    between atoms: C_6  and  C_7
REMARK    4  A    between atoms: C_9  and  C_10
REMARK    5  A    between atoms: C_10  and  S_11
REMARK    6  A    between atoms: S_11  and  C_12
REMARK    7  A    between atoms: C_12  and  C_13
REMARK    8  A    between atoms: N_15  and  C_16
REMARK    9  A    between atoms: C_16  and  C_17
REMARK   10  A    between atoms: C_22  and  C_23
REMARK   11  A    between atoms: C_26  and  O_27
REMARK   12  A    between atoms: O_27  and  C_28
REMARK                            x       y       z     vdW  Elec       q    Type
REMARK                         _______ _______ _______ _____ _____    ______ ____
ROOT
ATOM      1  C   UNL     1       1.774   5.955  19.918  0.00  0.00    +0.000 A 
ATOM      2  N   UNL     1       1.924   5.163  18.872  0.00  0.00    +0.000 NA
ATOM      3  C   UNL     1       1.943   3.883  19.413  0.00  0.00    +0.000 A 
ATOM      4  C   UNL     1       1.787   3.972  20.780  0.00  0.00    +0.000 A 
ATOM      5  C   UNL     1       1.690   3.044  21.918  0.00  0.00    +0.000 C 
ATOM      6  O   UNL     1       1.691   5.287  21.105  0.00  0.00    +0.000 OA
ENDROOT
BRANCH   1  10
ATOM      7  C   UNL     1       1.143  10.168  20.157  0.00  0.00    +0.000 A 
ATOM      8  C   UNL     1       1.518   9.567  18.941  0.00  0.00    +0.000 A 
ATOM      9  C   UNL     1       1.737   8.192  18.856  0.00  0.00    +0.000 A 
ATOM     10  C   UNL     1       1.637   7.397  19.997  0.00  0.00    +0.000 A 
ATOM     11  C   UNL     1       1.373   8.022  21.226  0.00  0.00    +0.000 A 
ATOM     12  C   UNL     1       1.130   9.397  21.325  0.00  0.00    +0.000 A 
BRANCH   7  14
ATOM     13  C   UNL     1       1.628  12.352  19.409  0.00  0.00    +0.000 C 
ATOM     14  O   UNL     1       0.806  11.494  20.205  0.00  0.00    +0.000 OA
ENDBRANCH   7  14
BRANCH  12  15
ATOM     15  O   UNL     1       0.871   9.763  22.616  0.00  0.00    +0.000 OA
ATOM     16  C   UNL     1      -0.467   9.820  23.072  0.00  0.00    +0.000 C 
ENDBRANCH  12  15
ENDBRANCH   1  10
BRANCH   3  17
ATOM     17  C   UNL     1       2.081   2.687  18.542  0.00  0.00    +0.000 C 
BRANCH  17  18
ATOM     18  S   UNL     1       3.760   2.448  17.872  0.00  0.00    +0.000 S 
BRANCH  18  19
ATOM     19  C   UNL     1       4.755   3.183  19.214  0.00  0.00    +0.000 C 
BRANCH  19  20
ATOM     20  C   UNL     1       5.563   4.359  18.676  0.00  0.00    +0.000 C 
ATOM     21  O   UNL     1       6.770   4.463  18.872  0.00  0.00    +0.000 OA
ATOM     22  N   UNL     1       4.811   5.323  18.038  0.00  0.00    +0.000 N 
ATOM     23  H   UNL     1       3.903   5.036  17.682  0.00  0.00    +0.000 HD
BRANCH  22  24
ATOM     24  C   UNL     1       5.422   6.482  17.405  0.00  0.00    +0.000 C 
BRANCH  24  25
ATOM     25  C   UNL     1       5.805   6.218  15.945  0.00  0.00    +0.000 C 
ATOM     26  C   UNL     1       5.076   5.042  15.310  0.00  0.00    +0.000 C 
ATOM     27  C   UNL     1       6.064   4.575  14.273  0.00  0.00    +0.000 C 
ATOM     28  C   UNL     1       7.394   4.823  14.953  0.00  0.00    +0.000 C 
ATOM     29  O   UNL     1       7.215   5.940  15.835  0.00  0.00    +0.000 OA
ENDBRANCH  24  25
ENDBRANCH  22  24
ENDBRANCH  19  20
ENDBRANCH  18  19
ENDBRANCH  17  18
ENDBRANCH   3  17
TORSDOF 9
ENDMDL
MODEL 6
REMARK VINA RESULT:      -7.1      2.218      3.472
REMARK  Name = 
REMARK  12 active torsions:
REMARK  status: ('A' for Active; 'I' for Inactive)
REMARK    1  A    between atoms: C_1  and  O_2
REMARK    2  A    between atoms: O_2  and  C_3
REMARK    3  A    between atoms: C_6  and  C_7
REMARK    4  A    between atoms: C_9  and  C_10
REMARK    5  A    between atoms: C_10  and  S_11
REMARK    6  A    between atoms: S_11  and  C_12
REMARK    7  A    between atoms: C_12  and  C_13
REMARK    8  A    between atoms: N_15  and  C_16
REMARK    9  A    between atoms: C_16  and  C_17
REMARK   10  A    between atoms: C_22  and  C_23
REMARK   11  A    between atoms: C_26  and  O_27
REMARK   12  A    between atoms: O_27  and  C_28
REMARK                            x       y       z     vdW  Elec       q    Type
REMARK                         _______ _______ _______ _____ _____    ______ ____
ROOT
ATOM      1  C   UNL     1       1.087   8.207  20.745  0.00  0.00    +0.000 A 
ATOM      2  N   UNL     1       1.224   6.959  21.153  0.00  0.00    +0.000 NA
ATOM      3  C   UNL     1       2.011   6.364  20.175  0.00  0.00    +0.000 A 
ATOM      4  C   UNL     1       2.324   7.306  19.218  0.00  0.00    +0.000 A 
ATOM      5  C   UNL     1       3.114   7.364  17.977  0.00  0.00    +0.000 C 
ATOM      6  O   UNL     1       1.729   8.475  19.571  0.00  0.00    +0.000 OA
ENDROOT
BRANCH   1  10
ATOM      7  C   UNL     1      -0.696  11.580  22.655  0.00  0.00    +0.000 A 
ATOM      8  C   UNL     1      -0.905  10.281  23.153  0.00  0.00    +0.000 A 
ATOM      9  C   UNL     1      -0.335   9.171  22.529  0.00  0.00    +0.000 A 
ATOM     10  C   UNL     1       0.412   9.333  21.364  0.00  0.00    +0.000 A 
ATOM     11  C   UNL     1       0.521  10.619  20.812  0.00  0.00    +0.000 A 
ATOM     12  C   UNL     1      -0.027  11.746  21.437  0.00  0.00    +0.000 A 
BRANCH   7  14
ATOM     13  C   UNL     1      -2.571  12.834  23.343  0.00  0.00    +0.000 C 
ATOM     14  O   UNL     1      -1.151  12.672  23.344  0.00  0.00    +0.000 OA
ENDBRANCH   7  14
BRANCH  12  15
ATOM     15  O   UNL     1       0.233  12.883  20.725  0.00  0.00    +0.000 OA
ATOM     16  C   UNL     1       1.485  13.527  20.869  0.00  0.00    +0.000 C 
ENDBRANCH  12  15
ENDBRANCH   1  10
BRANCH   3  17
ATOM     17  C   UNL     1       2.413   4.937  20.280  0.00  0.00    +0.000 C 
BRANCH  17  18
ATOM     18  S   UNL     1       1.635   3.856  19.034  0.00  0.00    +0.000 S 
BRANCH  18  19
ATOM     19  C   UNL     1       2.719   2.393  19.148  0.00  0.00    +0.000 C 
BRANCH  19  20
ATOM     20  C   UNL     1       4.177   2.815  18.992  0.00  0.00    +0.000 C 
ATOM     21  O   UNL     1       5.005   2.635  19.881  0.00  0.00    +0.000 OA
ATOM     22  N   UNL     1       4.454   3.486  17.820  0.00  0.00    +0.000 N 
ATOM     23  H   UNL     1       3.808   3.346  17.047  0.00  0.00    +0.000 HD
BRANCH  22  24
ATOM     24  C   UNL     1       5.803   3.904  17.473  0.00  0.00    +0.000 C 
BRANCH  24  25
ATOM     25  C   UNL     1       6.131   5.311  17.985  0.00  0.00    +0.000 C 
ATOM     26  C   UNL     1       6.905   6.172  16.997  0.00  0.00    +0.000 C 
ATOM     27  C   UNL     1       7.672   7.095  17.908  0.00  0.00    +0.000 C 
ATOM     28  C   UNL     1       7.987   6.201  19.088  0.00  0.00    +0.000 C 
ATOM     29  O   UNL     1       6.928   5.239  19.185  0.00  0.00    +0.000 OA
ENDBRANCH  24  25
ENDBRANCH  22  24
ENDBRANCH  19  20
ENDBRANCH  18  19
ENDBRANCH  17  18
ENDBRANCH   3  17
TORSDOF 9
ENDMDL
MODEL 7
REMARK VINA RESULT:      -7.0      3.852      7.234
REMARK  Name = 
REMARK  12 active torsions:
REMARK  status: ('A' for Active; 'I' for Inactive)
REMARK    1  A    between atoms: C_1  and  O_2
REMARK    2  A    between atoms: O_2  and  C_3
REMARK    3  A    between atoms: C_6  and  C_7
REMARK    4  A    between atoms: C_9  and  C_10
REMARK    5  A    between atoms: C_10  and  S_11
REMARK    6  A    between atoms: S_11  and  C_12
REMARK    7  A    between atoms: C_12  and  C_13
REMARK    8  A    between atoms: N_15  and  C_16
REMARK    9  A    between atoms: C_16  and  C_17
REMARK   10  A    between atoms: C_22  and  C_23
REMARK   11  A    between atoms: C_26  and  O_27
REMARK   12  A    between atoms: O_27  and  C_28
REMARK                            x       y       z     vdW  Elec       q    Type
REMARK                         _______ _______ _______ _____ _____    ______ ____
ROOT
ATOM      1  C   UNL     1       8.350   8.686  18.196  0.00  0.00    +0.000 A 
ATOM      2  N   UNL     1       7.653   8.246  17.166  0.00  0.00    +0.000 NA
ATOM      3  C   UNL     1       7.444   6.900  17.444  0.00  0.00    +0.000 A 
ATOM      4  C   UNL     1       8.026   6.599  18.657  0.00  0.00    +0.000 A 
ATOM      5  C   UNL     1       8.154   5.421  19.530  0.00  0.00    +0.000 C 
ATOM      6  O   UNL     1       8.612   7.728  19.132  0.00  0.00    +0.000 OA
ENDROOT
BRANCH   1  10
ATOM      7  C   UNL     1       9.554  12.660  19.181  0.00  0.00    +0.000 A 
ATOM      8  C   UNL     1       9.403  12.268  17.837  0.00  0.00    +0.000 A 
ATOM      9  C   UNL     1       9.020  10.968  17.506  0.00  0.00    +0.000 A 
ATOM     10  C   UNL     1       8.832  10.019  18.508  0.00  0.00    +0.000 A 
ATOM     11  C   UNL     1       9.094  10.388  19.837  0.00  0.00    +0.000 A 
ATOM     12  C   UNL     1       9.459  11.693  20.188  0.00  0.00    +0.000 A 
BRANCH   7  14
ATOM     13  C   UNL     1      11.188  14.321  19.542  0.00  0.00    +0.000 C 
ATOM     14  O   UNL     1       9.804  13.966  19.502  0.00  0.00    +0.000 OA
ENDBRANCH   7  14
BRANCH  12  15
ATOM     15  O   UNL     1       9.633  11.813  21.539  0.00  0.00    +0.000 OA
ATOM     16  C   UNL     1       8.513  11.723  22.399  0.00  0.00    +0.000 C 
ENDBRANCH  12  15
ENDBRANCH   1  10
BRANCH   3  17
ATOM     17  C   UNL     1       6.668   6.039  16.515  0.00  0.00    +0.000 C 
BRANCH  17  18
ATOM     18  S   UNL     1       4.987   6.652  16.167  0.00  0.00    +0.000 S 
BRANCH  18  19
ATOM     19  C   UNL     1       4.226   6.477  17.816  0.00  0.00    +0.000 C 
BRANCH  19  20
ATOM     20  C   UNL     1       4.341   5.031  18.289  0.00  0.00    +0.000 C 
ATOM     21  O   UNL     1       4.968   4.725  19.299  0.00  0.00    +0.000 OA
ATOM     22  N   UNL     1       3.763   4.108  17.444  0.00  0.00    +0.000 N 
ATOM     23  H   UNL     1       3.048   4.452  16.808  0.00  0.00    +0.000 HD
BRANCH  22  24
ATOM     24  C   UNL     1       3.718   2.690  17.769  0.00  0.00    +0.000 C 
BRANCH  24  25
ATOM     25  C   UNL     1       2.503   2.323  18.626  0.00  0.00    +0.000 C 
ATOM     26  C   UNL     1       1.331   3.286  18.495  0.00  0.00    +0.000 C 
ATOM     27  C   UNL     1       0.659   3.156  19.838  0.00  0.00    +0.000 C 
ATOM     28  C   UNL     1       1.832   2.952  20.772  0.00  0.00    +0.000 C 
ATOM     29  O   UNL     1       2.860   2.292  20.022  0.00  0.00    +0.000 OA
ENDBRANCH  24  25
ENDBRANCH  22  24
ENDBRANCH  19  20
ENDBRANCH  18  19
ENDBRANCH  17  18
ENDBRANCH   3  17
TORSDOF 9
ENDMDL
MODEL 8
REMARK VINA RESULT:      -6.9      1.093      1.224
REMARK  Name = 
REMARK  12 active torsions:
REMARK  status: ('A' for Active; 'I' for Inactive)
REMARK    1  A    between atoms: C_1  and  O_2
REMARK    2  A    between atoms: O_2  and  C_3
REMARK    3  A    between atoms: C_6  and  C_7
REMARK    4  A    between atoms: C_9  and  C_10
REMARK    5  A    between atoms: C_10  and  S_11
REMARK    6  A    between atoms: S_11  and  C_12
REMARK    7  A    between atoms: C_12  and  C_13
REMARK    8  A    between atoms: N_15  and  C_16
REMARK    9  A    between atoms: C_16  and  C_17
REMARK   10  A    between atoms: C_22  and  C_23
REMARK   11  A    between atoms: C_26  and  O_27
REMARK   12  A    between atoms: O_27  and  C_28
REMARK                            x       y       z     vdW  Elec       q    Type
REMARK                         _______ _______ _______ _____ _____    ______ ____
ROOT
ATOM      1  C   UNL     1       2.535   5.574  20.133  0.00  0.00    +0.000 A 
ATOM      2  N   UNL     1       3.620   4.862  19.892  0.00  0.00    +0.000 NA
ATOM      3  C   UNL     1       3.364   3.634  20.488  0.00  0.00    +0.000 A 
ATOM      4  C   UNL     1       2.108   3.666  21.056  0.00  0.00    +0.000 A 
ATOM      5  C   UNL     1       1.230   2.740  21.788  0.00  0.00    +0.000 C 
ATOM      6  O   UNL     1       1.583   4.901  20.842  0.00  0.00    +0.000 OA
ENDROOT
BRANCH   1  10
ATOM      7  C   UNL     1       1.275   9.466  18.921  0.00  0.00    +0.000 A 
ATOM      8  C   UNL     1       1.961   8.624  18.026  0.00  0.00    +0.000 A 
ATOM      9  C   UNL     1       2.386   7.353  18.417  0.00  0.00    +0.000 A 
ATOM     10  C   UNL     1       2.181   6.921  19.726  0.00  0.00    +0.000 A 
ATOM     11  C   UNL     1       1.597   7.811  20.641  0.00  0.00    +0.000 A 
ATOM     12  C   UNL     1       1.147   9.081  20.260  0.00  0.00    +0.000 A 
BRANCH   7  14
ATOM     13  C   UNL     1      -0.667  10.654  18.303  0.00  0.00    +0.000 C 
ATOM     14  O   UNL     1       0.750  10.656  18.494  0.00  0.00    +0.000 OA
ENDBRANCH   7  14
BRANCH  12  15
ATOM     15  O   UNL     1       0.594   9.748  21.317  0.00  0.00    +0.000 OA
ATOM     16  C   UNL     1       0.047   9.016  22.397  0.00  0.00    +0.000 C 
ENDBRANCH  12  15
ENDBRANCH   1  10
BRANCH   3  17
ATOM     17  C   UNL     1       4.355   2.530  20.423  0.00  0.00    +0.000 C 
BRANCH  17  18
ATOM     18  S   UNL     1       4.104   1.391  19.021  0.00  0.00    +0.000 S 
BRANCH  18  19
ATOM     19  C   UNL     1       2.635   2.146  18.245  0.00  0.00    +0.000 C 
BRANCH  19  20
ATOM     20  C   UNL     1       3.068   3.124  17.157  0.00  0.00    +0.000 C 
ATOM     21  O   UNL     1       2.265   3.625  16.375  0.00  0.00    +0.000 OA
ATOM     22  N   UNL     1       4.430   3.318  17.075  0.00  0.00    +0.000 N 
ATOM     23  H   UNL     1       4.976   3.100  17.905  0.00  0.00    +0.000 HD
BRANCH  22  24
ATOM     24  C   UNL     1       5.018   4.266  16.141  0.00  0.00    +0.000 C 
BRANCH  24  25
ATOM     25  C   UNL     1       6.393   4.764  16.598  0.00  0.00    +0.000 C 
ATOM     26  C   UNL     1       6.613   4.700  18.103  0.00  0.00    +0.000 C 
ATOM     27  C   UNL     1       7.599   5.816  18.330  0.00  0.00    +0.000 C 
ATOM     28  C   UNL     1       7.164   6.849  17.313  0.00  0.00    +0.000 C 
ATOM     29  O   UNL     1       6.588   6.139  16.209  0.00  0.00    +0.000 OA
ENDBRANCH  24  25
ENDBRANCH  22  24
ENDBRANCH  19  20
ENDBRANCH  18  19
ENDBRANCH  17  18
ENDBRANCH   3  17
TORSDOF 9
ENDMDL
MODEL 9
REMARK VINA RESULT:      -6.9      2.692      8.219
REMARK  Name = 
REMARK  12 active torsions:
REMARK  status: ('A' for Active; 'I' for Inactive)
REMARK    1  A    between atoms: C_1  and  O_2
REMARK    2  A    between atoms: O_2  and  C_3
REMARK    3  A    between atoms: C_6  and  C_7
REMARK    4  A    between atoms: C_9  and  C_10
REMARK    5  A    between atoms: C_10  and  S_11
REMARK    6  A    between atoms: S_11  and  C_12
REMARK    7  A    between atoms: C_12  and  C_13
REMARK    8  A    between atoms: N_15  and  C_16
REMARK    9  A    between atoms: C_16  and  C_17
REMARK   10  A    between atoms: C_22  and  C_23
REMARK   11  A    between atoms: C_26  and  O_27
REMARK   12  A    between atoms: O_27  and  C_28
REMARK                            x       y       z     vdW  Elec       q    Type
REMARK                         _______ _______ _______ _____ _____    ______ ____
ROOT
ATOM      1  C   UNL     1       3.519   5.656  18.617  0.00  0.00    +0.000 A 
ATOM      2  N   UNL     1       3.068   6.781  19.137  0.00  0.00    +0.000 NA
ATOM      3  C   UNL     1       2.109   6.374  20.056  0.00  0.00    +0.000 A 
ATOM      4  C   UNL     1       2.043   4.996  20.052  0.00  0.00    +0.000 A 
ATOM      5  C   UNL     1       1.298   3.949  20.770  0.00  0.00    +0.000 C 
ATOM      6  O   UNL     1       2.929   4.537  19.131  0.00  0.00    +0.000 OA
ENDROOT
BRANCH   1  10
ATOM      7  C   UNL     1       6.518   5.153  15.623  0.00  0.00    +0.000 A 
ATOM      8  C   UNL     1       5.385   4.319  15.650  0.00  0.00    +0.000 A 
ATOM      9  C   UNL     1       4.404   4.469  16.632  0.00  0.00    +0.000 A 
ATOM     10  C   UNL     1       4.563   5.421  17.637  0.00  0.00    +0.000 A 
ATOM     11  C   UNL     1       5.750   6.171  17.666  0.00  0.00    +0.000 A 
ATOM     12  C   UNL     1       6.733   6.047  16.678  0.00  0.00    +0.000 A 
BRANCH   7  14
ATOM     13  C   UNL     1       6.924   4.413  13.421  0.00  0.00    +0.000 C 
ATOM     14  O   UNL     1       7.408   5.084  14.586  0.00  0.00    +0.000 OA
ENDBRANCH   7  14
BRANCH  12  15
ATOM     15  O   UNL     1       7.778   6.898  16.908  0.00  0.00    +0.000 OA
ATOM     16  C   UNL     1       7.543   8.133  17.558  0.00  0.00    +0.000 C 
ENDBRANCH  12  15
ENDBRANCH   1  10
BRANCH   3  17
ATOM     17  C   UNL     1       1.367   7.364  20.878  0.00  0.00    +0.000 C 
BRANCH  17  18
ATOM     18  S   UNL     1       1.139   8.979  20.063  0.00  0.00    +0.000 S 
BRANCH  18  19
ATOM     19  C   UNL     1       0.402   9.935  21.432  0.00  0.00    +0.000 C 
BRANCH  19  20
ATOM     20  C   UNL     1      -0.470  11.054  20.872  0.00  0.00    +0.000 C 
ATOM     21  O   UNL     1      -1.253  11.684  21.578  0.00  0.00    +0.000 OA
ATOM     22  N   UNL     1      -0.368  11.228  19.508  0.00  0.00    +0.000 N 
ATOM     23  H   UNL     1       0.475  10.876  19.062  0.00  0.00    +0.000 HD
BRANCH  22  24
ATOM     24  C   UNL     1      -1.077  12.292  18.813  0.00  0.00    +0.000 C 
BRANCH  24  25
ATOM     25  C   UNL     1      -2.171  11.757  17.883  0.00  0.00    +0.000 C 
ATOM     26  C   UNL     1      -3.555  11.703  18.512  0.00  0.00    +0.000 C 
ATOM     27  C   UNL     1      -4.205  10.570  17.760  0.00  0.00    +0.000 C 
ATOM     28  C   UNL     1      -3.048   9.621  17.536  0.00  0.00    +0.000 C 
ATOM     29  O   UNL     1      -1.858  10.416  17.454  0.00  0.00    +0.000 OA
ENDBRANCH  24  25
ENDBRANCH  22  24
ENDBRANCH  19  20
ENDBRANCH  18  19
ENDBRANCH  17  18
ENDBRANCH   3  17
TORSDOF 9
ENDMDL
