MODEL 1
REMARK VINA RESULT:      -9.0      0.000      0.000
REMARK  Name = 
REMARK  4 active torsions:
REMARK  status: ('A' for Active; 'I' for Inactive)
REMARK    1  A    between atoms: C_2  and  C_5
REMARK    2  A    between atoms: N_9  and  C_10
REMARK    3  A    between atoms: C_16  and  C_17
REMARK    4  A    between atoms: C_22  and  C_23
REMARK                            x       y       z     vdW  Elec       q    Type
REMARK                         _______ _______ _______ _____ _____    ______ ____
ROOT
ATOM      1  C   UNL     1       1.290  10.111  20.079  0.00  0.00    +0.000 A 
ATOM      2  N   UNL     1       1.432  11.039  19.109  0.00  0.00    +0.000 NA
ATOM      3  C   UNL     1       1.825  10.634  17.903  0.00  0.00    +0.000 A 
ATOM      4  N   UNL     1       2.085   9.379  17.559  0.00  0.00    +0.000 NA
ATOM      5  C   UNL     1       1.966   8.467  18.525  0.00  0.00    +0.000 A 
ATOM      6  C   UNL     1       2.224   7.156  18.179  0.00  0.00    +0.000 A 
ATOM      7  C   UNL     1       2.256   6.107  19.113  0.00  0.00    +0.000 A 
ATOM      8  C   UNL     1       1.871   6.411  20.425  0.00  0.00    +0.000 A 
ATOM      9  C   UNL     1       1.516   7.708  20.784  0.00  0.00    +0.000 A 
ATOM     10  C   UNL     1       1.588   8.759  19.839  0.00  0.00    +0.000 A 
ENDROOT
BRANCH   1  15
ATOM     11  C   UNL     1      -2.728  12.301  22.572  0.00  0.00    +0.000 A 
ATOM     12  C   UNL     1      -2.411  12.337  21.218  0.00  0.00    +0.000 A 
ATOM     13  C   UNL     1      -1.232  11.760  20.781  0.00  0.00    +0.000 A 
ATOM     14  C   UNL     1      -0.382  11.140  21.682  0.00  0.00    +0.000 A 
ATOM     15  N   UNL     1       0.807  10.509  21.328  0.00  0.00    +0.000 N 
ATOM     16  N   UNL     1      -0.680  11.091  23.006  0.00  0.00    +0.000 NA
ATOM     17  C   UNL     1      -1.838  11.667  23.416  0.00  0.00    +0.000 A 
ATOM     18  H   UNL     1       1.218  10.103  22.154  0.00  0.00    +0.000 HD
BRANCH  11  20
ATOM     19  F   UNL     1      -4.327  12.470  24.331  0.00  0.00    +0.000 F 
ATOM     20  C   UNL     1      -3.968  12.940  23.105  0.00  0.00    +0.000 C 
ATOM     21  F   UNL     1      -5.041  12.732  22.297  0.00  0.00    +0.000 F 
ATOM     22  F   UNL     1      -3.847  14.286  23.239  0.00  0.00    +0.000 F 
ENDBRANCH  11  20
ENDBRANCH   1  15
BRANCH   7  23
ATOM     23  C   UNL     1       2.605   4.724  18.729  0.00  0.00    +0.000 A 
ATOM     24  N   UNL     1       1.515   3.901  18.726  0.00  0.00    +0.000 NA
ATOM     25  C   UNL     1       1.649   2.630  18.310  0.00  0.00    +0.000 A 
ATOM     26  C   UNL     1       2.838   2.109  17.856  0.00  0.00    +0.000 A 
ATOM     27  C   UNL     1       3.953   2.932  17.886  0.00  0.00    +0.000 A 
ATOM     28  C   UNL     1       3.869   4.253  18.366  0.00  0.00    +0.000 A 
BRANCH  28  29
ATOM     29  C   UNL     1       5.153   5.035  18.430  0.00  0.00    +0.000 C 
ATOM     30  F   UNL     1       5.249   6.118  17.616  0.00  0.00    +0.000 F 
ATOM     31  F   UNL     1       5.382   5.534  19.681  0.00  0.00    +0.000 F 
ATOM     32  F   UNL     1       6.235   4.253  18.149  0.00  0.00    +0.000 F 
ENDBRANCH  28  29
ENDBRANCH   7  23
TORSDOF 4
ENDMDL
MODEL 2
REMARK VINA RESULT:      -9.0      3.870     10.255
REMARK  Name = 
REMARK  4 active torsions:
REMARK  status: ('A' for Active; 'I' for Inactive)
REMARK    1  A    between atoms: C_2  and  C_5
REMARK    2  A    between atoms: N_9  and  C_10
REMARK    3  A    between atoms: C_16  and  C_17
REMARK    4  A    between atoms: C_22  and  C_23
REMARK                            x       y       z     vdW  Elec       q    Type
REMARK                         _______ _______ _______ _____ _____    ______ ____
ROOT
ATOM      1  C   UNL     1       5.161   4.763  18.490  0.00  0.00    +0.000 A 
ATOM      2  N   UNL     1       5.043   3.678  19.285  0.00  0.00    +0.000 NA
ATOM      3  C   UNL     1       3.998   3.612  20.108  0.00  0.00    +0.000 A 
ATOM      4  N   UNL     1       3.041   4.526  20.212  0.00  0.00    +0.000 NA
ATOM      5  C   UNL     1       3.172   5.607  19.441  0.00  0.00    +0.000 A 
ATOM      6  C   UNL     1       2.178   6.560  19.532  0.00  0.00    +0.000 A 
ATOM      7  C   UNL     1       2.241   7.800  18.875  0.00  0.00    +0.000 A 
ATOM      8  C   UNL     1       3.306   7.995  17.986  0.00  0.00    +0.000 A 
ATOM      9  C   UNL     1       4.275   7.013  17.804  0.00  0.00    +0.000 A 
ATOM     10  C   UNL     1       4.233   5.815  18.555  0.00  0.00    +0.000 A 
ENDROOT
BRANCH   1  15
ATOM     11  C   UNL     1       6.452   4.074  13.489  0.00  0.00    +0.000 A 
ATOM     12  C   UNL     1       5.334   3.613  14.178  0.00  0.00    +0.000 A 
ATOM     13  C   UNL     1       5.238   3.834  15.540  0.00  0.00    +0.000 A 
ATOM     14  C   UNL     1       6.239   4.519  16.209  0.00  0.00    +0.000 A 
ATOM     15  N   UNL     1       6.211   4.813  17.569  0.00  0.00    +0.000 N 
ATOM     16  N   UNL     1       7.333   4.982  15.550  0.00  0.00    +0.000 NA
ATOM     17  C   UNL     1       7.411   4.750  14.215  0.00  0.00    +0.000 A 
ATOM     18  H   UNL     1       7.029   5.352  17.802  0.00  0.00    +0.000 HD
BRANCH  11  20
ATOM     19  F   UNL     1       7.364   4.795  11.408  0.00  0.00    +0.000 F 
ATOM     20  C   UNL     1       6.626   3.831  12.025  0.00  0.00    +0.000 C 
ATOM     21  F   UNL     1       5.438   3.791  11.366  0.00  0.00    +0.000 F 
ATOM     22  F   UNL     1       7.250   2.654  11.761  0.00  0.00    +0.000 F 
ENDBRANCH  11  20
ENDBRANCH   1  15
BRANCH   7  23
ATOM     23  C   UNL     1       1.200   8.833  19.044  0.00  0.00    +0.000 A 
ATOM     24  N   UNL     1       0.818   9.378  17.852  0.00  0.00    +0.000 NA
ATOM     25  C   UNL     1      -0.189  10.269  17.826  0.00  0.00    +0.000 A 
ATOM     26  C   UNL     1      -0.884  10.651  18.949  0.00  0.00    +0.000 A 
ATOM     27  C   UNL     1      -0.479  10.123  20.166  0.00  0.00    +0.000 A 
ATOM     28  C   UNL     1       0.605   9.229  20.245  0.00  0.00    +0.000 A 
BRANCH  28  29
ATOM     29  C   UNL     1       1.012   8.776  21.622  0.00  0.00    +0.000 C 
ATOM     30  F   UNL     1       2.295   9.025  21.991  0.00  0.00    +0.000 F 
ATOM     31  F   UNL     1       0.261   9.372  22.595  0.00  0.00    +0.000 F 
ATOM     32  F   UNL     1       0.822   7.436  21.789  0.00  0.00    +0.000 F 
ENDBRANCH  28  29
ENDBRANCH   7  23
TORSDOF 4
ENDMDL
MODEL 3
REMARK VINA RESULT:      -8.9      3.688      4.750
REMARK  Name = 
REMARK  4 active torsions:
REMARK  status: ('A' for Active; 'I' for Inactive)
REMARK    1  A    between atoms: C_2  and  C_5
REMARK    2  A    between atoms: N_9  and  C_10
REMARK    3  A    between atoms: C_16  and  C_17
REMARK    4  A    between atoms: C_22  and  C_23
REMARK                            x       y       z     vdW  Elec       q    Type
REMARK                         _______ _______ _______ _____ _____    ______ ____
ROOT
ATOM      1  C   UNL     1       0.213  10.243  20.278  0.00  0.00    +0.000 A 
ATOM      2  N   UNL     1      -0.105  10.034  21.573  0.00  0.00    +0.000 NA
ATOM      3  C   UNL     1       0.399   8.960  22.179  0.00  0.00    +0.000 A 
ATOM      4  N   UNL     1       1.205   8.067  21.619  0.00  0.00    +0.000 NA
ATOM      5  C   UNL     1       1.499   8.264  20.333  0.00  0.00    +0.000 A 
ATOM      6  C   UNL     1       2.346   7.348  19.740  0.00  0.00    +0.000 A 
ATOM      7  C   UNL     1       2.648   7.358  18.369  0.00  0.00    +0.000 A 
ATOM      8  C   UNL     1       2.164   8.437  17.618  0.00  0.00    +0.000 A 
ATOM      9  C   UNL     1       1.383   9.426  18.208  0.00  0.00    +0.000 A 
ATOM     10  C   UNL     1       1.018   9.334  19.572  0.00  0.00    +0.000 A 
ENDROOT
BRANCH   1  15
ATOM     11  C   UNL     1       1.449  15.137  18.982  0.00  0.00    +0.000 A 
ATOM     12  C   UNL     1       2.037  14.305  19.930  0.00  0.00    +0.000 A 
ATOM     13  C   UNL     1       1.483  13.063  20.181  0.00  0.00    +0.000 A 
ATOM     14  C   UNL     1       0.360  12.646  19.485  0.00  0.00    +0.000 A 
ATOM     15  N   UNL     1      -0.246  11.404  19.649  0.00  0.00    +0.000 N 
ATOM     16  N   UNL     1      -0.222  13.443  18.551  0.00  0.00    +0.000 NA
ATOM     17  C   UNL     1       0.333  14.660  18.324  0.00  0.00    +0.000 A 
ATOM     18  H   UNL     1      -1.014  11.328  19.002  0.00  0.00    +0.000 HD
BRANCH  11  20
ATOM     19  F   UNL     1       2.922  16.907  19.597  0.00  0.00    +0.000 F 
ATOM     20  C   UNL     1       1.983  16.503  18.698  0.00  0.00    +0.000 C 
ATOM     21  F   UNL     1       1.009  17.451  18.723  0.00  0.00    +0.000 F 
ATOM     22  F   UNL     1       2.570  16.591  17.476  0.00  0.00    +0.000 F 
ENDBRANCH  11  20
ENDBRANCH   1  15
BRANCH   7  23
ATOM     23  C   UNL     1       3.499   6.325  17.745  0.00  0.00    +0.000 A 
ATOM     24  N   UNL     1       4.697   6.829  17.328  0.00  0.00    +0.000 NA
ATOM     25  C   UNL     1       5.624   5.997  16.821  0.00  0.00    +0.000 A 
ATOM     26  C   UNL     1       5.438   4.639  16.720  0.00  0.00    +0.000 A 
ATOM     27  C   UNL     1       4.212   4.126  17.114  0.00  0.00    +0.000 A 
ATOM     28  C   UNL     1       3.194   4.969  17.599  0.00  0.00    +0.000 A 
BRANCH  28  29
ATOM     29  C   UNL     1       1.874   4.322  17.925  0.00  0.00    +0.000 C 
ATOM     30  F   UNL     1       1.458   4.403  19.215  0.00  0.00    +0.000 F 
ATOM     31  F   UNL     1       0.849   4.869  17.206  0.00  0.00    +0.000 F 
ATOM     32  F   UNL     1       1.871   2.996  17.607  0.00  0.00    +0.000 F 
ENDBRANCH  28  29
ENDBRANCH   7  23
TORSDOF 4
ENDMDL
MODEL 4
REMARK VINA RESULT:      -8.7      3.773     10.204
REMARK  Name = 
REMARK  4 active torsions:
REMARK  status: ('A' for Active; 'I' for Inactive)
REMARK    1  A    between atoms: C_2  and  C_5
REMARK    2  A    between atoms: N_9  and  C_10
REMARK    3  A    between atoms: C_16  and  C_17
REMARK    4  A    between atoms: C_22  and  C_23
REMARK                            x       y       z     vdW  Elec       q    Type
REMARK                         _______ _______ _______ _____ _____    ______ ____
ROOT
ATOM      1  C   UNL     1       5.068   4.143  18.730  0.00  0.00    +0.000 A 
ATOM      2  N   UNL     1       4.881   2.916  19.262  0.00  0.00    +0.000 NA
ATOM      3  C   UNL     1       3.834   2.732  20.064  0.00  0.00    +0.000 A 
ATOM      4  N   UNL     1       2.938   3.656  20.385  0.00  0.00    +0.000 NA
ATOM      5  C   UNL     1       3.139   4.873  19.877  0.00  0.00    +0.000 A 
ATOM      6  C   UNL     1       2.208   5.842  20.195  0.00  0.00    +0.000 A 
ATOM      7  C   UNL     1       2.351   7.192  19.834  0.00  0.00    +0.000 A 
ATOM      8  C   UNL     1       3.427   7.515  18.995  0.00  0.00    +0.000 A 
ATOM      9  C   UNL     1       4.330   6.541  18.582  0.00  0.00    +0.000 A 
ATOM     10  C   UNL     1       4.210   5.209  19.044  0.00  0.00    +0.000 A 
ENDROOT
BRANCH   1  15
ATOM     11  C   UNL     1       6.413   4.025  13.697  0.00  0.00    +0.000 A 
ATOM     12  C   UNL     1       5.314   3.446  14.325  0.00  0.00    +0.000 A 
ATOM     13  C   UNL     1       5.201   3.523  15.702  0.00  0.00    +0.000 A 
ATOM     14  C   UNL     1       6.167   4.181  16.446  0.00  0.00    +0.000 A 
ATOM     15  N   UNL     1       6.119   4.334  17.829  0.00  0.00    +0.000 N 
ATOM     16  N   UNL     1       7.241   4.757  15.847  0.00  0.00    +0.000 NA
ATOM     17  C   UNL     1       7.337   4.666  14.496  0.00  0.00    +0.000 A 
ATOM     18  H   UNL     1       6.911   4.883  18.123  0.00  0.00    +0.000 HD
BRANCH  11  20
ATOM     19  F   UNL     1       5.440   4.053  11.520  0.00  0.00    +0.000 F 
ATOM     20  C   UNL     1       6.605   3.940  12.218  0.00  0.00    +0.000 C 
ATOM     21  F   UNL     1       7.154   2.756  11.838  0.00  0.00    +0.000 F 
ATOM     22  F   UNL     1       7.424   4.912  11.740  0.00  0.00    +0.000 F 
ENDBRANCH  11  20
ENDBRANCH   1  15
BRANCH   7  23
ATOM     23  C   UNL     1       1.379   8.223  20.247  0.00  0.00    +0.000 A 
ATOM     24  N   UNL     1       1.080   8.143  21.577  0.00  0.00    +0.000 NA
ATOM     25  C   UNL     1       0.279   9.071  22.130  0.00  0.00    +0.000 A 
ATOM     26  C   UNL     1      -0.246  10.128  21.425  0.00  0.00    +0.000 A 
ATOM     27  C   UNL     1       0.031  10.196  20.067  0.00  0.00    +0.000 A 
ATOM     28  C   UNL     1       0.820   9.215  19.437  0.00  0.00    +0.000 A 
BRANCH  28  29
ATOM     29  C   UNL     1       0.995   9.338  17.947  0.00  0.00    +0.000 C 
ATOM     30  F   UNL     1       2.079  10.032  17.516  0.00  0.00    +0.000 F 
ATOM     31  F   UNL     1       1.116   8.117  17.347  0.00  0.00    +0.000 F 
ATOM     32  F   UNL     1      -0.088   9.923  17.359  0.00  0.00    +0.000 F 
ENDBRANCH  28  29
ENDBRANCH   7  23
TORSDOF 4
ENDMDL
MODEL 5
REMARK VINA RESULT:      -8.4      1.761      2.113
REMARK  Name = 
REMARK  4 active torsions:
REMARK  status: ('A' for Active; 'I' for Inactive)
REMARK    1  A    between atoms: C_2  and  C_5
REMARK    2  A    between atoms: N_9  and  C_10
REMARK    3  A    between atoms: C_16  and  C_17
REMARK    4  A    between atoms: C_22  and  C_23
REMARK                            x       y       z     vdW  Elec       q    Type
REMARK                         _______ _______ _______ _____ _____    ______ ____
ROOT
ATOM      1  C   UNL     1       1.157  10.245  20.148  0.00  0.00    +0.000 A 
ATOM      2  N   UNL     1       1.274  11.201  19.201  0.00  0.00    +0.000 NA
ATOM      3  C   UNL     1       1.713  10.841  17.996  0.00  0.00    +0.000 A 
ATOM      4  N   UNL     1       2.042   9.608  17.632  0.00  0.00    +0.000 NA
ATOM      5  C   UNL     1       1.946   8.670  18.576  0.00  0.00    +0.000 A 
ATOM      6  C   UNL     1       2.275   7.381  18.207  0.00  0.00    +0.000 A 
ATOM      7  C   UNL     1       2.338   6.315  19.119  0.00  0.00    +0.000 A 
ATOM      8  C   UNL     1       1.910   6.571  20.429  0.00  0.00    +0.000 A 
ATOM      9  C   UNL     1       1.485   7.841  20.806  0.00  0.00    +0.000 A 
ATOM     10  C   UNL     1       1.526   8.915  19.887  0.00  0.00    +0.000 A 
ENDROOT
BRANCH   1  15
ATOM     11  C   UNL     1      -2.935  12.369  22.578  0.00  0.00    +0.000 A 
ATOM     12  C   UNL     1      -2.563  12.463  21.240  0.00  0.00    +0.000 A 
ATOM     13  C   UNL     1      -1.373  11.892  20.824  0.00  0.00    +0.000 A 
ATOM     14  C   UNL     1      -0.567  11.221  21.729  0.00  0.00    +0.000 A 
ATOM     15  N   UNL     1       0.628  10.591  21.394  0.00  0.00    +0.000 N 
ATOM     16  N   UNL     1      -0.919  11.114  23.037  0.00  0.00    +0.000 NA
ATOM     17  C   UNL     1      -2.087  11.686  23.426  0.00  0.00    +0.000 A 
ATOM     18  H   UNL     1       1.001  10.142  22.215  0.00  0.00    +0.000 HD
BRANCH  11  20
ATOM     19  F   UNL     1      -4.456  12.680  24.386  0.00  0.00    +0.000 F 
ATOM     20  C   UNL     1      -4.189  12.998  23.089  0.00  0.00    +0.000 C 
ATOM     21  F   UNL     1      -5.283  12.616  22.379  0.00  0.00    +0.000 F 
ATOM     22  F   UNL     1      -4.153  14.355  23.035  0.00  0.00    +0.000 F 
ENDBRANCH  11  20
ENDBRANCH   1  15
BRANCH   7  23
ATOM     23  C   UNL     1       2.762   4.959  18.715  0.00  0.00    +0.000 A 
ATOM     24  N   UNL     1       3.568   4.980  17.613  0.00  0.00    +0.000 NA
ATOM     25  C   UNL     1       4.115   3.833  17.172  0.00  0.00    +0.000 A 
ATOM     26  C   UNL     1       3.923   2.622  17.795  0.00  0.00    +0.000 A 
ATOM     27  C   UNL     1       3.080   2.592  18.896  0.00  0.00    +0.000 A 
ATOM     28  C   UNL     1       2.444   3.760  19.357  0.00  0.00    +0.000 A 
BRANCH  28  29
ATOM     29  C   UNL     1       1.489   3.603  20.510  0.00  0.00    +0.000 C 
ATOM     30  F   UNL     1       0.283   4.214  20.389  0.00  0.00    +0.000 F 
ATOM     31  F   UNL     1       1.182   2.292  20.739  0.00  0.00    +0.000 F 
ATOM     32  F   UNL     1       2.029   4.057  21.677  0.00  0.00    +0.000 F 
ENDBRANCH  28  29
ENDBRANCH   7  23
TORSDOF 4
ENDMDL
MODEL 6
REMARK VINA RESULT:      -8.2      2.185      2.637
REMARK  Name = 
REMARK  4 active torsions:
REMARK  status: ('A' for Active; 'I' for Inactive)
REMARK    1  A    between atoms: C_2  and  C_5
REMARK    2  A    between atoms: N_9  and  C_10
REMARK    3  A    between atoms: C_16  and  C_17
REMARK    4  A    between atoms: C_22  and  C_23
REMARK                            x       y       z     vdW  Elec       q    Type
REMARK                         _______ _______ _______ _____ _____    ______ ____
ROOT
ATOM      1  C   UNL     1       0.443  10.163  20.116  0.00  0.00    +0.000 A 
ATOM      2  N   UNL     1       0.496  11.135  19.181  0.00  0.00    +0.000 NA
ATOM      3  C   UNL     1       1.196  10.903  18.072  0.00  0.00    +0.000 A 
ATOM      4  N   UNL     1       1.849   9.782  17.794  0.00  0.00    +0.000 NA
ATOM      5  C   UNL     1       1.814   8.832  18.730  0.00  0.00    +0.000 A 
ATOM      6  C   UNL     1       2.481   7.657  18.449  0.00  0.00    +0.000 A 
ATOM      7  C   UNL     1       2.632   6.618  19.382  0.00  0.00    +0.000 A 
ATOM      8  C   UNL     1       1.948   6.751  20.598  0.00  0.00    +0.000 A 
ATOM      9  C   UNL     1       1.192   7.886  20.873  0.00  0.00    +0.000 A 
ATOM     10  C   UNL     1       1.140   8.955  19.948  0.00  0.00    +0.000 A 
ENDROOT
BRANCH   1  15
ATOM     11  C   UNL     1      -1.463  13.748  23.383  0.00  0.00    +0.000 A 
ATOM     12  C   UNL     1      -0.397  13.849  22.494  0.00  0.00    +0.000 A 
ATOM     13  C   UNL     1       0.004  12.732  21.784  0.00  0.00    +0.000 A 
ATOM     14  C   UNL     1      -0.661  11.527  21.946  0.00  0.00    +0.000 A 
ATOM     15  N   UNL     1      -0.347  10.362  21.251  0.00  0.00    +0.000 N 
ATOM     16  N   UNL     1      -1.707  11.413  22.804  0.00  0.00    +0.000 NA
ATOM     17  C   UNL     1      -2.080  12.519  23.496  0.00  0.00    +0.000 A 
ATOM     18  H   UNL     1      -0.999   9.640  21.515  0.00  0.00    +0.000 HD
BRANCH  11  20
ATOM     19  F   UNL     1      -0.945  15.385  25.036  0.00  0.00    +0.000 F 
ATOM     20  C   UNL     1      -1.913  14.912  24.203  0.00  0.00    +0.000 C 
ATOM     21  F   UNL     1      -2.970  14.601  25.000  0.00  0.00    +0.000 F 
ATOM     22  F   UNL     1      -2.304  15.968  23.444  0.00  0.00    +0.000 F 
ENDBRANCH  11  20
ENDBRANCH   1  15
BRANCH   7  23
ATOM     23  C   UNL     1       3.411   5.400  19.083  0.00  0.00    +0.000 A 
ATOM     24  N   UNL     1       4.753   5.594  19.250  0.00  0.00    +0.000 NA
ATOM     25  C   UNL     1       5.593   4.554  19.107  0.00  0.00    +0.000 A 
ATOM     26  C   UNL     1       5.168   3.279  18.818  0.00  0.00    +0.000 A 
ATOM     27  C   UNL     1       3.809   3.084  18.617  0.00  0.00    +0.000 A 
ATOM     28  C   UNL     1       2.901   4.156  18.704  0.00  0.00    +0.000 A 
BRANCH  28  29
ATOM     29  C   UNL     1       1.461   3.852  18.391  0.00  0.00    +0.000 C 
ATOM     30  F   UNL     1       0.891   4.567  17.388  0.00  0.00    +0.000 F 
ATOM     31  F   UNL     1       1.286   2.549  18.017  0.00  0.00    +0.000 F 
ATOM     32  F   UNL     1       0.660   4.025  19.482  0.00  0.00    +0.000 F 
ENDBRANCH  28  29
ENDBRANCH   7  23
TORSDOF 4
ENDMDL
MODEL 7
REMARK VINA RESULT:      -8.2      3.237      4.194
REMARK  Name = 
REMARK  4 active torsions:
REMARK  status: ('A' for Active; 'I' for Inactive)
REMARK    1  A    between atoms: C_2  and  C_5
REMARK    2  A    between atoms: N_9  and  C_10
REMARK    3  A    between atoms: C_16  and  C_17
REMARK    4  A    between atoms: C_22  and  C_23
REMARK                            x       y       z     vdW  Elec       q    Type
REMARK                         _______ _______ _______ _____ _____    ______ ____
ROOT
ATOM      1  C   UNL     1       0.498   9.725  20.287  0.00  0.00    +0.000 A 
ATOM      2  N   UNL     1       0.379   9.569  21.623  0.00  0.00    +0.000 NA
ATOM      3  C   UNL     1       1.050   8.574  22.201  0.00  0.00    +0.000 A 
ATOM      4  N   UNL     1       1.845   7.715  21.576  0.00  0.00    +0.000 NA
ATOM      5  C   UNL     1       1.942   7.858  20.253  0.00  0.00    +0.000 A 
ATOM      6  C   UNL     1       2.773   6.977  19.591  0.00  0.00    +0.000 A 
ATOM      7  C   UNL     1       2.882   6.929  18.192  0.00  0.00    +0.000 A 
ATOM      8  C   UNL     1       2.210   7.922  17.467  0.00  0.00    +0.000 A 
ATOM      9  C   UNL     1       1.437   8.881  18.114  0.00  0.00    +0.000 A 
ATOM     10  C   UNL     1       1.272   8.841  19.518  0.00  0.00    +0.000 A 
ENDROOT
BRANCH   1  15
ATOM     11  C   UNL     1      -3.715  11.197  17.596  0.00  0.00    +0.000 A 
ATOM     12  C   UNL     1      -3.201   9.919  17.791  0.00  0.00    +0.000 A 
ATOM     13  C   UNL     1      -2.004   9.764  18.468  0.00  0.00    +0.000 A 
ATOM     14  C   UNL     1      -1.331  10.871  18.958  0.00  0.00    +0.000 A 
ATOM     15  N   UNL     1      -0.140  10.808  19.676  0.00  0.00    +0.000 N 
ATOM     16  N   UNL     1      -1.823  12.125  18.782  0.00  0.00    +0.000 NA
ATOM     17  C   UNL     1      -2.995  12.256  18.110  0.00  0.00    +0.000 A 
ATOM     18  H   UNL     1       0.122  11.740  19.954  0.00  0.00    +0.000 HD
BRANCH  11  20
ATOM     19  F   UNL     1      -5.292  12.745  16.701  0.00  0.00    +0.000 F 
ATOM     20  C   UNL     1      -4.983  11.426  16.840  0.00  0.00    +0.000 C 
ATOM     21  F   UNL     1      -6.055  10.854  17.449  0.00  0.00    +0.000 F 
ATOM     22  F   UNL     1      -4.941  10.916  15.582  0.00  0.00    +0.000 F 
ENDBRANCH  11  20
ENDBRANCH   1  15
BRANCH   7  23
ATOM     23  C   UNL     1       3.724   5.930  17.503  0.00  0.00    +0.000 A 
ATOM     24  N   UNL     1       4.850   6.488  16.968  0.00  0.00    +0.000 NA
ATOM     25  C   UNL     1       5.767   5.695  16.386  0.00  0.00    +0.000 A 
ATOM     26  C   UNL     1       5.645   4.327  16.321  0.00  0.00    +0.000 A 
ATOM     27  C   UNL     1       4.489   3.760  16.836  0.00  0.00    +0.000 A 
ATOM     28  C   UNL     1       3.478   4.558  17.404  0.00  0.00    +0.000 A 
BRANCH  28  29
ATOM     29  C   UNL     1       2.231   3.851  17.862  0.00  0.00    +0.000 C 
ATOM     30  F   UNL     1       2.000   3.827  19.200  0.00  0.00    +0.000 F 
ATOM     31  F   UNL     1       1.104   4.417  17.336  0.00  0.00    +0.000 F 
ATOM     32  F   UNL     1       2.208   2.551  17.450  0.00  0.00    +0.000 F 
ENDBRANCH  28  29
ENDBRANCH   7  23
TORSDOF 4
ENDMDL
MODEL 8
REMARK VINA RESULT:      -8.2      3.573      4.742
REMARK  Name = 
REMARK  4 active torsions:
REMARK  status: ('A' for Active; 'I' for Inactive)
REMARK    1  A    between atoms: C_2  and  C_5
REMARK    2  A    between atoms: N_9  and  C_10
REMARK    3  A    between atoms: C_16  and  C_17
REMARK    4  A    between atoms: C_22  and  C_23
REMARK                            x       y       z     vdW  Elec       q    Type
REMARK                         _______ _______ _______ _____ _____    ______ ____
ROOT
ATOM      1  C   UNL     1       1.225  10.318  19.838  0.00  0.00    +0.000 A 
ATOM      2  N   UNL     1       0.780  10.550  21.091  0.00  0.00    +0.000 NA
ATOM      3  C   UNL     1       0.745   9.529  21.946  0.00  0.00    +0.000 A 
ATOM      4  N   UNL     1       1.124   8.286  21.677  0.00  0.00    +0.000 NA
ATOM      5  C   UNL     1       1.543   8.055  20.431  0.00  0.00    +0.000 A 
ATOM      6  C   UNL     1       1.950   6.768  20.140  0.00  0.00    +0.000 A 
ATOM      7  C   UNL     1       2.300   6.348  18.847  0.00  0.00    +0.000 A 
ATOM      8  C   UNL     1       2.362   7.334  17.853  0.00  0.00    +0.000 A 
ATOM      9  C   UNL     1       2.046   8.658  18.138  0.00  0.00    +0.000 A 
ATOM     10  C   UNL     1       1.604   9.029  19.430  0.00  0.00    +0.000 A 
ENDROOT
BRANCH   1  15
ATOM     11  C   UNL     1       3.180  15.107  19.206  0.00  0.00    +0.000 A 
ATOM     12  C   UNL     1       2.965  14.395  20.382  0.00  0.00    +0.000 A 
ATOM     13  C   UNL     1       2.340  13.163  20.325  0.00  0.00    +0.000 A 
ATOM     14  C   UNL     1       1.944  12.636  19.107  0.00  0.00    +0.000 A 
ATOM     15  N   UNL     1       1.338  11.393  18.952  0.00  0.00    +0.000 N 
ATOM     16  N   UNL     1       2.153  13.315  17.949  0.00  0.00    +0.000 NA
ATOM     17  C   UNL     1       2.762  14.524  18.026  0.00  0.00    +0.000 A 
ATOM     18  H   UNL     1       1.187  11.224  17.971  0.00  0.00    +0.000 HD
BRANCH  11  20
ATOM     19  F   UNL     1       4.165  16.890  17.968  0.00  0.00    +0.000 F 
ATOM     20  C   UNL     1       3.816  16.458  19.211  0.00  0.00    +0.000 C 
ATOM     21  F   UNL     1       4.957  16.486  19.950  0.00  0.00    +0.000 F 
ATOM     22  F   UNL     1       3.004  17.417  19.727  0.00  0.00    +0.000 F 
ENDBRANCH  11  20
ENDBRANCH   1  15
BRANCH   7  23
ATOM     23  C   UNL     1       2.663   4.949  18.547  0.00  0.00    +0.000 A 
ATOM     24  N   UNL     1       1.568   4.136  18.484  0.00  0.00    +0.000 NA
ATOM     25  C   UNL     1       1.721   2.848  18.129  0.00  0.00    +0.000 A 
ATOM     26  C   UNL     1       2.938   2.300  17.795  0.00  0.00    +0.000 A 
ATOM     27  C   UNL     1       4.056   3.115  17.887  0.00  0.00    +0.000 A 
ATOM     28  C   UNL     1       3.948   4.454  18.308  0.00  0.00    +0.000 A 
BRANCH  28  29
ATOM     29  C   UNL     1       5.231   5.227  18.449  0.00  0.00    +0.000 C 
ATOM     30  F   UNL     1       5.371   6.324  17.662  0.00  0.00    +0.000 F 
ATOM     31  F   UNL     1       5.402   5.700  19.720  0.00  0.00    +0.000 F 
ATOM     32  F   UNL     1       6.321   4.444  18.205  0.00  0.00    +0.000 F 
ENDBRANCH  28  29
ENDBRANCH   7  23
TORSDOF 4
ENDMDL
MODEL 9
REMARK VINA RESULT:      -8.1      3.854      4.959
REMARK  Name = 
REMARK  4 active torsions:
REMARK  status: ('A' for Active; 'I' for Inactive)
REMARK    1  A    between atoms: C_2  and  C_5
REMARK    2  A    between atoms: N_9  and  C_10
REMARK    3  A    between atoms: C_16  and  C_17
REMARK    4  A    between atoms: C_22  and  C_23
REMARK                            x       y       z     vdW  Elec       q    Type
REMARK                         _______ _______ _______ _____ _____    ______ ____
ROOT
ATOM      1  C   UNL     1       0.710  10.294  19.848  0.00  0.00    +0.000 A 
ATOM      2  N   UNL     1       0.024  10.241  21.009  0.00  0.00    +0.000 NA
ATOM      3  C   UNL     1       0.116   9.133  21.744  0.00  0.00    +0.000 A 
ATOM      4  N   UNL     1       0.841   8.065  21.438  0.00  0.00    +0.000 NA
ATOM      5  C   UNL     1       1.499   8.111  20.279  0.00  0.00    +0.000 A 
ATOM      6  C   UNL     1       2.265   7.010  19.954  0.00  0.00    +0.000 A 
ATOM      7  C   UNL     1       2.915   6.865  18.717  0.00  0.00    +0.000 A 
ATOM      8  C   UNL     1       2.880   7.963  17.848  0.00  0.00    +0.000 A 
ATOM      9  C   UNL     1       2.192   9.124  18.188  0.00  0.00    +0.000 A 
ATOM     10  C   UNL     1       1.468   9.199  19.401  0.00  0.00    +0.000 A 
ENDROOT
BRANCH   1  15
ATOM     11  C   UNL     1       2.690  15.096  19.437  0.00  0.00    +0.000 A 
ATOM     12  C   UNL     1       2.691  14.238  20.532  0.00  0.00    +0.000 A 
ATOM     13  C   UNL     1       2.017  13.032  20.450  0.00  0.00    +0.000 A 
ATOM     14  C   UNL     1       1.359  12.678  19.283  0.00  0.00    +0.000 A 
ATOM     15  N   UNL     1       0.683  11.475  19.102  0.00  0.00    +0.000 N 
ATOM     16  N   UNL     1       1.354  13.502  18.204  0.00  0.00    +0.000 NA
ATOM     17  C   UNL     1       2.016  14.682  18.306  0.00  0.00    +0.000 A 
ATOM     18  H   UNL     1       0.328  11.440  18.160  0.00  0.00    +0.000 HD
BRANCH  11  20
ATOM     19  F   UNL     1       3.506  16.913  20.746  0.00  0.00    +0.000 F 
ATOM     20  C   UNL     1       3.369  16.426  19.482  0.00  0.00    +0.000 C 
ATOM     21  F   UNL     1       2.687  17.375  18.788  0.00  0.00    +0.000 F 
ATOM     22  F   UNL     1       4.620  16.393  18.954  0.00  0.00    +0.000 F 
ENDBRANCH  11  20
ENDBRANCH   1  15
BRANCH   7  23
ATOM     23  C   UNL     1       3.669   5.646  18.364  0.00  0.00    +0.000 A 
ATOM     24  N   UNL     1       5.014   5.874  18.302  0.00  0.00    +0.000 NA
ATOM     25  C   UNL     1       5.849   4.843  18.082  0.00  0.00    +0.000 A 
ATOM     26  C   UNL     1       5.419   3.545  17.937  0.00  0.00    +0.000 A 
ATOM     27  C   UNL     1       4.052   3.314  17.969  0.00  0.00    +0.000 A 
ATOM     28  C   UNL     1       3.139   4.372  18.142  0.00  0.00    +0.000 A 
BRANCH  28  29
ATOM     29  C   UNL     1       1.677   4.024  18.083  0.00  0.00    +0.000 C 
ATOM     30  F   UNL     1       1.369   2.731  17.803  0.00  0.00    +0.000 F 
ATOM     31  F   UNL     1       1.048   4.270  19.271  0.00  0.00    +0.000 F 
ATOM     32  F   UNL     1       1.015   4.780  17.161  0.00  0.00    +0.000 F 
ENDBRANCH  28  29
ENDBRANCH   7  23
TORSDOF 4
ENDMDL
