MODEL 1
REMARK VINA RESULT:      -9.0      0.000      0.000
REMARK  Name = 
REMARK  1 active torsions:
REMARK  status: ('A' for Active; 'I' for Inactive)
REMARK    1  A    between atoms: C_1  and  C_2
REMARK                            x       y       z     vdW  Elec       q    Type
REMARK                         _______ _______ _______ _____ _____    ______ ____
ROOT
ATOM      1  C   UNL     1       5.804   5.349  15.161  0.00  0.00    +0.000 C 
ATOM      2  C   UNL     1       4.952   4.948  16.318  0.00  0.00    +0.000 A 
ATOM      3  C   UNL     1       4.845   3.628  16.716  0.00  0.00    +0.000 A 
ATOM      4  C   UNL     1       4.039   3.256  17.804  0.00  0.00    +0.000 A 
ATOM      5  C   UNL     1       3.329   4.214  18.531  0.00  0.00    +0.000 A 
ATOM      6  C   UNL     1       3.431   5.554  18.137  0.00  0.00    +0.000 A 
ATOM      7  C   UNL     1       4.238   5.900  17.035  0.00  0.00    +0.000 A 
ATOM      8  C   UNL     1       2.695   6.556  18.895  0.00  0.00    +0.000 A 
ATOM      9  N   UNL     1       2.524   7.777  18.332  0.00  0.00    +0.000 NA
ATOM     10  C   UNL     1       1.814   8.696  18.999  0.00  0.00    +0.000 A 
ATOM     11  C   UNL     1       1.617   9.957  18.448  0.00  0.00    +0.000 A 
ATOM     12  N   UNL     1       0.942  10.974  18.958  0.00  0.00    +0.000 NA
ATOM     13  C   UNL     1       0.380  10.679  20.200  0.00  0.00    +0.000 A 
ATOM     14  C   UNL     1      -0.337  11.690  20.765  0.00  0.00    +0.000 A 
ATOM     15  C   UNL     1      -0.877  11.455  21.952  0.00  0.00    +0.000 A 
ATOM     16  C   UNL     1      -1.413  11.274  23.076  0.00  0.00    +0.000 A 
ATOM     17  C   UNL     1      -0.426   9.844  22.322  0.00  0.00    +0.000 A 
ATOM     18  C   UNL     1       0.446   9.532  20.933  0.00  0.00    +0.000 A 
ATOM     19  C   UNL     1       1.228   8.458  20.278  0.00  0.00    +0.000 A 
ATOM     20  C   UNL     1       1.453   7.170  20.828  0.00  0.00    +0.000 A 
ATOM     21  C   UNL     1       2.187   6.216  20.131  0.00  0.00    +0.000 A 
ATOM     22  C   UNL     1       2.486   4.852  20.671  0.00  0.00    +0.000 C 
ATOM     23  O   UNL     1       2.525   3.841  19.611  0.00  0.00    +0.000 OA
ENDROOT
TORSDOF 0
ENDMDL
MODEL 2
REMARK VINA RESULT:      -8.7      2.006      7.707
REMARK  Name = 
REMARK  1 active torsions:
REMARK  status: ('A' for Active; 'I' for Inactive)
REMARK    1  A    between atoms: C_1  and  C_2
REMARK                            x       y       z     vdW  Elec       q    Type
REMARK                         _______ _______ _______ _____ _____    ______ ____
ROOT
ATOM      1  C   UNL     1      -0.178   9.392  23.770  0.00  0.00    +0.000 C 
ATOM      2  C   UNL     1      -0.001   9.666  22.314  0.00  0.00    +0.000 A 
ATOM      3  C   UNL     1      -0.651  10.715  21.690  0.00  0.00    +0.000 A 
ATOM      4  C   UNL     1      -0.484  10.966  20.318  0.00  0.00    +0.000 A 
ATOM      5  C   UNL     1       0.360  10.170  19.541  0.00  0.00    +0.000 A 
ATOM      6  C   UNL     1       1.025   9.105  20.164  0.00  0.00    +0.000 A 
ATOM      7  C   UNL     1       0.830   8.868  21.539  0.00  0.00    +0.000 A 
ATOM      8  C   UNL     1       1.908   8.275  19.358  0.00  0.00    +0.000 A 
ATOM      9  N   UNL     1       2.282   7.073  19.861  0.00  0.00    +0.000 NA
ATOM     10  C   UNL     1       3.062   6.280  19.113  0.00  0.00    +0.000 A 
ATOM     11  C   UNL     1       3.459   5.041  19.598  0.00  0.00    +0.000 A 
ATOM     12  N   UNL     1       4.214   4.134  18.999  0.00  0.00    +0.000 NA
ATOM     13  C   UNL     1       4.623   4.530  17.726  0.00  0.00    +0.000 A 
ATOM     14  C   UNL     1       5.395   3.626  17.060  0.00  0.00    +0.000 A 
ATOM     15  C   UNL     1       5.815   3.969  15.851  0.00  0.00    +0.000 A 
ATOM     16  C   UNL     1       6.233   4.250  14.698  0.00  0.00    +0.000 A 
ATOM     17  C   UNL     1       5.162   5.531  15.592  0.00  0.00    +0.000 A 
ATOM     18  C   UNL     1       4.371   5.688  17.053  0.00  0.00    +0.000 A 
ATOM     19  C   UNL     1       3.523   6.637  17.812  0.00  0.00    +0.000 A 
ATOM     20  C   UNL     1       3.118   7.912  17.342  0.00  0.00    +0.000 A 
ATOM     21  C   UNL     1       2.304   8.732  18.118  0.00  0.00    +0.000 A 
ATOM     22  C   UNL     1       1.869  10.099  17.693  0.00  0.00    +0.000 C 
ATOM     23  O   UNL     1       0.523  10.420  18.176  0.00  0.00    +0.000 OA
ENDROOT
TORSDOF 0
ENDMDL
MODEL 3
REMARK VINA RESULT:      -8.5      1.904      3.596
REMARK  Name = 
REMARK  1 active torsions:
REMARK  status: ('A' for Active; 'I' for Inactive)
REMARK    1  A    between atoms: C_1  and  C_2
REMARK                            x       y       z     vdW  Elec       q    Type
REMARK                         _______ _______ _______ _____ _____    ______ ____
ROOT
ATOM      1  C   UNL     1       2.506   3.092  21.037  0.00  0.00    +0.000 C 
ATOM      2  C   UNL     1       2.716   4.298  20.185  0.00  0.00    +0.000 A 
ATOM      3  C   UNL     1       3.516   4.260  19.059  0.00  0.00    +0.000 A 
ATOM      4  C   UNL     1       3.713   5.400  18.262  0.00  0.00    +0.000 A 
ATOM      5  C   UNL     1       3.091   6.610  18.577  0.00  0.00    +0.000 A 
ATOM      6  C   UNL     1       2.276   6.660  19.715  0.00  0.00    +0.000 A 
ATOM      7  C   UNL     1       2.105   5.505  20.504  0.00  0.00    +0.000 A 
ATOM      8  C   UNL     1       1.623   7.918  20.044  0.00  0.00    +0.000 A 
ATOM      9  N   UNL     1       1.118   8.064  21.294  0.00  0.00    +0.000 NA
ATOM     10  C   UNL     1       0.551   9.231  21.624  0.00  0.00    +0.000 A 
ATOM     11  C   UNL     1       0.027   9.413  22.898  0.00  0.00    +0.000 A 
ATOM     12  N   UNL     1      -0.555  10.492  23.394  0.00  0.00    +0.000 NA
ATOM     13  C   UNL     1      -0.617  11.541  22.477  0.00  0.00    +0.000 A 
ATOM     14  C   UNL     1      -1.198  12.682  22.942  0.00  0.00    +0.000 A 
ATOM     15  C   UNL     1      -1.288  13.700  22.098  0.00  0.00    +0.000 A 
ATOM     16  C   UNL     1      -1.389  14.693  21.332  0.00  0.00    +0.000 A 
ATOM     17  C   UNL     1      -0.573  13.126  20.651  0.00  0.00    +0.000 A 
ATOM     18  C   UNL     1      -0.186  11.592  21.186  0.00  0.00    +0.000 A 
ATOM     19  C   UNL     1       0.446  10.334  20.725  0.00  0.00    +0.000 A 
ATOM     20  C   UNL     1       0.973  10.122  19.426  0.00  0.00    +0.000 A 
ATOM     21  C   UNL     1       1.567   8.910  19.087  0.00  0.00    +0.000 A 
ATOM     22  C   UNL     1       2.112   8.613  17.725  0.00  0.00    +0.000 C 
ATOM     23  O   UNL     1       3.290   7.744  17.785  0.00  0.00    +0.000 OA
ENDROOT
TORSDOF 0
ENDMDL
MODEL 4
REMARK VINA RESULT:      -8.2      1.924      3.505
REMARK  Name = 
REMARK  1 active torsions:
REMARK  status: ('A' for Active; 'I' for Inactive)
REMARK    1  A    between atoms: C_1  and  C_2
REMARK                            x       y       z     vdW  Elec       q    Type
REMARK                         _______ _______ _______ _____ _____    ______ ____
ROOT
ATOM      1  C   UNL     1       1.853   2.552  21.838  0.00  0.00    +0.000 C 
ATOM      2  C   UNL     1       2.461   3.517  20.876  0.00  0.00    +0.000 A 
ATOM      3  C   UNL     1       3.512   3.155  20.054  0.00  0.00    +0.000 A 
ATOM      4  C   UNL     1       4.083   4.069  19.152  0.00  0.00    +0.000 A 
ATOM      5  C   UNL     1       3.594   5.373  19.048  0.00  0.00    +0.000 A 
ATOM      6  C   UNL     1       2.528   5.749  19.875  0.00  0.00    +0.000 A 
ATOM      7  C   UNL     1       1.981   4.817  20.779  0.00  0.00    +0.000 A 
ATOM      8  C   UNL     1       2.014   7.107  19.766  0.00  0.00    +0.000 A 
ATOM      9  N   UNL     1       1.230   7.570  20.770  0.00  0.00    +0.000 NA
ATOM     10  C   UNL     1       0.782   8.831  20.704  0.00  0.00    +0.000 A 
ATOM     11  C   UNL     1      -0.021   9.337  21.718  0.00  0.00    +0.000 A 
ATOM     12  N   UNL     1      -0.540  10.550  21.820  0.00  0.00    +0.000 NA
ATOM     13  C   UNL     1      -0.197  11.374  20.748  0.00  0.00    +0.000 A 
ATOM     14  C   UNL     1      -0.697  12.640  20.809  0.00  0.00    +0.000 A 
ATOM     15  C   UNL     1      -0.405  13.452  19.803  0.00  0.00    +0.000 A 
ATOM     16  C   UNL     1      -0.149  14.258  18.872  0.00  0.00    +0.000 A 
ATOM     17  C   UNL     1       0.566  12.508  18.753  0.00  0.00    +0.000 A 
ATOM     18  C   UNL     1       0.559  11.099  19.648  0.00  0.00    +0.000 A 
ATOM     19  C   UNL     1       1.087   9.715  19.626  0.00  0.00    +0.000 A 
ATOM     20  C   UNL     1       1.896   9.174  18.596  0.00  0.00    +0.000 A 
ATOM     21  C   UNL     1       2.363   7.866  18.669  0.00  0.00    +0.000 A 
ATOM     22  C   UNL     1       3.192   7.226  17.599  0.00  0.00    +0.000 C 
ATOM     23  O   UNL     1       4.165   6.281  18.152  0.00  0.00    +0.000 OA
ENDROOT
TORSDOF 0
ENDMDL
MODEL 5
REMARK VINA RESULT:      -7.9      1.081      1.491
REMARK  Name = 
REMARK  1 active torsions:
REMARK  status: ('A' for Active; 'I' for Inactive)
REMARK    1  A    between atoms: C_1  and  C_2
REMARK                            x       y       z     vdW  Elec       q    Type
REMARK                         _______ _______ _______ _____ _____    ______ ____
ROOT
ATOM      1  C   UNL     1       6.878   5.554  14.077  0.00  0.00    +0.000 C 
ATOM      2  C   UNL     1       6.086   4.974  15.201  0.00  0.00    +0.000 A 
ATOM      3  C   UNL     1       6.113   3.621  15.484  0.00  0.00    +0.000 A 
ATOM      4  C   UNL     1       5.363   3.080  16.541  0.00  0.00    +0.000 A 
ATOM      5  C   UNL     1       4.573   3.898  17.352  0.00  0.00    +0.000 A 
ATOM      6  C   UNL     1       4.539   5.270  17.074  0.00  0.00    +0.000 A 
ATOM      7  C   UNL     1       5.292   5.786  16.001  0.00  0.00    +0.000 A 
ATOM      8  C   UNL     1       3.720   6.127  17.920  0.00  0.00    +0.000 A 
ATOM      9  N   UNL     1       3.423   7.369  17.466  0.00  0.00    +0.000 NA
ATOM     10  C   UNL     1       2.636   8.154  18.214  0.00  0.00    +0.000 A 
ATOM     11  C   UNL     1       2.310   9.431  17.775  0.00  0.00    +0.000 A 
ATOM     12  N   UNL     1       1.547  10.330  18.374  0.00  0.00    +0.000 NA
ATOM     13  C   UNL     1       1.034   9.876  19.590  0.00  0.00    +0.000 A 
ATOM     14  C   UNL     1       0.230  10.761  20.244  0.00  0.00    +0.000 A 
ATOM     15  C   UNL     1      -0.268  10.374  21.409  0.00  0.00    +0.000 A 
ATOM     16  C   UNL     1      -0.767  10.046  22.517  0.00  0.00    +0.000 A 
ATOM     17  C   UNL     1       0.343   8.789  21.636  0.00  0.00    +0.000 A 
ATOM     18  C   UNL     1       1.221   8.683  20.220  0.00  0.00    +0.000 A 
ATOM     19  C   UNL     1       2.095   7.751  19.470  0.00  0.00    +0.000 A 
ATOM     20  C   UNL     1       2.452   6.450  19.906  0.00  0.00    +0.000 A 
ATOM     21  C   UNL     1       3.265   5.634  19.125  0.00  0.00    +0.000 A 
ATOM     22  C   UNL     1       3.703   4.266  19.543  0.00  0.00    +0.000 C 
ATOM     23  O   UNL     1       3.825   3.357  18.401  0.00  0.00    +0.000 OA
ENDROOT
TORSDOF 0
ENDMDL
MODEL 6
REMARK VINA RESULT:      -7.9      2.328      7.321
REMARK  Name = 
REMARK  1 active torsions:
REMARK  status: ('A' for Active; 'I' for Inactive)
REMARK    1  A    between atoms: C_1  and  C_2
REMARK                            x       y       z     vdW  Elec       q    Type
REMARK                         _______ _______ _______ _____ _____    ______ ____
ROOT
ATOM      1  C   UNL     1      -0.405  14.316  18.600  0.00  0.00    +0.000 C 
ATOM      2  C   UNL     1      -0.358  13.399  19.777  0.00  0.00    +0.000 A 
ATOM      3  C   UNL     1      -0.780  13.806  21.029  0.00  0.00    +0.000 A 
ATOM      4  C   UNL     1      -0.730  12.939  22.134  0.00  0.00    +0.000 A 
ATOM      5  C   UNL     1      -0.265  11.629  21.997  0.00  0.00    +0.000 A 
ATOM      6  C   UNL     1       0.163  11.207  20.732  0.00  0.00    +0.000 A 
ATOM      7  C   UNL     1       0.114  12.100  19.643  0.00  0.00    +0.000 A 
ATOM      8  C   UNL     1       0.645   9.841  20.585  0.00  0.00    +0.000 A 
ATOM      9  N   UNL     1       1.357   9.536  19.473  0.00  0.00    +0.000 NA
ATOM     10  C   UNL     1       1.842   8.294  19.343  0.00  0.00    +0.000 A 
ATOM     11  C   UNL     1       2.579   7.950  18.217  0.00  0.00    +0.000 A 
ATOM     12  N   UNL     1       3.135   6.785  17.930  0.00  0.00    +0.000 NA
ATOM     13  C   UNL     1       2.923   5.828  18.922  0.00  0.00    +0.000 A 
ATOM     14  C   UNL     1       3.486   4.611  18.681  0.00  0.00    +0.000 A 
ATOM     15  C   UNL     1       3.298   3.669  19.594  0.00  0.00    +0.000 A 
ATOM     16  C   UNL     1       3.149   2.747  20.437  0.00  0.00    +0.000 A 
ATOM     17  C   UNL     1       2.353   4.425  20.808  0.00  0.00    +0.000 A 
ATOM     18  C   UNL     1       2.233   5.929  20.093  0.00  0.00    +0.000 A 
ATOM     19  C   UNL     1       1.645   7.270  20.317  0.00  0.00    +0.000 A 
ATOM     20  C   UNL     1       0.879   7.638  21.451  0.00  0.00    +0.000 A 
ATOM     21  C   UNL     1       0.380   8.930  21.587  0.00  0.00    +0.000 A 
ATOM     22  C   UNL     1      -0.462   9.371  22.742  0.00  0.00    +0.000 C 
ATOM     23  O   UNL     1      -0.214  10.770  23.098  0.00  0.00    +0.000 OA
ENDROOT
TORSDOF 0
ENDMDL
MODEL 7
REMARK VINA RESULT:      -7.8      2.149      7.601
REMARK  Name = 
REMARK  1 active torsions:
REMARK  status: ('A' for Active; 'I' for Inactive)
REMARK    1  A    between atoms: C_1  and  C_2
REMARK                            x       y       z     vdW  Elec       q    Type
REMARK                         _______ _______ _______ _____ _____    ______ ____
ROOT
ATOM      1  C   UNL     1      -2.441  14.329  20.051  0.00  0.00    +0.000 C 
ATOM      2  C   UNL     1      -1.894  13.303  20.987  0.00  0.00    +0.000 A 
ATOM      3  C   UNL     1      -2.119  13.372  22.349  0.00  0.00    +0.000 A 
ATOM      4  C   UNL     1      -1.598  12.406  23.226  0.00  0.00    +0.000 A 
ATOM      5  C   UNL     1      -0.845  11.333  22.744  0.00  0.00    +0.000 A 
ATOM      6  C   UNL     1      -0.612  11.253  21.365  0.00  0.00    +0.000 A 
ATOM      7  C   UNL     1      -1.136  12.242  20.509  0.00  0.00    +0.000 A 
ATOM      8  C   UNL     1       0.169  10.134  20.859  0.00  0.00    +0.000 A 
ATOM      9  N   UNL     1       0.672  10.227  19.604  0.00  0.00    +0.000 NA
ATOM     10  C   UNL     1       1.427   9.223  19.139  0.00  0.00    +0.000 A 
ATOM     11  C   UNL     1       1.960   9.290  17.858  0.00  0.00    +0.000 A 
ATOM     12  N   UNL     1       2.727   8.403  17.246  0.00  0.00    +0.000 NA
ATOM     13  C   UNL     1       3.002   7.290  18.040  0.00  0.00    +0.000 A 
ATOM     14  C   UNL     1       3.799   6.349  17.460  0.00  0.00    +0.000 A 
ATOM     15  C   UNL     1       4.074   5.269  18.177  0.00  0.00    +0.000 A 
ATOM     16  C   UNL     1       4.366   4.229  18.823  0.00  0.00    +0.000 A 
ATOM     17  C   UNL     1       3.257   5.515  19.662  0.00  0.00    +0.000 A 
ATOM     18  C   UNL     1       2.587   7.002  19.306  0.00  0.00    +0.000 A 
ATOM     19  C   UNL     1       1.730   8.054  19.899  0.00  0.00    +0.000 A 
ATOM     20  C   UNL     1       1.165   8.000  21.198  0.00  0.00    +0.000 A 
ATOM     21  C   UNL     1       0.384   9.046  21.680  0.00  0.00    +0.000 A 
ATOM     22  C   UNL     1      -0.266   9.035  23.028  0.00  0.00    +0.000 C 
ATOM     23  O   UNL     1      -0.326  10.375  23.618  0.00  0.00    +0.000 OA
ENDROOT
TORSDOF 0
ENDMDL
MODEL 8
REMARK VINA RESULT:      -7.7      2.023      7.723
REMARK  Name = 
REMARK  1 active torsions:
REMARK  status: ('A' for Active; 'I' for Inactive)
REMARK    1  A    between atoms: C_1  and  C_2
REMARK                            x       y       z     vdW  Elec       q    Type
REMARK                         _______ _______ _______ _____ _____    ______ ____
ROOT
ATOM      1  C   UNL     1      -1.313  10.928  23.338  0.00  0.00    +0.000 C 
ATOM      2  C   UNL     1      -0.793  11.054  21.945  0.00  0.00    +0.000 A 
ATOM      3  C   UNL     1      -1.080  12.156  21.162  0.00  0.00    +0.000 A 
ATOM      4  C   UNL     1      -0.591  12.267  19.850  0.00  0.00    +0.000 A 
ATOM      5  C   UNL     1       0.216  11.270  19.298  0.00  0.00    +0.000 A 
ATOM      6  C   UNL     1       0.514  10.149  20.084  0.00  0.00    +0.000 A 
ATOM      7  C   UNL     1       0.001  10.057  21.394  0.00  0.00    +0.000 A 
ATOM      8  C   UNL     1       1.357   9.109  19.514  0.00  0.00    +0.000 A 
ATOM      9  N   UNL     1       1.374   7.900  20.126  0.00  0.00    +0.000 NA
ATOM     10  C   UNL     1       2.114   6.920  19.589  0.00  0.00    +0.000 A 
ATOM     11  C   UNL     1       2.149   5.668  20.190  0.00  0.00    +0.000 A 
ATOM     12  N   UNL     1       2.812   4.592  19.797  0.00  0.00    +0.000 NA
ATOM     13  C   UNL     1       3.542   4.807  18.628  0.00  0.00    +0.000 A 
ATOM     14  C   UNL     1       4.235   3.726  18.172  0.00  0.00    +0.000 A 
ATOM     15  C   UNL     1       4.952   3.891  17.070  0.00  0.00    +0.000 A 
ATOM     16  C   UNL     1       5.642   4.001  16.024  0.00  0.00    +0.000 A 
ATOM     17  C   UNL     1       4.691   5.525  16.625  0.00  0.00    +0.000 A 
ATOM     18  C   UNL     1       3.667   5.938  17.877  0.00  0.00    +0.000 A 
ATOM     19  C   UNL     1       2.891   7.084  18.405  0.00  0.00    +0.000 A 
ATOM     20  C   UNL     1       2.853   8.374  17.816  0.00  0.00    +0.000 A 
ATOM     21  C   UNL     1       2.080   9.388  18.372  0.00  0.00    +0.000 A 
ATOM     22  C   UNL     1       2.022  10.777  17.819  0.00  0.00    +0.000 C 
ATOM     23  O   UNL     1       0.698  11.381  17.992  0.00  0.00    +0.000 OA
ENDROOT
TORSDOF 0
ENDMDL
MODEL 9
REMARK VINA RESULT:      -7.2      2.599      7.651
REMARK  Name = 
REMARK  1 active torsions:
REMARK  status: ('A' for Active; 'I' for Inactive)
REMARK    1  A    between atoms: C_1  and  C_2
REMARK                            x       y       z     vdW  Elec       q    Type
REMARK                         _______ _______ _______ _____ _____    ______ ____
ROOT
ATOM      1  C   UNL     1      -0.284  15.688  18.584  0.00  0.00    +0.000 C 
ATOM      2  C   UNL     1      -0.313  14.738  19.734  0.00  0.00    +0.000 A 
ATOM      3  C   UNL     1      -0.721  15.137  20.993  0.00  0.00    +0.000 A 
ATOM      4  C   UNL     1      -0.743  14.238  22.073  0.00  0.00    +0.000 A 
ATOM      5  C   UNL     1      -0.365  12.905  21.904  0.00  0.00    +0.000 A 
ATOM      6  C   UNL     1       0.049  12.490  20.631  0.00  0.00    +0.000 A 
ATOM      7  C   UNL     1       0.073  13.414  19.568  0.00  0.00    +0.000 A 
ATOM      8  C   UNL     1       0.440  11.100  20.450  0.00  0.00    +0.000 A 
ATOM      9  N   UNL     1       1.143  10.778  19.337  0.00  0.00    +0.000 NA
ATOM     10  C   UNL     1       1.546   9.511  19.176  0.00  0.00    +0.000 A 
ATOM     11  C   UNL     1       2.271   9.150  18.048  0.00  0.00    +0.000 A 
ATOM     12  N   UNL     1       2.752   7.958  17.733  0.00  0.00    +0.000 NA
ATOM     13  C   UNL     1       2.464   6.990  18.695  0.00  0.00    +0.000 A 
ATOM     14  C   UNL     1       2.947   5.745  18.425  0.00  0.00    +0.000 A 
ATOM     15  C   UNL     1       2.685   4.793  19.309  0.00  0.00    +0.000 A 
ATOM     16  C   UNL     1       2.465   3.860  20.123  0.00  0.00    +0.000 A 
ATOM     17  C   UNL     1       1.779   5.577  20.534  0.00  0.00    +0.000 A 
ATOM     18  C   UNL     1       1.769   7.105  19.862  0.00  0.00    +0.000 A 
ATOM     19  C   UNL     1       1.269   8.476  20.118  0.00  0.00    +0.000 A 
ATOM     20  C   UNL     1       0.515   8.862  21.255  0.00  0.00    +0.000 A 
ATOM     21  C   UNL     1       0.103  10.180  21.422  0.00  0.00    +0.000 A 
ATOM     22  C   UNL     1      -0.722  10.644  22.581  0.00  0.00    +0.000 C 
ATOM     23  O   UNL     1      -0.385  12.014  22.979  0.00  0.00    +0.000 OA
ENDROOT
TORSDOF 0
ENDMDL
