MODEL 1
REMARK VINA RESULT:      -6.7      0.000      0.000
REMARK  Name = 
REMARK  6 active torsions:
REMARK  status: ('A' for Active; 'I' for Inactive)
REMARK    1  A    between atoms: C_1  and  C_2
REMARK    2  A    between atoms: C_6  and  C_8
REMARK    3  A    between atoms: C_8  and  O_9
REMARK    4  A    between atoms: O_9  and  C_10
REMARK    5  A    between atoms: C_10  and  C_12
REMARK    6  A    between atoms: C_12  and  C_13
REMARK                            x       y       z     vdW  Elec       q    Type
REMARK                         _______ _______ _______ _____ _____    ______ ____
ROOT
ATOM      1  O   UNL     1       6.624   5.730  16.841  0.00  0.00    +0.000 OA
ENDROOT
BRANCH   1   2
ATOM      2  C   UNL     1       5.911   6.888  16.953  0.00  0.00    +0.000 C 
ATOM      3  O   UNL     1       6.393   7.981  17.226  0.00  0.00    +0.000 OA
BRANCH   2   4
ATOM      4  C   UNL     1       4.451   6.651  16.648  0.00  0.00    +0.000 C 
BRANCH   4   5
ATOM      5  C   UNL     1       3.470   7.153  17.681  0.00  0.00    +0.000 A 
ATOM      6  C   UNL     1       3.233   6.387  18.835  0.00  0.00    +0.000 A 
ATOM      7  C   UNL     1       2.389   6.858  19.846  0.00  0.00    +0.000 A 
ATOM      8  C   UNL     1       1.783   8.104  19.715  0.00  0.00    +0.000 A 
ATOM      9 BR   UNL     1       0.664   8.755  21.092  0.00  0.00    +0.000 Br
ATOM     10  C   UNL     1       2.007   8.878  18.582  0.00  0.00    +0.000 A 
ATOM     11  C   UNL     1       2.854   8.408  17.574  0.00  0.00    +0.000 A 
ENDBRANCH   4   5
ENDBRANCH   2   4
ENDBRANCH   1   2
BRANCH   1  12
ATOM     12  C   UNL     1       5.837   4.539  16.930  0.00  0.00    +0.000 C 
BRANCH  12  18
ATOM     13  C   UNL     1       0.442   2.960  19.892  0.00  0.00    +0.000 C 
ATOM     14  C   UNL     1       1.838   2.538  19.439  0.00  0.00    +0.000 C 
ATOM     15  C   UNL     1       2.901   3.033  20.433  0.00  0.00    +0.000 C 
ATOM     16  C   UNL     1       4.308   2.692  19.950  0.00  0.00    +0.000 C 
ATOM     17  N   UNL     1       4.527   3.215  18.603  0.00  0.00    +0.000 N 
ATOM     18  C   UNL     1       5.626   4.037  18.366  0.00  0.00    +0.000 C 
ATOM     19  O   UNL     1       6.386   4.388  19.273  0.00  0.00    +0.000 OA
ATOM     20  C   UNL     1       3.572   2.751  17.598  0.00  0.00    +0.000 C 
ATOM     21  C   UNL     1       2.139   3.064  18.027  0.00  0.00    +0.000 C 
ENDBRANCH  12  18
ENDBRANCH   1  12
TORSDOF 5
ENDMDL
MODEL 2
REMARK VINA RESULT:      -6.7      2.262      4.583
REMARK  Name = 
REMARK  6 active torsions:
REMARK  status: ('A' for Active; 'I' for Inactive)
REMARK    1  A    between atoms: C_1  and  C_2
REMARK    2  A    between atoms: C_6  and  C_8
REMARK    3  A    between atoms: C_8  and  O_9
REMARK    4  A    between atoms: O_9  and  C_10
REMARK    5  A    between atoms: C_10  and  C_12
REMARK    6  A    between atoms: C_12  and  C_13
REMARK                            x       y       z     vdW  Elec       q    Type
REMARK                         _______ _______ _______ _____ _____    ______ ____
ROOT
ATOM      1  O   UNL     1       2.324   2.891  19.310  0.00  0.00    +0.000 OA
ENDROOT
BRANCH   1   2
ATOM      2  C   UNL     1       1.811   3.890  20.085  0.00  0.00    +0.000 C 
ATOM      3  O   UNL     1       0.704   3.868  20.611  0.00  0.00    +0.000 OA
BRANCH   2   4
ATOM      4  C   UNL     1       2.811   5.010  20.249  0.00  0.00    +0.000 C 
BRANCH   4   5
ATOM      5  C   UNL     1       2.345   6.381  19.820  0.00  0.00    +0.000 A 
ATOM      6  C   UNL     1       1.635   7.182  20.730  0.00  0.00    +0.000 A 
ATOM      7  C   UNL     1       1.254   8.485  20.392  0.00  0.00    +0.000 A 
ATOM      8  C   UNL     1       1.589   9.000  19.142  0.00  0.00    +0.000 A 
ATOM      9 BR   UNL     1       1.101  10.769  18.692  0.00  0.00    +0.000 Br
ATOM     10  C   UNL     1       2.295   8.223  18.229  0.00  0.00    +0.000 A 
ATOM     11  C   UNL     1       2.677   6.923  18.571  0.00  0.00    +0.000 A 
ENDBRANCH   4   5
ENDBRANCH   2   4
ENDBRANCH   1   2
BRANCH   1  12
ATOM     12  C   UNL     1       3.711   3.040  18.996  0.00  0.00    +0.000 C 
BRANCH  12  18
ATOM     13  C   UNL     1       7.506   7.911  17.501  0.00  0.00    +0.000 C 
ATOM     14  C   UNL     1       7.135   6.447  17.276  0.00  0.00    +0.000 C 
ATOM     15  C   UNL     1       5.955   6.333  16.298  0.00  0.00    +0.000 C 
ATOM     16  C   UNL     1       5.517   4.880  16.129  0.00  0.00    +0.000 C 
ATOM     17  N   UNL     1       5.216   4.282  17.428  0.00  0.00    +0.000 N 
ATOM     18  C   UNL     1       3.974   3.683  17.627  0.00  0.00    +0.000 C 
ATOM     19  O   UNL     1       3.098   3.695  16.759  0.00  0.00    +0.000 OA
ATOM     20  C   UNL     1       6.312   4.322  18.395  0.00  0.00    +0.000 C 
ATOM     21  C   UNL     1       6.796   5.757  18.607  0.00  0.00    +0.000 C 
ENDBRANCH  12  18
ENDBRANCH   1  12
TORSDOF 5
ENDMDL
MODEL 3
REMARK VINA RESULT:      -6.7      2.075      4.580
REMARK  Name = 
REMARK  6 active torsions:
REMARK  status: ('A' for Active; 'I' for Inactive)
REMARK    1  A    between atoms: C_1  and  C_2
REMARK    2  A    between atoms: C_6  and  C_8
REMARK    3  A    between atoms: C_8  and  O_9
REMARK    4  A    between atoms: O_9  and  C_10
REMARK    5  A    between atoms: C_10  and  C_12
REMARK    6  A    between atoms: C_12  and  C_13
REMARK                            x       y       z     vdW  Elec       q    Type
REMARK                         _______ _______ _______ _____ _____    ______ ____
ROOT
ATOM      1  O   UNL     1       3.837   2.913  20.479  0.00  0.00    +0.000 OA
ENDROOT
BRANCH   1   2
ATOM      2  C   UNL     1       2.491   2.940  20.257  0.00  0.00    +0.000 C 
ATOM      3  O   UNL     1       1.873   2.102  19.611  0.00  0.00    +0.000 OA
BRANCH   2   4
ATOM      4  C   UNL     1       1.855   4.118  20.957  0.00  0.00    +0.000 C 
BRANCH   4   5
ATOM      5  C   UNL     1       1.851   5.419  20.190  0.00  0.00    +0.000 A 
ATOM      6  C   UNL     1       1.679   6.628  20.886  0.00  0.00    +0.000 A 
ATOM      7  C   UNL     1       1.746   7.855  20.217  0.00  0.00    +0.000 A 
ATOM      8  C   UNL     1       1.994   7.882  18.848  0.00  0.00    +0.000 A 
ATOM      9 BR   UNL     1       2.112   9.539  17.946  0.00  0.00    +0.000 Br
ATOM     10  C   UNL     1       2.170   6.697  18.142  0.00  0.00    +0.000 A 
ATOM     11  C   UNL     1       2.107   5.472  18.813  0.00  0.00    +0.000 A 
ENDBRANCH   4   5
ENDBRANCH   2   4
ENDBRANCH   1   2
BRANCH   1  12
ATOM     12  C   UNL     1       4.631   2.874  19.290  0.00  0.00    +0.000 C 
BRANCH  12  18
ATOM     13  C   UNL     1       7.256   4.869  13.858  0.00  0.00    +0.000 C 
ATOM     14  C   UNL     1       6.255   5.131  14.982  0.00  0.00    +0.000 C 
ATOM     15  C   UNL     1       6.961   5.739  16.203  0.00  0.00    +0.000 C 
ATOM     16  C   UNL     1       5.988   5.927  17.365  0.00  0.00    +0.000 C 
ATOM     17  N   UNL     1       5.322   4.666  17.684  0.00  0.00    +0.000 N 
ATOM     18  C   UNL     1       5.371   4.187  18.991  0.00  0.00    +0.000 C 
ATOM     19  O   UNL     1       6.010   4.763  19.874  0.00  0.00    +0.000 OA
ATOM     20  C   UNL     1       4.597   4.053  16.573  0.00  0.00    +0.000 C 
ATOM     21  C   UNL     1       5.521   3.838  15.374  0.00  0.00    +0.000 C 
ENDBRANCH  12  18
ENDBRANCH   1  12
TORSDOF 5
ENDMDL
MODEL 4
REMARK VINA RESULT:      -6.6      0.609      1.212
REMARK  Name = 
REMARK  6 active torsions:
REMARK  status: ('A' for Active; 'I' for Inactive)
REMARK    1  A    between atoms: C_1  and  C_2
REMARK    2  A    between atoms: C_6  and  C_8
REMARK    3  A    between atoms: C_8  and  O_9
REMARK    4  A    between atoms: O_9  and  C_10
REMARK    5  A    between atoms: C_10  and  C_12
REMARK    6  A    between atoms: C_12  and  C_13
REMARK                            x       y       z     vdW  Elec       q    Type
REMARK                         _______ _______ _______ _____ _____    ______ ____
ROOT
ATOM      1  O   UNL     1       4.993   5.324  16.357  0.00  0.00    +0.000 OA
ENDROOT
BRANCH   1   2
ATOM      2  C   UNL     1       5.152   6.648  16.647  0.00  0.00    +0.000 C 
ATOM      3  O   UNL     1       6.217   7.172  16.953  0.00  0.00    +0.000 OA
BRANCH   2   4
ATOM      4  C   UNL     1       3.848   7.393  16.491  0.00  0.00    +0.000 C 
BRANCH   4   5
ATOM      5  C   UNL     1       3.082   7.658  17.766  0.00  0.00    +0.000 A 
ATOM      6  C   UNL     1       2.338   8.844  17.886  0.00  0.00    +0.000 A 
ATOM      7  C   UNL     1       1.557   9.087  19.021  0.00  0.00    +0.000 A 
ATOM      8  C   UNL     1       1.508   8.141  20.041  0.00  0.00    +0.000 A 
ATOM      9 BR   UNL     1       0.433   8.453  21.564  0.00  0.00    +0.000 Br
ATOM     10  C   UNL     1       2.235   6.960  19.939  0.00  0.00    +0.000 A 
ATOM     11  C   UNL     1       3.012   6.717  18.802  0.00  0.00    +0.000 A 
ENDBRANCH   4   5
ENDBRANCH   2   4
ENDBRANCH   1   2
BRANCH   1  12
ATOM     12  C   UNL     1       5.976   4.468  16.947  0.00  0.00    +0.000 C 
BRANCH  12  18
ATOM     13  C   UNL     1       0.461   3.132  19.805  0.00  0.00    +0.000 C 
ATOM     14  C   UNL     1       1.883   2.688  19.471  0.00  0.00    +0.000 C 
ATOM     15  C   UNL     1       2.888   3.310  20.452  0.00  0.00    +0.000 C 
ATOM     16  C   UNL     1       4.322   2.943  20.079  0.00  0.00    +0.000 C 
ATOM     17  N   UNL     1       4.602   3.315  18.694  0.00  0.00    +0.000 N 
ATOM     18  C   UNL     1       5.700   4.126  18.419  0.00  0.00    +0.000 C 
ATOM     19  O   UNL     1       6.409   4.590  19.316  0.00  0.00    +0.000 OA
ATOM     20  C   UNL     1       3.704   2.725  17.703  0.00  0.00    +0.000 C 
ATOM     21  C   UNL     1       2.247   3.058  18.024  0.00  0.00    +0.000 C 
ENDBRANCH  12  18
ENDBRANCH   1  12
TORSDOF 5
ENDMDL
MODEL 5
REMARK VINA RESULT:      -6.6      3.242      6.335
REMARK  Name = 
REMARK  6 active torsions:
REMARK  status: ('A' for Active; 'I' for Inactive)
REMARK    1  A    between atoms: C_1  and  C_2
REMARK    2  A    between atoms: C_6  and  C_8
REMARK    3  A    between atoms: C_8  and  O_9
REMARK    4  A    between atoms: O_9  and  C_10
REMARK    5  A    between atoms: C_10  and  C_12
REMARK    6  A    between atoms: C_12  and  C_13
REMARK                            x       y       z     vdW  Elec       q    Type
REMARK                         _______ _______ _______ _____ _____    ______ ____
ROOT
ATOM      1  O   UNL     1       1.526   4.496  20.266  0.00  0.00    +0.000 OA
ENDROOT
BRANCH   1   2
ATOM      2  C   UNL     1       2.148   3.473  20.919  0.00  0.00    +0.000 C 
ATOM      3  O   UNL     1       2.161   3.327  22.136  0.00  0.00    +0.000 OA
BRANCH   2   4
ATOM      4  C   UNL     1       2.781   2.515  19.938  0.00  0.00    +0.000 C 
BRANCH   4   5
ATOM      5  C   UNL     1       3.746   3.123  18.949  0.00  0.00    +0.000 A 
ATOM      6  C   UNL     1       3.439   3.089  17.578  0.00  0.00    +0.000 A 
ATOM      7  C   UNL     1       4.272   3.709  16.641  0.00  0.00    +0.000 A 
ATOM      8  C   UNL     1       5.416   4.377  17.071  0.00  0.00    +0.000 A 
ATOM      9 BR   UNL     1       6.530   5.240  15.811  0.00  0.00    +0.000 Br
ATOM     10  C   UNL     1       5.735   4.425  18.423  0.00  0.00    +0.000 A 
ATOM     11  C   UNL     1       4.899   3.807  19.358  0.00  0.00    +0.000 A 
ENDBRANCH   4   5
ENDBRANCH   2   4
ENDBRANCH   1   2
BRANCH   1  12
ATOM     12  C   UNL     1       1.976   5.800  20.645  0.00  0.00    +0.000 C 
BRANCH  12  18
ATOM     13  C   UNL     1      -1.307  11.041  19.187  0.00  0.00    +0.000 C 
ATOM     14  C   UNL     1       0.049  10.412  19.501  0.00  0.00    +0.000 C 
ATOM     15  C   UNL     1       0.643   9.753  18.246  0.00  0.00    +0.000 C 
ATOM     16  C   UNL     1       1.957   9.046  18.564  0.00  0.00    +0.000 C 
ATOM     17  N   UNL     1       1.774   8.090  19.654  0.00  0.00    +0.000 N 
ATOM     18  C   UNL     1       2.157   6.764  19.464  0.00  0.00    +0.000 C 
ATOM     19  O   UNL     1       2.591   6.360  18.382  0.00  0.00    +0.000 OA
ATOM     20  C   UNL     1       1.248   8.660  20.893  0.00  0.00    +0.000 C 
ATOM     21  C   UNL     1      -0.074   9.385  20.638  0.00  0.00    +0.000 C 
ENDBRANCH  12  18
ENDBRANCH   1  12
TORSDOF 5
ENDMDL
MODEL 6
REMARK VINA RESULT:      -6.6      2.076      4.702
REMARK  Name = 
REMARK  6 active torsions:
REMARK  status: ('A' for Active; 'I' for Inactive)
REMARK    1  A    between atoms: C_1  and  C_2
REMARK    2  A    between atoms: C_6  and  C_8
REMARK    3  A    between atoms: C_8  and  O_9
REMARK    4  A    between atoms: O_9  and  C_10
REMARK    5  A    between atoms: C_10  and  C_12
REMARK    6  A    between atoms: C_12  and  C_13
REMARK                            x       y       z     vdW  Elec       q    Type
REMARK                         _______ _______ _______ _____ _____    ______ ____
ROOT
ATOM      1  O   UNL     1       3.926   3.699  19.981  0.00  0.00    +0.000 OA
ENDROOT
BRANCH   1   2
ATOM      2  C   UNL     1       2.569   3.579  20.064  0.00  0.00    +0.000 C 
ATOM      3  O   UNL     1       1.917   2.668  19.566  0.00  0.00    +0.000 OA
BRANCH   2   4
ATOM      4  C   UNL     1       1.981   4.695  20.895  0.00  0.00    +0.000 C 
BRANCH   4   5
ATOM      5  C   UNL     1       1.987   6.065  20.259  0.00  0.00    +0.000 A 
ATOM      6  C   UNL     1       2.412   6.204  18.927  0.00  0.00    +0.000 A 
ATOM      7  C   UNL     1       2.358   7.445  18.284  0.00  0.00    +0.000 A 
ATOM      8  C   UNL     1       1.869   8.555  18.966  0.00  0.00    +0.000 A 
ATOM      9 BR   UNL     1       1.769  10.228  18.091  0.00  0.00    +0.000 Br
ATOM     10  C   UNL     1       1.441   8.438  20.284  0.00  0.00    +0.000 A 
ATOM     11  C   UNL     1       1.492   7.196  20.924  0.00  0.00    +0.000 A 
ENDBRANCH   4   5
ENDBRANCH   2   4
ENDBRANCH   1   2
BRANCH   1  12
ATOM     12  C   UNL     1       4.517   2.976  18.897  0.00  0.00    +0.000 C 
BRANCH  12  18
ATOM     13  C   UNL     1       7.697   8.336  17.663  0.00  0.00    +0.000 C 
ATOM     14  C   UNL     1       7.449   6.872  17.309  0.00  0.00    +0.000 C 
ATOM     15  C   UNL     1       6.209   6.735  16.413  0.00  0.00    +0.000 C 
ATOM     16  C   UNL     1       5.898   5.269  16.121  0.00  0.00    +0.000 C 
ATOM     17  N   UNL     1       5.763   4.517  17.367  0.00  0.00    +0.000 N 
ATOM     18  C   UNL     1       4.604   3.776  17.589  0.00  0.00    +0.000 C 
ATOM     19  O   UNL     1       3.662   3.785  16.793  0.00  0.00    +0.000 OA
ATOM     20  C   UNL     1       6.926   4.573  18.251  0.00  0.00    +0.000 C 
ATOM     21  C   UNL     1       7.289   6.021  18.580  0.00  0.00    +0.000 C 
ENDBRANCH  12  18
ENDBRANCH   1  12
TORSDOF 5
ENDMDL
MODEL 7
REMARK VINA RESULT:      -6.6      4.908      5.998
REMARK  Name = 
REMARK  6 active torsions:
REMARK  status: ('A' for Active; 'I' for Inactive)
REMARK    1  A    between atoms: C_1  and  C_2
REMARK    2  A    between atoms: C_6  and  C_8
REMARK    3  A    between atoms: C_8  and  O_9
REMARK    4  A    between atoms: O_9  and  C_10
REMARK    5  A    between atoms: C_10  and  C_12
REMARK    6  A    between atoms: C_12  and  C_13
REMARK                            x       y       z     vdW  Elec       q    Type
REMARK                         _______ _______ _______ _____ _____    ______ ____
ROOT
ATOM      1  O   UNL     1       7.996   7.761  17.160  0.00  0.00    +0.000 OA
ENDROOT
BRANCH   1   2
ATOM      2  C   UNL     1       7.933   8.998  17.732  0.00  0.00    +0.000 C 
ATOM      3  O   UNL     1       7.130   9.871  17.420  0.00  0.00    +0.000 OA
BRANCH   2   4
ATOM      4  C   UNL     1       8.953   9.133  18.837  0.00  0.00    +0.000 C 
BRANCH   4   5
ATOM      5  C   UNL     1       9.498  10.522  19.068  0.00  0.00    +0.000 A 
ATOM      6  C   UNL     1       9.513  11.047  20.372  0.00  0.00    +0.000 A 
ATOM      7  C   UNL     1      10.079  12.299  20.633  0.00  0.00    +0.000 A 
ATOM      8  C   UNL     1      10.643  13.032  19.593  0.00  0.00    +0.000 A 
ATOM      9 BR   UNL     1      11.433  14.712  19.947  0.00  0.00    +0.000 Br
ATOM     10  C   UNL     1      10.640  12.529  18.297  0.00  0.00    +0.000 A 
ATOM     11  C   UNL     1      10.077  11.276  18.039  0.00  0.00    +0.000 A 
ENDBRANCH   4   5
ENDBRANCH   2   4
ENDBRANCH   1   2
BRANCH   1  12
ATOM     12  C   UNL     1       7.549   6.696  18.004  0.00  0.00    +0.000 C 
BRANCH  12  18
ATOM     13  C   UNL     1       1.787   4.069  18.516  0.00  0.00    +0.000 C 
ATOM     14  C   UNL     1       2.827   4.737  17.619  0.00  0.00    +0.000 C 
ATOM     15  C   UNL     1       3.871   3.714  17.147  0.00  0.00    +0.000 C 
ATOM     16  C   UNL     1       4.964   4.383  16.319  0.00  0.00    +0.000 C 
ATOM     17  N   UNL     1       5.570   5.484  17.066  0.00  0.00    +0.000 N 
ATOM     18  C   UNL     1       6.952   5.505  17.240  0.00  0.00    +0.000 C 
ATOM     19  O   UNL     1       7.674   4.591  16.836  0.00  0.00    +0.000 OA
ATOM     20  C   UNL     1       4.635   6.515  17.511  0.00  0.00    +0.000 C 
ATOM     21  C   UNL     1       3.511   5.904  18.348  0.00  0.00    +0.000 C 
ENDBRANCH  12  18
ENDBRANCH   1  12
TORSDOF 5
ENDMDL
MODEL 8
REMARK VINA RESULT:      -6.5      2.439      4.429
REMARK  Name = 
REMARK  6 active torsions:
REMARK  status: ('A' for Active; 'I' for Inactive)
REMARK    1  A    between atoms: C_1  and  C_2
REMARK    2  A    between atoms: C_6  and  C_8
REMARK    3  A    between atoms: C_8  and  O_9
REMARK    4  A    between atoms: O_9  and  C_10
REMARK    5  A    between atoms: C_10  and  C_12
REMARK    6  A    between atoms: C_12  and  C_13
REMARK                            x       y       z     vdW  Elec       q    Type
REMARK                         _______ _______ _______ _____ _____    ______ ____
ROOT
ATOM      1  O   UNL     1       1.564   4.405  19.336  0.00  0.00    +0.000 OA
ENDROOT
BRANCH   1   2
ATOM      2  C   UNL     1       2.181   5.188  20.267  0.00  0.00    +0.000 C 
ATOM      3  O   UNL     1       2.317   4.892  21.449  0.00  0.00    +0.000 OA
BRANCH   2   4
ATOM      4  C   UNL     1       2.719   6.450  19.635  0.00  0.00    +0.000 C 
BRANCH   4   5
ATOM      5  C   UNL     1       1.891   7.696  19.839  0.00  0.00    +0.000 A 
ATOM      6  C   UNL     1       1.765   8.619  18.787  0.00  0.00    +0.000 A 
ATOM      7  C   UNL     1       0.945   9.744  18.915  0.00  0.00    +0.000 A 
ATOM      8  C   UNL     1       0.237   9.952  20.095  0.00  0.00    +0.000 A 
ATOM      9 BR   UNL     1      -0.893  11.458  20.262  0.00  0.00    +0.000 Br
ATOM     10  C   UNL     1       0.347   9.049  21.147  0.00  0.00    +0.000 A 
ATOM     11  C   UNL     1       1.164   7.923  21.016  0.00  0.00    +0.000 A 
ENDBRANCH   4   5
ENDBRANCH   2   4
ENDBRANCH   1   2
BRANCH   1  12
ATOM     12  C   UNL     1       2.326   3.267  18.922  0.00  0.00    +0.000 C 
BRANCH  12  18
ATOM     13  C   UNL     1       7.358   6.865  17.472  0.00  0.00    +0.000 C 
ATOM     14  C   UNL     1       6.729   5.474  17.495  0.00  0.00    +0.000 C 
ATOM     15  C   UNL     1       5.810   5.276  16.279  0.00  0.00    +0.000 C 
ATOM     16  C   UNL     1       5.108   3.922  16.333  0.00  0.00    +0.000 C 
ATOM     17  N   UNL     1       4.390   3.768  17.597  0.00  0.00    +0.000 N 
ATOM     18  C   UNL     1       3.034   3.451  17.571  0.00  0.00    +0.000 C 
ATOM     19  O   UNL     1       2.406   3.356  16.514  0.00  0.00    +0.000 OA
ATOM     20  C   UNL     1       5.215   3.905  18.795  0.00  0.00    +0.000 C 
ATOM     21  C   UNL     1       5.948   5.247  18.799  0.00  0.00    +0.000 C 
ENDBRANCH  12  18
ENDBRANCH   1  12
TORSDOF 5
ENDMDL
MODEL 9
REMARK VINA RESULT:      -6.5      2.209      4.301
REMARK  Name = 
REMARK  6 active torsions:
REMARK  status: ('A' for Active; 'I' for Inactive)
REMARK    1  A    between atoms: C_1  and  C_2
REMARK    2  A    between atoms: C_6  and  C_8
REMARK    3  A    between atoms: C_8  and  O_9
REMARK    4  A    between atoms: O_9  and  C_10
REMARK    5  A    between atoms: C_10  and  C_12
REMARK    6  A    between atoms: C_12  and  C_13
REMARK                            x       y       z     vdW  Elec       q    Type
REMARK                         _______ _______ _______ _____ _____    ______ ____
ROOT
ATOM      1  O   UNL     1       2.011   3.811  18.707  0.00  0.00    +0.000 OA
ENDROOT
BRANCH   1   2
ATOM      2  C   UNL     1       1.715   4.264  19.960  0.00  0.00    +0.000 C 
ATOM      3  O   UNL     1       0.872   3.769  20.699  0.00  0.00    +0.000 OA
BRANCH   2   4
ATOM      4  C   UNL     1       2.601   5.428  20.334  0.00  0.00    +0.000 C 
BRANCH   4   5
ATOM      5  C   UNL     1       2.112   6.793  19.911  0.00  0.00    +0.000 A 
ATOM      6  C   UNL     1       1.424   7.595  20.837  0.00  0.00    +0.000 A 
ATOM      7  C   UNL     1       1.024   8.893  20.503  0.00  0.00    +0.000 A 
ATOM      8  C   UNL     1       1.317   9.403  19.241  0.00  0.00    +0.000 A 
ATOM      9 BR   UNL     1       0.803  11.166  18.796  0.00  0.00    +0.000 Br
ATOM     10  C   UNL     1       2.000   8.625  18.312  0.00  0.00    +0.000 A 
ATOM     11  C   UNL     1       2.402   7.330  18.649  0.00  0.00    +0.000 A 
ENDBRANCH   4   5
ENDBRANCH   2   4
ENDBRANCH   1   2
BRANCH   1  12
ATOM     12  C   UNL     1       3.003   2.781  18.670  0.00  0.00    +0.000 C 
BRANCH  12  18
ATOM     13  C   UNL     1       7.302   4.858  14.478  0.00  0.00    +0.000 C 
ATOM     14  C   UNL     1       6.478   5.143  15.731  0.00  0.00    +0.000 C 
ATOM     15  C   UNL     1       7.150   4.533  16.971  0.00  0.00    +0.000 C 
ATOM     16  C   UNL     1       6.295   4.737  18.218  0.00  0.00    +0.000 C 
ATOM     17  N   UNL     1       4.948   4.211  18.007  0.00  0.00    +0.000 N 
ATOM     18  C   UNL     1       4.433   3.285  18.912  0.00  0.00    +0.000 C 
ATOM     19  O   UNL     1       5.102   2.850  19.852  0.00  0.00    +0.000 OA
ATOM     20  C   UNL     1       4.236   4.779  16.865  0.00  0.00    +0.000 C 
ATOM     21  C   UNL     1       5.045   4.606  15.579  0.00  0.00    +0.000 C 
ENDBRANCH  12  18
ENDBRANCH   1  12
TORSDOF 5
ENDMDL
