MODEL 1
REMARK VINA RESULT:      -8.1      0.000      0.000
REMARK  Name = 
REMARK  5 active torsions:
REMARK  status: ('A' for Active; 'I' for Inactive)
REMARK    1  A    between atoms: C_1  and  N_2
REMARK    2  A    between atoms: N_4  and  C_5
REMARK    3  A    between atoms: C_5  and  C_7
REMARK    4  A    between atoms: C_20  and  S_21
REMARK    5  A    between atoms: S_21  and  C_22
REMARK                            x       y       z     vdW  Elec       q    Type
REMARK                         _______ _______ _______ _____ _____    ______ ____
ROOT
ATOM      1  C   UNL     1       1.398   6.831  21.009  0.00  0.00    +0.000 C 
ATOM      2  N   UNL     1       1.977   7.381  19.802  0.00  0.00    +0.000 N 
ATOM      3  C   UNL     1       1.640   8.635  19.277  0.00  0.00    +0.000 A 
ATOM      4  N   UNL     1       0.776   9.437  19.809  0.00  0.00    +0.000 NA
ATOM      5  S   UNL     1       2.607   8.931  17.798  0.00  0.00    +0.000 S 
ATOM      6  C   UNL     1       3.386   7.340  17.921  0.00  0.00    +0.000 A 
ATOM      7  C   UNL     1       4.332   6.805  17.054  0.00  0.00    +0.000 A 
ATOM      8  C   UNL     1       4.806   5.519  17.317  0.00  0.00    +0.000 A 
ATOM      9  C   UNL     1       4.364   4.812  18.447  0.00  0.00    +0.000 A 
ATOM     10  C   UNL     1       3.416   5.379  19.315  0.00  0.00    +0.000 A 
ATOM     11  C   UNL     1       2.917   6.654  19.056  0.00  0.00    +0.000 A 
ENDROOT
BRANCH   8  12
ATOM     12  S   UNL     1       6.065   4.817  16.268  0.00  0.00    +0.000 S 
ATOM     13  C   UNL     1       7.470   4.586  17.326  0.00  0.00    +0.000 C 
ATOM     14  O   UNL     1       5.591   3.508  15.856  0.00  0.00    +0.000 OA
ATOM     15  O   UNL     1       6.418   5.819  15.283  0.00  0.00    +0.000 OA
ENDBRANCH   8  12
BRANCH   4  16
ATOM     16  C   UNL     1       0.419  10.632  19.227  0.00  0.00    +0.000 C 
ATOM     17  O   UNL     1       1.145  11.604  19.062  0.00  0.00    +0.000 OA
BRANCH  16  18
ATOM     18  C   UNL     1      -0.967  10.706  18.666  0.00  0.00    +0.000 A 
ATOM     19  C   UNL     1      -1.253   9.962  17.509  0.00  0.00    +0.000 A 
ATOM     20  C   UNL     1      -2.510  10.034  16.913  0.00  0.00    +0.000 A 
ATOM     21  C   UNL     1      -3.487  10.857  17.462  0.00  0.00    +0.000 A 
ATOM     22  C   UNL     1      -3.218  11.585  18.629  0.00  0.00    +0.000 A 
ATOM     23  C   UNL     1      -1.960  11.513  19.234  0.00  0.00    +0.000 A 
ATOM     24  O   UNL     1      -4.138  12.417  19.214  0.00  0.00    +0.000 OA
ATOM     25  C   UNL     1      -5.462  12.169  18.724  0.00  0.00    +0.000 C 
ATOM     26  C   UNL     1      -5.474  12.022  17.212  0.00  0.00    +0.000 C 
ATOM     27  O   UNL     1      -4.687  10.901  16.802  0.00  0.00    +0.000 OA
ENDBRANCH  16  18
ENDBRANCH   4  16
TORSDOF 3
ENDMDL
MODEL 2
REMARK VINA RESULT:      -7.8      2.737      3.488
REMARK  Name = 
REMARK  5 active torsions:
REMARK  status: ('A' for Active; 'I' for Inactive)
REMARK    1  A    between atoms: C_1  and  N_2
REMARK    2  A    between atoms: N_4  and  C_5
REMARK    3  A    between atoms: C_5  and  C_7
REMARK    4  A    between atoms: C_20  and  S_21
REMARK    5  A    between atoms: S_21  and  C_22
REMARK                            x       y       z     vdW  Elec       q    Type
REMARK                         _______ _______ _______ _____ _____    ______ ____
ROOT
ATOM      1  C   UNL     1       2.639   8.950  17.503  0.00  0.00    +0.000 C 
ATOM      2  N   UNL     1       2.103   8.387  18.724  0.00  0.00    +0.000 N 
ATOM      3  C   UNL     1       1.348   9.115  19.652  0.00  0.00    +0.000 A 
ATOM      4  N   UNL     1       1.048  10.366  19.523  0.00  0.00    +0.000 NA
ATOM      5  S   UNL     1       0.865   8.032  20.995  0.00  0.00    +0.000 S 
ATOM      6  C   UNL     1       1.738   6.661  20.277  0.00  0.00    +0.000 A 
ATOM      7  C   UNL     1       1.837   5.373  20.792  0.00  0.00    +0.000 A 
ATOM      8  C   UNL     1       2.594   4.442  20.081  0.00  0.00    +0.000 A 
ATOM      9  C   UNL     1       3.201   4.794  18.864  0.00  0.00    +0.000 A 
ATOM     10  C   UNL     1       3.077   6.099  18.359  0.00  0.00    +0.000 A 
ATOM     11  C   UNL     1       2.341   7.047  19.067  0.00  0.00    +0.000 A 
ENDROOT
BRANCH   8  12
ATOM     12  S   UNL     1       2.698   2.762  20.671  0.00  0.00    +0.000 S 
ATOM     13  C   UNL     1       4.327   2.218  20.226  0.00  0.00    +0.000 C 
ATOM     14  O   UNL     1       2.621   2.817  22.120  0.00  0.00    +0.000 OA
ATOM     15  O   UNL     1       1.750   1.976  19.908  0.00  0.00    +0.000 OA
ENDBRANCH   8  12
BRANCH   4  16
ATOM     16  C   UNL     1       0.363  11.067  20.489  0.00  0.00    +0.000 C 
ATOM     17  O   UNL     1       0.801  11.420  21.577  0.00  0.00    +0.000 OA
BRANCH  16  18
ATOM     18  C   UNL     1      -1.020  11.510  20.128  0.00  0.00    +0.000 A 
ATOM     19  C   UNL     1      -1.716  12.315  21.045  0.00  0.00    +0.000 A 
ATOM     20  C   UNL     1      -3.026  12.714  20.787  0.00  0.00    +0.000 A 
ATOM     21  C   UNL     1      -3.653  12.303  19.616  0.00  0.00    +0.000 A 
ATOM     22  C   UNL     1      -2.958  11.519  18.685  0.00  0.00    +0.000 A 
ATOM     23  C   UNL     1      -1.643  11.120  18.936  0.00  0.00    +0.000 A 
ATOM     24  O   UNL     1      -3.524  11.080  17.515  0.00  0.00    +0.000 OA
ATOM     25  C   UNL     1      -4.723  11.799  17.204  0.00  0.00    +0.000 C 
ATOM     26  C   UNL     1      -5.611  11.950  18.428  0.00  0.00    +0.000 C 
ATOM     27  O   UNL     1      -4.951  12.707  19.447  0.00  0.00    +0.000 OA
ENDBRANCH  16  18
ENDBRANCH   4  16
TORSDOF 3
ENDMDL
MODEL 3
REMARK VINA RESULT:      -7.8      3.003      3.913
REMARK  Name = 
REMARK  5 active torsions:
REMARK  status: ('A' for Active; 'I' for Inactive)
REMARK    1  A    between atoms: C_1  and  N_2
REMARK    2  A    between atoms: N_4  and  C_5
REMARK    3  A    between atoms: C_5  and  C_7
REMARK    4  A    between atoms: C_20  and  S_21
REMARK    5  A    between atoms: S_21  and  C_22
REMARK                            x       y       z     vdW  Elec       q    Type
REMARK                         _______ _______ _______ _____ _____    ______ ____
ROOT
ATOM      1  C   UNL     1       1.804   9.934  17.903  0.00  0.00    +0.000 C 
ATOM      2  N   UNL     1       1.756   8.964  18.976  0.00  0.00    +0.000 N 
ATOM      3  C   UNL     1       1.172   9.211  20.224  0.00  0.00    +0.000 A 
ATOM      4  N   UNL     1       0.614  10.329  20.556  0.00  0.00    +0.000 NA
ATOM      5  S   UNL     1       1.309   7.740  21.237  0.00  0.00    +0.000 S 
ATOM      6  C   UNL     1       2.187   6.873  19.959  0.00  0.00    +0.000 A 
ATOM      7  C   UNL     1       2.673   5.572  20.016  0.00  0.00    +0.000 A 
ATOM      8  C   UNL     1       3.361   5.082  18.906  0.00  0.00    +0.000 A 
ATOM      9  C   UNL     1       3.517   5.874  17.756  0.00  0.00    +0.000 A 
ATOM     10  C   UNL     1       3.006   7.183  17.719  0.00  0.00    +0.000 A 
ATOM     11  C   UNL     1       2.334   7.694  18.827  0.00  0.00    +0.000 A 
ENDROOT
BRANCH   8  12
ATOM     12  S   UNL     1       3.948   3.399  18.909  0.00  0.00    +0.000 S 
ATOM     13  C   UNL     1       2.818   2.519  19.955  0.00  0.00    +0.000 C 
ATOM     14  O   UNL     1       3.796   2.894  17.556  0.00  0.00    +0.000 OA
ATOM     15  O   UNL     1       5.242   3.393  19.560  0.00  0.00    +0.000 OA
ENDBRANCH   8  12
BRANCH   4  16
ATOM     16  C   UNL     1       0.111  10.559  21.817  0.00  0.00    +0.000 C 
ATOM     17  O   UNL     1       0.638  10.244  22.877  0.00  0.00    +0.000 OA
BRANCH  16  18
ATOM     18  C   UNL     1      -1.158  11.349  21.888  0.00  0.00    +0.000 A 
ATOM     19  C   UNL     1      -1.585  12.021  20.730  0.00  0.00    +0.000 A 
ATOM     20  C   UNL     1      -2.730  12.814  20.751  0.00  0.00    +0.000 A 
ATOM     21  C   UNL     1      -3.451  12.950  21.933  0.00  0.00    +0.000 A 
ATOM     22  C   UNL     1      -3.046  12.266  23.087  0.00  0.00    +0.000 A 
ATOM     23  C   UNL     1      -1.901  11.465  23.069  0.00  0.00    +0.000 A 
ATOM     24  O   UNL     1      -3.713  12.365  24.281  0.00  0.00    +0.000 OA
ATOM     25  C   UNL     1      -5.021  12.924  24.112  0.00  0.00    +0.000 C 
ATOM     26  C   UNL     1      -4.991  14.135  23.195  0.00  0.00    +0.000 C 
ATOM     27  O   UNL     1      -4.546  13.773  21.885  0.00  0.00    +0.000 OA
ENDBRANCH  16  18
ENDBRANCH   4  16
TORSDOF 3
ENDMDL
MODEL 4
REMARK VINA RESULT:      -7.6      0.801      1.026
REMARK  Name = 
REMARK  5 active torsions:
REMARK  status: ('A' for Active; 'I' for Inactive)
REMARK    1  A    between atoms: C_1  and  N_2
REMARK    2  A    between atoms: N_4  and  C_5
REMARK    3  A    between atoms: C_5  and  C_7
REMARK    4  A    between atoms: C_20  and  S_21
REMARK    5  A    between atoms: S_21  and  C_22
REMARK                            x       y       z     vdW  Elec       q    Type
REMARK                         _______ _______ _______ _____ _____    ______ ____
ROOT
ATOM      1  C   UNL     1       1.269   7.171  21.059  0.00  0.00    +0.000 C 
ATOM      2  N   UNL     1       1.854   7.686  19.840  0.00  0.00    +0.000 N 
ATOM      3  C   UNL     1       1.473   8.893  19.242  0.00  0.00    +0.000 A 
ATOM      4  N   UNL     1       0.559   9.679  19.710  0.00  0.00    +0.000 NA
ATOM      5  S   UNL     1       2.465   9.160  17.774  0.00  0.00    +0.000 S 
ATOM      6  C   UNL     1       3.314   7.616  18.000  0.00  0.00    +0.000 A 
ATOM      7  C   UNL     1       4.307   7.084  17.185  0.00  0.00    +0.000 A 
ATOM      8  C   UNL     1       4.833   5.837  17.526  0.00  0.00    +0.000 A 
ATOM      9  C   UNL     1       4.394   5.168  18.680  0.00  0.00    +0.000 A 
ATOM     10  C   UNL     1       3.397   5.733  19.494  0.00  0.00    +0.000 A 
ATOM     11  C   UNL     1       2.847   6.968  19.156  0.00  0.00    +0.000 A 
ENDROOT
BRANCH   8  12
ATOM     12  S   UNL     1       6.151   5.143  16.546  0.00  0.00    +0.000 S 
ATOM     13  C   UNL     1       5.340   4.160  15.313  0.00  0.00    +0.000 C 
ATOM     14  O   UNL     1       6.810   6.252  15.877  0.00  0.00    +0.000 OA
ATOM     15  O   UNL     1       6.899   4.245  17.401  0.00  0.00    +0.000 OA
ENDBRANCH   8  12
BRANCH   4  16
ATOM     16  C   UNL     1       0.163  10.825  19.058  0.00  0.00    +0.000 C 
ATOM     17  O   UNL     1       0.879  11.771  18.753  0.00  0.00    +0.000 OA
BRANCH  16  18
ATOM     18  C   UNL     1      -1.263  10.868  18.606  0.00  0.00    +0.000 A 
ATOM     19  C   UNL     1      -1.628  10.086  17.497  0.00  0.00    +0.000 A 
ATOM     20  C   UNL     1      -2.929  10.127  16.998  0.00  0.00    +0.000 A 
ATOM     21  C   UNL     1      -3.871  10.957  17.597  0.00  0.00    +0.000 A 
ATOM     22  C   UNL     1      -3.521  11.722  18.718  0.00  0.00    +0.000 A 
ATOM     23  C   UNL     1      -2.220  11.681  19.225  0.00  0.00    +0.000 A 
ATOM     24  O   UNL     1      -4.404  12.561  19.348  0.00  0.00    +0.000 OA
ATOM     25  C   UNL     1      -5.758  12.286  18.970  0.00  0.00    +0.000 C 
ATOM     26  C   UNL     1      -5.886  12.093  17.468  0.00  0.00    +0.000 C 
ATOM     27  O   UNL     1      -5.118  10.968  17.031  0.00  0.00    +0.000 OA
ENDBRANCH  16  18
ENDBRANCH   4  16
TORSDOF 3
ENDMDL
MODEL 5
REMARK VINA RESULT:      -7.6      2.997      3.636
REMARK  Name = 
REMARK  5 active torsions:
REMARK  status: ('A' for Active; 'I' for Inactive)
REMARK    1  A    between atoms: C_1  and  N_2
REMARK    2  A    between atoms: N_4  and  C_5
REMARK    3  A    between atoms: C_5  and  C_7
REMARK    4  A    between atoms: C_20  and  S_21
REMARK    5  A    between atoms: S_21  and  C_22
REMARK                            x       y       z     vdW  Elec       q    Type
REMARK                         _______ _______ _______ _____ _____    ______ ____
ROOT
ATOM      1  C   UNL     1       2.264   9.155  17.620  0.00  0.00    +0.000 C 
ATOM      2  N   UNL     1       1.847   8.553  18.868  0.00  0.00    +0.000 N 
ATOM      3  C   UNL     1       1.177   9.246  19.883  0.00  0.00    +0.000 A 
ATOM      4  N   UNL     1       0.858  10.497  19.819  0.00  0.00    +0.000 NA
ATOM      5  S   UNL     1       0.829   8.120  21.232  0.00  0.00    +0.000 S 
ATOM      6  C   UNL     1       1.640   6.779  20.397  0.00  0.00    +0.000 A 
ATOM      7  C   UNL     1       1.796   5.478  20.862  0.00  0.00    +0.000 A 
ATOM      8  C   UNL     1       2.490   4.575  20.057  0.00  0.00    +0.000 A 
ATOM      9  C   UNL     1       2.979   4.968  18.800  0.00  0.00    +0.000 A 
ATOM     10  C   UNL     1       2.799   6.286  18.347  0.00  0.00    +0.000 A 
ATOM     11  C   UNL     1       2.125   7.206  19.148  0.00  0.00    +0.000 A 
ENDROOT
BRANCH   8  12
ATOM     12  S   UNL     1       2.660   2.880  20.585  0.00  0.00    +0.000 S 
ATOM     13  C   UNL     1       4.282   2.394  20.056  0.00  0.00    +0.000 C 
ATOM     14  O   UNL     1       2.642   2.886  22.037  0.00  0.00    +0.000 OA
ATOM     15  O   UNL     1       1.701   2.095  19.836  0.00  0.00    +0.000 OA
ENDBRANCH   8  12
BRANCH   4  16
ATOM     16  C   UNL     1       0.260  11.164  20.865  0.00  0.00    +0.000 C 
ATOM     17  O   UNL     1       0.789  11.470  21.927  0.00  0.00    +0.000 OA
BRANCH  16  18
ATOM     18  C   UNL     1      -1.143  11.631  20.636  0.00  0.00    +0.000 A 
ATOM     19  C   UNL     1      -1.682  11.498  19.345  0.00  0.00    +0.000 A 
ATOM     20  C   UNL     1      -2.964  11.963  19.060  0.00  0.00    +0.000 A 
ATOM     21  C   UNL     1      -3.712  12.575  20.060  0.00  0.00    +0.000 A 
ATOM     22  C   UNL     1      -3.192  12.691  21.356  0.00  0.00    +0.000 A 
ATOM     23  C   UNL     1      -1.909  12.221  21.648  0.00  0.00    +0.000 A 
ATOM     24  O   UNL     1      -3.880  13.288  22.381  0.00  0.00    +0.000 OA
ATOM     25  C   UNL     1      -5.272  13.429  22.073  0.00  0.00    +0.000 C 
ATOM     26  C   UNL     1      -5.475  13.953  20.661  0.00  0.00    +0.000 C 
ATOM     27  O   UNL     1      -4.950  13.037  19.696  0.00  0.00    +0.000 OA
ENDBRANCH  16  18
ENDBRANCH   4  16
TORSDOF 3
ENDMDL
MODEL 6
REMARK VINA RESULT:      -7.6      1.561      1.793
REMARK  Name = 
REMARK  5 active torsions:
REMARK  status: ('A' for Active; 'I' for Inactive)
REMARK    1  A    between atoms: C_1  and  N_2
REMARK    2  A    between atoms: N_4  and  C_5
REMARK    3  A    between atoms: C_5  and  C_7
REMARK    4  A    between atoms: C_20  and  S_21
REMARK    5  A    between atoms: S_21  and  C_22
REMARK                            x       y       z     vdW  Elec       q    Type
REMARK                         _______ _______ _______ _____ _____    ______ ____
ROOT
ATOM      1  C   UNL     1       0.963   8.813  21.964  0.00  0.00    +0.000 C 
ATOM      2  N   UNL     1       1.252   8.765  20.546  0.00  0.00    +0.000 N 
ATOM      3  C   UNL     1       0.873   9.762  19.640  0.00  0.00    +0.000 A 
ATOM      4  N   UNL     1       0.225  10.832  19.966  0.00  0.00    +0.000 NA
ATOM      5  S   UNL     1       1.452   9.318  18.003  0.00  0.00    +0.000 S 
ATOM      6  C   UNL     1       2.135   7.790  18.598  0.00  0.00    +0.000 A 
ATOM      7  C   UNL     1       2.795   6.824  17.848  0.00  0.00    +0.000 A 
ATOM      8  C   UNL     1       3.238   5.676  18.506  0.00  0.00    +0.000 A 
ATOM      9  C   UNL     1       3.052   5.530  19.891  0.00  0.00    +0.000 A 
ATOM     10  C   UNL     1       2.392   6.527  20.629  0.00  0.00    +0.000 A 
ATOM     11  C   UNL     1       1.925   7.670  19.983  0.00  0.00    +0.000 A 
ENDROOT
BRANCH   8  12
ATOM     12  S   UNL     1       4.144   4.438  17.597  0.00  0.00    +0.000 S 
ATOM     13  C   UNL     1       5.043   5.339  16.363  0.00  0.00    +0.000 C 
ATOM     14  O   UNL     1       5.103   3.854  18.518  0.00  0.00    +0.000 OA
ATOM     15  O   UNL     1       3.174   3.607  16.914  0.00  0.00    +0.000 OA
ENDBRANCH   8  12
BRANCH   4  16
ATOM     16  C   UNL     1      -0.192  11.758  19.036  0.00  0.00    +0.000 C 
ATOM     17  O   UNL     1       0.503  12.616  18.505  0.00  0.00    +0.000 OA
BRANCH  16  18
ATOM     18  C   UNL     1      -1.610  11.638  18.573  0.00  0.00    +0.000 A 
ATOM     19  C   UNL     1      -1.845  11.097  17.298  0.00  0.00    +0.000 A 
ATOM     20  C   UNL     1      -3.141  11.010  16.792  0.00  0.00    +0.000 A 
ATOM     21  C   UNL     1      -4.209  11.472  17.553  0.00  0.00    +0.000 A 
ATOM     22  C   UNL     1      -3.986  11.992  18.836  0.00  0.00    +0.000 A 
ATOM     23  C   UNL     1      -2.690  12.077  19.349  0.00  0.00    +0.000 A 
ATOM     24  O   UNL     1      -4.998  12.466  19.631  0.00  0.00    +0.000 OA
ATOM     25  C   UNL     1      -6.283  12.038  19.164  0.00  0.00    +0.000 C 
ATOM     26  C   UNL     1      -6.407  12.199  17.658  0.00  0.00    +0.000 C 
ATOM     27  O   UNL     1      -5.449  11.384  16.977  0.00  0.00    +0.000 OA
ENDBRANCH  16  18
ENDBRANCH   4  16
TORSDOF 3
ENDMDL
MODEL 7
REMARK VINA RESULT:      -7.5      2.773      9.524
REMARK  Name = 
REMARK  5 active torsions:
REMARK  status: ('A' for Active; 'I' for Inactive)
REMARK    1  A    between atoms: C_1  and  N_2
REMARK    2  A    between atoms: N_4  and  C_5
REMARK    3  A    between atoms: C_5  and  C_7
REMARK    4  A    between atoms: C_20  and  S_21
REMARK    5  A    between atoms: S_21  and  C_22
REMARK                            x       y       z     vdW  Elec       q    Type
REMARK                         _______ _______ _______ _____ _____    ______ ____
ROOT
ATOM      1  C   UNL     1      -0.258  11.845  21.530  0.00  0.00    +0.000 C 
ATOM      2  N   UNL     1      -0.837  11.405  20.279  0.00  0.00    +0.000 N 
ATOM      3  C   UNL     1      -0.155  10.629  19.335  0.00  0.00    +0.000 A 
ATOM      4  N   UNL     1       1.064  10.222  19.474  0.00  0.00    +0.000 NA
ATOM      5  S   UNL     1      -1.246  10.291  17.955  0.00  0.00    +0.000 S 
ATOM      6  C   UNL     1      -2.555  11.246  18.683  0.00  0.00    +0.000 A 
ATOM      7  C   UNL     1      -3.819  11.471  18.150  0.00  0.00    +0.000 A 
ATOM      8  C   UNL     1      -4.700  12.275  18.874  0.00  0.00    +0.000 A 
ATOM      9  C   UNL     1      -4.324  12.803  20.121  0.00  0.00    +0.000 A 
ATOM     10  C   UNL     1      -3.044  12.551  20.643  0.00  0.00    +0.000 A 
ATOM     11  C   UNL     1      -2.146  11.767  19.923  0.00  0.00    +0.000 A 
ENDROOT
BRANCH   8  12
ATOM     12  S   UNL     1      -6.353  12.541  18.260  0.00  0.00    +0.000 S 
ATOM     13  C   UNL     1      -6.895  14.043  19.033  0.00  0.00    +0.000 C 
ATOM     14  O   UNL     1      -6.240  12.784  16.833  0.00  0.00    +0.000 OA
ATOM     15  O   UNL     1      -7.180  11.465  18.764  0.00  0.00    +0.000 OA
ENDBRANCH   8  12
BRANCH   4  16
ATOM     16  C   UNL     1       1.726   9.518  18.493  0.00  0.00    +0.000 C 
ATOM     17  O   UNL     1       2.125   9.965  17.424  0.00  0.00    +0.000 OA
BRANCH  16  18
ATOM     18  C   UNL     1       2.062   8.096  18.812  0.00  0.00    +0.000 A 
ATOM     19  C   UNL     1       1.774   7.622  20.103  0.00  0.00    +0.000 A 
ATOM     20  C   UNL     1       2.114   6.323  20.474  0.00  0.00    +0.000 A 
ATOM     21  C   UNL     1       2.753   5.490  19.561  0.00  0.00    +0.000 A 
ATOM     22  C   UNL     1       3.024   5.947  18.264  0.00  0.00    +0.000 A 
ATOM     23  C   UNL     1       2.681   7.248  17.885  0.00  0.00    +0.000 A 
ATOM     24  O   UNL     1       3.655   5.175  17.322  0.00  0.00    +0.000 OA
ATOM     25  C   UNL     1       3.662   3.791  17.690  0.00  0.00    +0.000 C 
ATOM     26  C   UNL     1       4.040   3.608  19.151  0.00  0.00    +0.000 C 
ATOM     27  O   UNL     1       3.085   4.239  20.008  0.00  0.00    +0.000 OA
ENDBRANCH  16  18
ENDBRANCH   4  16
TORSDOF 3
ENDMDL
MODEL 8
REMARK VINA RESULT:      -7.5      2.816      4.369
REMARK  Name = 
REMARK  5 active torsions:
REMARK  status: ('A' for Active; 'I' for Inactive)
REMARK    1  A    between atoms: C_1  and  N_2
REMARK    2  A    between atoms: N_4  and  C_5
REMARK    3  A    between atoms: C_5  and  C_7
REMARK    4  A    between atoms: C_20  and  S_21
REMARK    5  A    between atoms: S_21  and  C_22
REMARK                            x       y       z     vdW  Elec       q    Type
REMARK                         _______ _______ _______ _____ _____    ______ ____
ROOT
ATOM      1  C   UNL     1       1.872   6.356  20.789  0.00  0.00    +0.000 C 
ATOM      2  N   UNL     1       2.433   6.944  19.591  0.00  0.00    +0.000 N 
ATOM      3  C   UNL     1       1.959   8.124  19.006  0.00  0.00    +0.000 A 
ATOM      4  N   UNL     1       0.970   8.817  19.468  0.00  0.00    +0.000 NA
ATOM      5  S   UNL     1       2.952   8.505  17.564  0.00  0.00    +0.000 S 
ATOM      6  C   UNL     1       3.930   7.038  17.781  0.00  0.00    +0.000 A 
ATOM      7  C   UNL     1       4.982   6.611  16.979  0.00  0.00    +0.000 A 
ATOM      8  C   UNL     1       5.609   5.410  17.310  0.00  0.00    +0.000 A 
ATOM      9  C   UNL     1       5.208   4.682  18.443  0.00  0.00    +0.000 A 
ATOM     10  C   UNL     1       4.150   5.142  19.245  0.00  0.00    +0.000 A 
ATOM     11  C   UNL     1       3.499   6.329  18.917  0.00  0.00    +0.000 A 
ENDROOT
BRANCH   8  12
ATOM     12  S   UNL     1       7.003   4.853  16.347  0.00  0.00    +0.000 S 
ATOM     13  C   UNL     1       6.340   3.642  15.234  0.00  0.00    +0.000 C 
ATOM     14  O   UNL     1       7.454   5.988  15.561  0.00  0.00    +0.000 OA
ATOM     15  O   UNL     1       7.908   4.171  17.249  0.00  0.00    +0.000 OA
ENDBRANCH   8  12
BRANCH   4  16
ATOM     16  C   UNL     1       0.486   9.935  18.827  0.00  0.00    +0.000 C 
ATOM     17  O   UNL     1      -0.396   9.960  17.977  0.00  0.00    +0.000 OA
BRANCH  16  18
ATOM     18  C   UNL     1       1.037  11.249  19.284  0.00  0.00    +0.000 A 
ATOM     19  C   UNL     1       0.573  11.773  20.502  0.00  0.00    +0.000 A 
ATOM     20  C   UNL     1       1.010  13.017  20.952  0.00  0.00    +0.000 A 
ATOM     21  C   UNL     1       1.907  13.751  20.183  0.00  0.00    +0.000 A 
ATOM     22  C   UNL     1       2.393  13.227  18.978  0.00  0.00    +0.000 A 
ATOM     23  C   UNL     1       1.962  11.977  18.525  0.00  0.00    +0.000 A 
ATOM     24  O   UNL     1       3.275  13.904  18.175  0.00  0.00    +0.000 OA
ATOM     25  C   UNL     1       3.895  14.993  18.871  0.00  0.00    +0.000 C 
ATOM     26  C   UNL     1       2.877  15.792  19.668  0.00  0.00    +0.000 C 
ATOM     27  O   UNL     1       2.266  14.979  20.674  0.00  0.00    +0.000 OA
ENDBRANCH  16  18
ENDBRANCH   4  16
TORSDOF 3
ENDMDL
MODEL 9
REMARK VINA RESULT:      -7.4      2.967      9.390
REMARK  Name = 
REMARK  5 active torsions:
REMARK  status: ('A' for Active; 'I' for Inactive)
REMARK    1  A    between atoms: C_1  and  N_2
REMARK    2  A    between atoms: N_4  and  C_5
REMARK    3  A    between atoms: C_5  and  C_7
REMARK    4  A    between atoms: C_20  and  S_21
REMARK    5  A    between atoms: S_21  and  C_22
REMARK                            x       y       z     vdW  Elec       q    Type
REMARK                         _______ _______ _______ _____ _____    ______ ____
ROOT
ATOM      1  C   UNL     1       1.152   9.254  22.605  0.00  0.00    +0.000 C 
ATOM      2  N   UNL     1       0.533   9.759  21.398  0.00  0.00    +0.000 N 
ATOM      3  C   UNL     1       0.899   9.359  20.107  0.00  0.00    +0.000 A 
ATOM      4  N   UNL     1       1.829   8.498  19.851  0.00  0.00    +0.000 NA
ATOM      5  S   UNL     1      -0.135  10.205  18.914  0.00  0.00    +0.000 S 
ATOM      6  C   UNL     1      -0.981  11.097  20.197  0.00  0.00    +0.000 A 
ATOM      7  C   UNL     1      -1.999  12.029  20.032  0.00  0.00    +0.000 A 
ATOM      8  C   UNL     1      -2.519  12.638  21.174  0.00  0.00    +0.000 A 
ATOM      9  C   UNL     1      -2.047  12.284  22.450  0.00  0.00    +0.000 A 
ATOM     10  C   UNL     1      -1.025  11.330  22.590  0.00  0.00    +0.000 A 
ATOM     11  C   UNL     1      -0.482  10.727  21.458  0.00  0.00    +0.000 A 
ENDROOT
BRANCH   8  12
ATOM     12  S   UNL     1      -3.867  13.794  21.017  0.00  0.00    +0.000 S 
ATOM     13  C   UNL     1      -4.674  13.778  22.597  0.00  0.00    +0.000 C 
ATOM     14  O   UNL     1      -3.278  15.107  20.825  0.00  0.00    +0.000 OA
ATOM     15  O   UNL     1      -4.794  13.249  20.046  0.00  0.00    +0.000 OA
ENDBRANCH   8  12
BRANCH   4  16
ATOM     16  C   UNL     1       2.209   8.179  18.567  0.00  0.00    +0.000 C 
ATOM     17  O   UNL     1       2.232   8.940  17.607  0.00  0.00    +0.000 OA
BRANCH  16  18
ATOM     18  C   UNL     1       2.726   6.791  18.355  0.00  0.00    +0.000 A 
ATOM     19  C   UNL     1       3.786   6.611  17.450  0.00  0.00    +0.000 A 
ATOM     20  C   UNL     1       4.273   5.335  17.173  0.00  0.00    +0.000 A 
ATOM     21  C   UNL     1       3.699   4.230  17.791  0.00  0.00    +0.000 A 
ATOM     22  C   UNL     1       2.657   4.402  18.713  0.00  0.00    +0.000 A 
ATOM     23  C   UNL     1       2.168   5.679  18.997  0.00  0.00    +0.000 A 
ATOM     24  O   UNL     1       2.048   3.351  19.350  0.00  0.00    +0.000 OA
ATOM     25  C   UNL     1       2.822   2.150  19.246  0.00  0.00    +0.000 C 
ATOM     26  C   UNL     1       3.335   1.941  17.831  0.00  0.00    +0.000 C 
ATOM     27  O   UNL     1       4.209   3.006  17.444  0.00  0.00    +0.000 OA
ENDBRANCH  16  18
ENDBRANCH   4  16
TORSDOF 3
ENDMDL
