MODEL 1
REMARK VINA RESULT:      -8.8      0.000      0.000
REMARK  Name = 
REMARK  5 active torsions:
REMARK  status: ('A' for Active; 'I' for Inactive)
REMARK    1  A    between atoms: C_1  and  O_2
REMARK    2  A    between atoms: O_2  and  C_3
REMARK    3  A    between atoms: C_9  and  C_10
REMARK    4  A    between atoms: N_14  and  C_15
REMARK    5  A    between atoms: C_18  and  C_19
REMARK                            x       y       z     vdW  Elec       q    Type
REMARK                         _______ _______ _______ _____ _____    ______ ____
ROOT
ATOM      1  C   UNL     1       1.956   3.329  19.140  0.00  0.00    +0.000 A 
ATOM      2  C   UNL     1       2.042   1.938  19.102  0.00  0.00    +0.000 A 
ATOM      3  C   UNL     1       3.066   1.319  18.379  0.00  0.00    +0.000 A 
ATOM      4  C   UNL     1       3.992   2.083  17.664  0.00  0.00    +0.000 A 
ATOM      5  C   UNL     1       3.901   3.474  17.669  0.00  0.00    +0.000 A 
ATOM      6  C   UNL     1       4.817   4.315  16.915  0.00  0.00    +0.000 A 
ATOM      7  C   UNL     1       4.687   5.655  16.900  0.00  0.00    +0.000 A 
ATOM      8  C   UNL     1       3.610   6.313  17.682  0.00  0.00    +0.000 A 
ATOM      9  N   UNL     1       3.414   7.599  17.657  0.00  0.00    +0.000 NA
ATOM     10  O   UNL     1       2.827   5.480  18.472  0.00  0.00    +0.000 OA
ATOM     11  C   UNL     1       2.897   4.075  18.419  0.00  0.00    +0.000 A 
ENDROOT
BRANCH   9  12
ATOM     12  C   UNL     1       2.448   8.211  18.475  0.00  0.00    +0.000 A 
ATOM     13  C   UNL     1       1.733   9.276  17.929  0.00  0.00    +0.000 A 
ATOM     14  C   UNL     1       0.804   9.988  18.696  0.00  0.00    +0.000 A 
ATOM     15  C   UNL     1       0.556   9.655  20.038  0.00  0.00    +0.000 A 
ATOM     16  C   UNL     1       1.234   8.543  20.557  0.00  0.00    +0.000 A 
ATOM     17  C   UNL     1       2.143   7.818  19.779  0.00  0.00    +0.000 A 
BRANCH  15  18
ATOM     18  C   UNL     1      -0.360  10.463  20.872  0.00  0.00    +0.000 A 
ATOM     19  C   UNL     1      -1.129  11.500  20.312  0.00  0.00    +0.000 A 
ATOM     20  C   UNL     1      -1.941  12.313  21.107  0.00  0.00    +0.000 A 
ATOM     21  C   UNL     1      -2.019  12.093  22.479  0.00  0.00    +0.000 A 
ATOM     22  C   UNL     1      -1.292  11.055  23.056  0.00  0.00    +0.000 A 
ATOM     23  C   UNL     1      -0.471  10.248  22.257  0.00  0.00    +0.000 A 
ENDBRANCH  15  18
ENDBRANCH   9  12
BRANCH   7  24
ATOM     24  C   UNL     1       5.701   6.402  16.094  0.00  0.00    +0.000 C 
ATOM     25  N   UNL     1       6.496   7.277  16.764  0.00  0.00    +0.000 N 
ATOM     26  O   UNL     1       5.840   6.251  14.884  0.00  0.00    +0.000 OA
ATOM     27  H   UNL     1       6.378   7.449  17.762  0.00  0.00    +0.000 HD
ATOM     28  H   UNL     1       7.188   7.807  16.248  0.00  0.00    +0.000 HD
ENDBRANCH   7  24
BRANCH   1  30
ATOM     29  C   UNL     1       1.292   4.409  21.134  0.00  0.00    +0.000 C 
ATOM     30  O   UNL     1       0.975   4.023  19.801  0.00  0.00    +0.000 OA
ENDBRANCH   1  30
TORSDOF 4
ENDMDL
MODEL 2
REMARK VINA RESULT:      -8.4      3.799      9.024
REMARK  Name = 
REMARK  5 active torsions:
REMARK  status: ('A' for Active; 'I' for Inactive)
REMARK    1  A    between atoms: C_1  and  O_2
REMARK    2  A    between atoms: O_2  and  C_3
REMARK    3  A    between atoms: C_9  and  C_10
REMARK    4  A    between atoms: N_14  and  C_15
REMARK    5  A    between atoms: C_18  and  C_19
REMARK                            x       y       z     vdW  Elec       q    Type
REMARK                         _______ _______ _______ _____ _____    ______ ____
ROOT
ATOM      1  C   UNL     1      -3.502  10.694  17.888  0.00  0.00    +0.000 A 
ATOM      2  C   UNL     1      -4.789  11.114  17.554  0.00  0.00    +0.000 A 
ATOM      3  C   UNL     1      -5.377  12.181  18.242  0.00  0.00    +0.000 A 
ATOM      4  C   UNL     1      -4.698  12.814  19.286  0.00  0.00    +0.000 A 
ATOM      5  C   UNL     1      -3.422  12.384  19.649  0.00  0.00    +0.000 A 
ATOM      6  C   UNL     1      -2.685  12.984  20.751  0.00  0.00    +0.000 A 
ATOM      7  C   UNL     1      -1.471  12.528  21.113  0.00  0.00    +0.000 A 
ATOM      8  C   UNL     1      -0.840  11.408  20.372  0.00  0.00    +0.000 A 
ATOM      9  N   UNL     1       0.307  10.901  20.718  0.00  0.00    +0.000 NA
ATOM     10  O   UNL     1      -1.531  10.937  19.262  0.00  0.00    +0.000 OA
ATOM     11  C   UNL     1      -2.839  11.344  18.936  0.00  0.00    +0.000 A 
ENDROOT
BRANCH   9  12
ATOM     12  C   UNL     1       0.930   9.901  19.950  0.00  0.00    +0.000 A 
ATOM     13  C   UNL     1       1.193   8.685  20.578  0.00  0.00    +0.000 A 
ATOM     14  C   UNL     1       1.873   7.661  19.910  0.00  0.00    +0.000 A 
ATOM     15  C   UNL     1       2.313   7.819  18.584  0.00  0.00    +0.000 A 
ATOM     16  C   UNL     1       1.987   9.022  17.942  0.00  0.00    +0.000 A 
ATOM     17  C   UNL     1       1.284  10.034  18.606  0.00  0.00    +0.000 A 
BRANCH  15  18
ATOM     18  C   UNL     1       3.109   6.771  17.910  0.00  0.00    +0.000 A 
ATOM     19  C   UNL     1       2.752   5.413  18.004  0.00  0.00    +0.000 A 
ATOM     20  C   UNL     1       3.541   4.413  17.430  0.00  0.00    +0.000 A 
ATOM     21  C   UNL     1       4.695   4.751  16.729  0.00  0.00    +0.000 A 
ATOM     22  C   UNL     1       5.056   6.089  16.594  0.00  0.00    +0.000 A 
ATOM     23  C   UNL     1       4.268   7.089  17.180  0.00  0.00    +0.000 A 
ENDBRANCH  15  18
ENDBRANCH   9  12
BRANCH   7  24
ATOM     24  C   UNL     1      -0.819  13.241  22.253  0.00  0.00    +0.000 C 
ATOM     25  N   UNL     1       0.328  13.918  21.981  0.00  0.00    +0.000 N 
ATOM     26  O   UNL     1      -1.273  13.242  23.393  0.00  0.00    +0.000 OA
ATOM     27  H   UNL     1       0.748  13.904  21.052  0.00  0.00    +0.000 HD
ATOM     28  H   UNL     1       0.803  14.404  22.731  0.00  0.00    +0.000 HD
ENDBRANCH   7  24
BRANCH   1  30
ATOM     29  C   UNL     1      -2.704   9.745  15.876  0.00  0.00    +0.000 C 
ATOM     30  O   UNL     1      -2.854   9.644  17.288  0.00  0.00    +0.000 OA
ENDBRANCH   1  30
TORSDOF 4
ENDMDL
MODEL 3
REMARK VINA RESULT:      -8.3      3.691      8.927
REMARK  Name = 
REMARK  5 active torsions:
REMARK  status: ('A' for Active; 'I' for Inactive)
REMARK    1  A    between atoms: C_1  and  O_2
REMARK    2  A    between atoms: O_2  and  C_3
REMARK    3  A    between atoms: C_9  and  C_10
REMARK    4  A    between atoms: N_14  and  C_15
REMARK    5  A    between atoms: C_18  and  C_19
REMARK                            x       y       z     vdW  Elec       q    Type
REMARK                         _______ _______ _______ _____ _____    ______ ____
ROOT
ATOM      1  C   UNL     1      -3.128  10.616  17.409  0.00  0.00    +0.000 A 
ATOM      2  C   UNL     1      -4.358  11.111  16.979  0.00  0.00    +0.000 A 
ATOM      3  C   UNL     1      -5.016  12.094  17.725  0.00  0.00    +0.000 A 
ATOM      4  C   UNL     1      -4.466  12.567  18.919  0.00  0.00    +0.000 A 
ATOM      5  C   UNL     1      -3.251  12.059  19.376  0.00  0.00    +0.000 A 
ATOM      6  C   UNL     1      -2.651  12.491  20.629  0.00  0.00    +0.000 A 
ATOM      7  C   UNL     1      -1.497  11.959  21.074  0.00  0.00    +0.000 A 
ATOM      8  C   UNL     1      -0.790  10.928  20.274  0.00  0.00    +0.000 A 
ATOM      9  N   UNL     1       0.300  10.349  20.687  0.00  0.00    +0.000 NA
ATOM     10  O   UNL     1      -1.341  10.625  19.034  0.00  0.00    +0.000 OA
ATOM     11  C   UNL     1      -2.594  11.106  18.608  0.00  0.00    +0.000 A 
ENDROOT
BRANCH   9  12
ATOM     12  C   UNL     1       1.003   9.442  19.875  0.00  0.00    +0.000 A 
ATOM     13  C   UNL     1       1.361   8.221  20.445  0.00  0.00    +0.000 A 
ATOM     14  C   UNL     1       2.124   7.290  19.732  0.00  0.00    +0.000 A 
ATOM     15  C   UNL     1       2.553   7.548  18.419  0.00  0.00    +0.000 A 
ATOM     16  C   UNL     1       2.134   8.751  17.835  0.00  0.00    +0.000 A 
ATOM     17  C   UNL     1       1.349   9.669  18.542  0.00  0.00    +0.000 A 
BRANCH  15  18
ATOM     18  C   UNL     1       3.433   6.601  17.700  0.00  0.00    +0.000 A 
ATOM     19  C   UNL     1       4.476   7.061  16.875  0.00  0.00    +0.000 A 
ATOM     20  C   UNL     1       5.264   6.174  16.137  0.00  0.00    +0.000 A 
ATOM     21  C   UNL     1       5.040   4.804  16.225  0.00  0.00    +0.000 A 
ATOM     22  C   UNL     1       4.034   4.318  17.056  0.00  0.00    +0.000 A 
ATOM     23  C   UNL     1       3.239   5.211  17.787  0.00  0.00    +0.000 A 
ENDBRANCH  15  18
ENDBRANCH   9  12
BRANCH   7  24
ATOM     24  C   UNL     1      -0.985  12.499  22.370  0.00  0.00    +0.000 C 
ATOM     25  N   UNL     1      -0.376  13.714  22.333  0.00  0.00    +0.000 N 
ATOM     26  O   UNL     1      -1.097  11.903  23.437  0.00  0.00    +0.000 OA
ATOM     27  H   UNL     1      -0.237  14.214  21.456  0.00  0.00    +0.000 HD
ATOM     28  H   UNL     1      -0.008  14.106  23.191  0.00  0.00    +0.000 HD
ENDBRANCH   7  24
BRANCH   1  30
ATOM     29  C   UNL     1      -2.608   9.581  15.349  0.00  0.00    +0.000 C 
ATOM     30  O   UNL     1      -2.421   9.636  16.760  0.00  0.00    +0.000 OA
ENDBRANCH   1  30
TORSDOF 4
ENDMDL
MODEL 4
REMARK VINA RESULT:      -7.9      0.573      1.066
REMARK  Name = 
REMARK  5 active torsions:
REMARK  status: ('A' for Active; 'I' for Inactive)
REMARK    1  A    between atoms: C_1  and  O_2
REMARK    2  A    between atoms: O_2  and  C_3
REMARK    3  A    between atoms: C_9  and  C_10
REMARK    4  A    between atoms: N_14  and  C_15
REMARK    5  A    between atoms: C_18  and  C_19
REMARK                            x       y       z     vdW  Elec       q    Type
REMARK                         _______ _______ _______ _____ _____    ______ ____
ROOT
ATOM      1  C   UNL     1       1.872   3.522  19.281  0.00  0.00    +0.000 A 
ATOM      2  C   UNL     1       1.843   2.129  19.333  0.00  0.00    +0.000 A 
ATOM      3  C   UNL     1       2.729   1.381  18.551  0.00  0.00    +0.000 A 
ATOM      4  C   UNL     1       3.628   2.017  17.690  0.00  0.00    +0.000 A 
ATOM      5  C   UNL     1       3.648   3.408  17.607  0.00  0.00    +0.000 A 
ATOM      6  C   UNL     1       4.538   4.119  16.703  0.00  0.00    +0.000 A 
ATOM      7  C   UNL     1       4.513   5.462  16.607  0.00  0.00    +0.000 A 
ATOM      8  C   UNL     1       3.584   6.256  17.448  0.00  0.00    +0.000 A 
ATOM      9  N   UNL     1       3.489   7.551  17.353  0.00  0.00    +0.000 NA
ATOM     10  O   UNL     1       2.830   5.544  18.374  0.00  0.00    +0.000 OA
ATOM     11  C   UNL     1       2.783   4.138  18.413  0.00  0.00    +0.000 A 
ENDROOT
BRANCH   9  12
ATOM     12  C   UNL     1       2.670   8.293  18.222  0.00  0.00    +0.000 A 
ATOM     13  C   UNL     1       2.464   7.777  19.501  0.00  0.00    +0.000 A 
ATOM     14  C   UNL     1       1.607   8.414  20.405  0.00  0.00    +0.000 A 
ATOM     15  C   UNL     1       0.926   9.593  20.060  0.00  0.00    +0.000 A 
ATOM     16  C   UNL     1       1.190  10.137  18.795  0.00  0.00    +0.000 A 
ATOM     17  C   UNL     1       2.068   9.511  17.903  0.00  0.00    +0.000 A 
BRANCH  15  18
ATOM     18  C   UNL     1      -0.047  10.215  20.984  0.00  0.00    +0.000 A 
ATOM     19  C   UNL     1      -0.852  11.294  20.574  0.00  0.00    +0.000 A 
ATOM     20  C   UNL     1      -1.720  11.932  21.464  0.00  0.00    +0.000 A 
ATOM     21  C   UNL     1      -1.820  11.490  22.780  0.00  0.00    +0.000 A 
ATOM     22  C   UNL     1      -1.057  10.405  23.205  0.00  0.00    +0.000 A 
ATOM     23  C   UNL     1      -0.180   9.774  22.313  0.00  0.00    +0.000 A 
ENDBRANCH  15  18
ENDBRANCH   9  12
BRANCH   7  24
ATOM     24  C   UNL     1       5.488   6.067  15.648  0.00  0.00    +0.000 C 
ATOM     25  N   UNL     1       6.788   5.692  15.773  0.00  0.00    +0.000 N 
ATOM     26  O   UNL     1       5.163   6.863  14.773  0.00  0.00    +0.000 OA
ATOM     27  H   UNL     1       7.092   5.060  16.514  0.00  0.00    +0.000 HD
ATOM     28  H   UNL     1       7.477   6.089  15.147  0.00  0.00    +0.000 HD
ENDBRANCH   7  24
BRANCH   1  30
ATOM     29  C   UNL     1       1.547   4.834  21.218  0.00  0.00    +0.000 C 
ATOM     30  O   UNL     1       1.027   4.337  19.989  0.00  0.00    +0.000 OA
ENDBRANCH   1  30
TORSDOF 4
ENDMDL
MODEL 5
REMARK VINA RESULT:      -7.9      1.006      1.006
REMARK  Name = 
REMARK  5 active torsions:
REMARK  status: ('A' for Active; 'I' for Inactive)
REMARK    1  A    between atoms: C_1  and  O_2
REMARK    2  A    between atoms: O_2  and  C_3
REMARK    3  A    between atoms: C_9  and  C_10
REMARK    4  A    between atoms: N_14  and  C_15
REMARK    5  A    between atoms: C_18  and  C_19
REMARK                            x       y       z     vdW  Elec       q    Type
REMARK                         _______ _______ _______ _____ _____    ______ ____
ROOT
ATOM      1  C   UNL     1       2.834   3.887  20.501  0.00  0.00    +0.000 A 
ATOM      2  C   UNL     1       3.192   2.574  20.802  0.00  0.00    +0.000 A 
ATOM      3  C   UNL     1       4.248   1.962  20.118  0.00  0.00    +0.000 A 
ATOM      4  C   UNL     1       4.933   2.647  19.111  0.00  0.00    +0.000 A 
ATOM      5  C   UNL     1       4.566   3.950  18.780  0.00  0.00    +0.000 A 
ATOM      6  C   UNL     1       5.223   4.695  17.717  0.00  0.00    +0.000 A 
ATOM      7  C   UNL     1       4.827   5.939  17.385  0.00  0.00    +0.000 A 
ATOM      8  C   UNL     1       3.717   6.593  18.121  0.00  0.00    +0.000 A 
ATOM      9  N   UNL     1       3.267   7.772  17.803  0.00  0.00    +0.000 NA
ATOM     10  O   UNL     1       3.192   5.888  19.198  0.00  0.00    +0.000 OA
ATOM     11  C   UNL     1       3.536   4.555  19.490  0.00  0.00    +0.000 A 
ENDROOT
BRANCH   9  12
ATOM     12  C   UNL     1       2.277   8.412  18.569  0.00  0.00    +0.000 A 
ATOM     13  C   UNL     1       1.607   9.483  17.978  0.00  0.00    +0.000 A 
ATOM     14  C   UNL     1       0.658  10.221  18.694  0.00  0.00    +0.000 A 
ATOM     15  C   UNL     1       0.345   9.911  20.028  0.00  0.00    +0.000 A 
ATOM     16  C   UNL     1       0.979   8.794  20.591  0.00  0.00    +0.000 A 
ATOM     17  C   UNL     1       1.908   8.042  19.863  0.00  0.00    +0.000 A 
BRANCH  15  18
ATOM     18  C   UNL     1      -0.591  10.747  20.810  0.00  0.00    +0.000 A 
ATOM     19  C   UNL     1      -1.451  11.664  20.177  0.00  0.00    +0.000 A 
ATOM     20  C   UNL     1      -2.285  12.507  20.916  0.00  0.00    +0.000 A 
ATOM     21  C   UNL     1      -2.295  12.436  22.305  0.00  0.00    +0.000 A 
ATOM     22  C   UNL     1      -1.477  11.517  22.958  0.00  0.00    +0.000 A 
ATOM     23  C   UNL     1      -0.634  10.681  22.215  0.00  0.00    +0.000 A 
ENDBRANCH  15  18
ENDBRANCH   9  12
BRANCH   7  24
ATOM     24  C   UNL     1       5.593   6.596  16.282  0.00  0.00    +0.000 C 
ATOM     25  N   UNL     1       6.832   7.062  16.587  0.00  0.00    +0.000 N 
ATOM     26  O   UNL     1       5.156   6.720  15.143  0.00  0.00    +0.000 OA
ATOM     27  H   UNL     1       7.205   7.006  17.535  0.00  0.00    +0.000 HD
ATOM     28  H   UNL     1       7.376   7.522  15.868  0.00  0.00    +0.000 HD
ENDBRANCH   7  24
BRANCH   1  30
ATOM     29  C   UNL     1       0.539   4.447  20.445  0.00  0.00    +0.000 C 
ATOM     30  O   UNL     1       1.799   4.560  21.098  0.00  0.00    +0.000 OA
ENDBRANCH   1  30
TORSDOF 4
ENDMDL
MODEL 6
REMARK VINA RESULT:      -7.8      1.112      1.433
REMARK  Name = 
REMARK  5 active torsions:
REMARK  status: ('A' for Active; 'I' for Inactive)
REMARK    1  A    between atoms: C_1  and  O_2
REMARK    2  A    between atoms: O_2  and  C_3
REMARK    3  A    between atoms: C_9  and  C_10
REMARK    4  A    between atoms: N_14  and  C_15
REMARK    5  A    between atoms: C_18  and  C_19
REMARK                            x       y       z     vdW  Elec       q    Type
REMARK                         _______ _______ _______ _____ _____    ______ ____
ROOT
ATOM      1  C   UNL     1       2.888   3.816  20.523  0.00  0.00    +0.000 A 
ATOM      2  C   UNL     1       3.225   2.505  20.858  0.00  0.00    +0.000 A 
ATOM      3  C   UNL     1       4.269   1.859  20.189  0.00  0.00    +0.000 A 
ATOM      4  C   UNL     1       4.963   2.505  19.162  0.00  0.00    +0.000 A 
ATOM      5  C   UNL     1       4.617   3.804  18.798  0.00  0.00    +0.000 A 
ATOM      6  C   UNL     1       5.282   4.510  17.713  0.00  0.00    +0.000 A 
ATOM      7  C   UNL     1       4.905   5.750  17.349  0.00  0.00    +0.000 A 
ATOM      8  C   UNL     1       3.808   6.443  18.070  0.00  0.00    +0.000 A 
ATOM      9  N   UNL     1       3.377   7.619  17.721  0.00  0.00    +0.000 NA
ATOM     10  O   UNL     1       3.275   5.776  19.166  0.00  0.00    +0.000 OA
ATOM     11  C   UNL     1       3.598   4.445  19.493  0.00  0.00    +0.000 A 
ENDROOT
BRANCH   9  12
ATOM     12  C   UNL     1       2.400   8.296  18.472  0.00  0.00    +0.000 A 
ATOM     13  C   UNL     1       1.772   9.385  17.868  0.00  0.00    +0.000 A 
ATOM     14  C   UNL     1       0.840  10.158  18.569  0.00  0.00    +0.000 A 
ATOM     15  C   UNL     1       0.500   9.866  19.900  0.00  0.00    +0.000 A 
ATOM     16  C   UNL     1       1.090   8.731  20.476  0.00  0.00    +0.000 A 
ATOM     17  C   UNL     1       2.003   7.945  19.763  0.00  0.00    +0.000 A 
BRANCH  15  18
ATOM     18  C   UNL     1      -0.417  10.736  20.667  0.00  0.00    +0.000 A 
ATOM     19  C   UNL     1      -0.455  10.693  22.073  0.00  0.00    +0.000 A 
ATOM     20  C   UNL     1      -1.371  11.460  22.798  0.00  0.00    +0.000 A 
ATOM     21  C   UNL     1      -2.255  12.305  22.134  0.00  0.00    +0.000 A 
ATOM     22  C   UNL     1      -2.219  12.390  20.745  0.00  0.00    +0.000 A 
ATOM     23  C   UNL     1      -1.307  11.612  20.020  0.00  0.00    +0.000 A 
ENDBRANCH  15  18
ENDBRANCH   9  12
BRANCH   7  24
ATOM     24  C   UNL     1       5.679   6.366  16.227  0.00  0.00    +0.000 C 
ATOM     25  N   UNL     1       4.962   6.974  15.246  0.00  0.00    +0.000 N 
ATOM     26  O   UNL     1       6.904   6.346  16.167  0.00  0.00    +0.000 OA
ATOM     27  H   UNL     1       3.943   6.973  15.252  0.00  0.00    +0.000 HD
ATOM     28  H   UNL     1       5.453   7.393  14.466  0.00  0.00    +0.000 HD
ENDBRANCH   7  24
BRANCH   1  30
ATOM     29  C   UNL     1       0.602   4.412  20.457  0.00  0.00    +0.000 C 
ATOM     30  O   UNL     1       1.865   4.521  21.105  0.00  0.00    +0.000 OA
ENDBRANCH   1  30
TORSDOF 4
ENDMDL
MODEL 7
REMARK VINA RESULT:      -7.5      3.993      9.030
REMARK  Name = 
REMARK  5 active torsions:
REMARK  status: ('A' for Active; 'I' for Inactive)
REMARK    1  A    between atoms: C_1  and  O_2
REMARK    2  A    between atoms: O_2  and  C_3
REMARK    3  A    between atoms: C_9  and  C_10
REMARK    4  A    between atoms: N_14  and  C_15
REMARK    5  A    between atoms: C_18  and  C_19
REMARK                            x       y       z     vdW  Elec       q    Type
REMARK                         _______ _______ _______ _____ _____    ______ ____
ROOT
ATOM      1  C   UNL     1      -3.449  10.663  17.807  0.00  0.00    +0.000 A 
ATOM      2  C   UNL     1      -4.673  11.035  17.252  0.00  0.00    +0.000 A 
ATOM      3  C   UNL     1      -5.397  12.098  17.802  0.00  0.00    +0.000 A 
ATOM      4  C   UNL     1      -4.919  12.776  18.927  0.00  0.00    +0.000 A 
ATOM      5  C   UNL     1      -3.711  12.395  19.509  0.00  0.00    +0.000 A 
ATOM      6  C   UNL     1      -3.185  13.043  20.700  0.00  0.00    +0.000 A 
ATOM      7  C   UNL     1      -2.037  12.634  21.272  0.00  0.00    +0.000 A 
ATOM      8  C   UNL     1      -1.261  11.517  20.679  0.00  0.00    +0.000 A 
ATOM      9  N   UNL     1      -0.174  11.054  21.224  0.00  0.00    +0.000 NA
ATOM     10  O   UNL     1      -1.743  11.000  19.482  0.00  0.00    +0.000 OA
ATOM     11  C   UNL     1      -2.988  11.358  18.932  0.00  0.00    +0.000 A 
ENDROOT
BRANCH   9  12
ATOM     12  C   UNL     1       0.596  10.058  20.598  0.00  0.00    +0.000 A 
ATOM     13  C   UNL     1       1.012  10.301  19.290  0.00  0.00    +0.000 A 
ATOM     14  C   UNL     1       1.720   9.334  18.568  0.00  0.00    +0.000 A 
ATOM     15  C   UNL     1       2.039   8.087  19.133  0.00  0.00    +0.000 A 
ATOM     16  C   UNL     1       1.670   7.879  20.470  0.00  0.00    +0.000 A 
ATOM     17  C   UNL     1       0.985   8.859  21.197  0.00  0.00    +0.000 A 
BRANCH  15  18
ATOM     18  C   UNL     1       2.708   7.034  18.340  0.00  0.00    +0.000 A 
ATOM     19  C   UNL     1       2.269   5.698  18.387  0.00  0.00    +0.000 A 
ATOM     20  C   UNL     1       2.942   4.687  17.696  0.00  0.00    +0.000 A 
ATOM     21  C   UNL     1       4.059   4.994  16.925  0.00  0.00    +0.000 A 
ATOM     22  C   UNL     1       4.498   6.312  16.836  0.00  0.00    +0.000 A 
ATOM     23  C   UNL     1       3.827   7.322  17.538  0.00  0.00    +0.000 A 
ENDBRANCH  15  18
ENDBRANCH   9  12
BRANCH   7  24
ATOM     24  C   UNL     1      -1.603  13.393  22.485  0.00  0.00    +0.000 C 
ATOM     25  N   UNL     1      -0.351  13.920  22.466  0.00  0.00    +0.000 N 
ATOM     26  O   UNL     1      -2.321  13.557  23.466  0.00  0.00    +0.000 OA
ATOM     27  H   UNL     1       0.280  13.768  21.680  0.00  0.00    +0.000 HD
ATOM     28  H   UNL     1      -0.020  14.432  23.275  0.00  0.00    +0.000 HD
ENDBRANCH   7  24
BRANCH   1  30
ATOM     29  C   UNL     1      -2.419   9.620  15.954  0.00  0.00    +0.000 C 
ATOM     30  O   UNL     1      -2.682   9.621  17.353  0.00  0.00    +0.000 OA
ENDBRANCH   1  30
TORSDOF 4
ENDMDL
MODEL 8
REMARK VINA RESULT:      -7.4      3.726      9.292
REMARK  Name = 
REMARK  5 active torsions:
REMARK  status: ('A' for Active; 'I' for Inactive)
REMARK    1  A    between atoms: C_1  and  O_2
REMARK    2  A    between atoms: O_2  and  C_3
REMARK    3  A    between atoms: C_9  and  C_10
REMARK    4  A    between atoms: N_14  and  C_15
REMARK    5  A    between atoms: C_18  and  C_19
REMARK                            x       y       z     vdW  Elec       q    Type
REMARK                         _______ _______ _______ _____ _____    ______ ____
ROOT
ATOM      1  C   UNL     1       1.710  13.662  18.895  0.00  0.00    +0.000 A 
ATOM      2  C   UNL     1       1.705  15.053  18.802  0.00  0.00    +0.000 A 
ATOM      3  C   UNL     1       1.005  15.816  19.743  0.00  0.00    +0.000 A 
ATOM      4  C   UNL     1       0.280  15.194  20.763  0.00  0.00    +0.000 A 
ATOM      5  C   UNL     1       0.252  13.803  20.850  0.00  0.00    +0.000 A 
ATOM      6  C   UNL     1      -0.514  13.104  21.871  0.00  0.00    +0.000 A 
ATOM      7  C   UNL     1      -0.561  11.759  21.914  0.00  0.00    +0.000 A 
ATOM      8  C   UNL     1       0.195  10.951  20.926  0.00  0.00    +0.000 A 
ATOM      9  N   UNL     1       0.139   9.651  20.897  0.00  0.00    +0.000 NA
ATOM     10  O   UNL     1       0.999  11.657  20.038  0.00  0.00    +0.000 OA
ATOM     11  C   UNL     1       0.979  13.061  19.927  0.00  0.00    +0.000 A 
ENDROOT
BRANCH   9  12
ATOM     12  C   UNL     1       0.934   8.901  20.012  0.00  0.00    +0.000 A 
ATOM     13  C   UNL     1       1.496   7.723  20.503  0.00  0.00    +0.000 A 
ATOM     14  C   UNL     1       2.357   6.953  19.714  0.00  0.00    +0.000 A 
ATOM     15  C   UNL     1       2.684   7.335  18.402  0.00  0.00    +0.000 A 
ATOM     16  C   UNL     1       2.063   8.486  17.898  0.00  0.00    +0.000 A 
ATOM     17  C   UNL     1       1.182   9.240  18.681  0.00  0.00    +0.000 A 
BRANCH  15  18
ATOM     18  C   UNL     1       3.663   6.568  17.601  0.00  0.00    +0.000 A 
ATOM     19  C   UNL     1       4.660   7.220  16.852  0.00  0.00    +0.000 A 
ATOM     20  C   UNL     1       5.541   6.504  16.038  0.00  0.00    +0.000 A 
ATOM     21  C   UNL     1       5.459   5.117  15.971  0.00  0.00    +0.000 A 
ATOM     22  C   UNL     1       4.502   4.443  16.724  0.00  0.00    +0.000 A 
ATOM     23  C   UNL     1       3.613   5.164  17.532  0.00  0.00    +0.000 A 
ENDBRANCH  15  18
ENDBRANCH   9  12
BRANCH   7  24
ATOM     24  C   UNL     1      -1.376  11.169  23.019  0.00  0.00    +0.000 C 
ATOM     25  N   UNL     1      -0.937   9.997  23.549  0.00  0.00    +0.000 N 
ATOM     26  O   UNL     1      -2.395  11.694  23.457  0.00  0.00    +0.000 OA
ATOM     27  H   UNL     1      -0.115   9.520  23.181  0.00  0.00    +0.000 HD
ATOM     28  H   UNL     1      -1.469   9.563  24.293  0.00  0.00    +0.000 HD
ENDBRANCH   7  24
BRANCH   1  30
ATOM     29  C   UNL     1       3.741  13.064  17.847  0.00  0.00    +0.000 C 
ATOM     30  O   UNL     1       2.345  12.833  18.008  0.00  0.00    +0.000 OA
ENDBRANCH   1  30
TORSDOF 4
ENDMDL
MODEL 9
REMARK VINA RESULT:      -7.3      3.935      9.365
REMARK  Name = 
REMARK  5 active torsions:
REMARK  status: ('A' for Active; 'I' for Inactive)
REMARK    1  A    between atoms: C_1  and  O_2
REMARK    2  A    between atoms: O_2  and  C_3
REMARK    3  A    between atoms: C_9  and  C_10
REMARK    4  A    between atoms: N_14  and  C_15
REMARK    5  A    between atoms: C_18  and  C_19
REMARK                            x       y       z     vdW  Elec       q    Type
REMARK                         _______ _______ _______ _____ _____    ______ ____
ROOT
ATOM      1  C   UNL     1       2.528  13.817  19.624  0.00  0.00    +0.000 A 
ATOM      2  C   UNL     1       2.779  15.186  19.691  0.00  0.00    +0.000 A 
ATOM      3  C   UNL     1       2.087  15.982  20.610  0.00  0.00    +0.000 A 
ATOM      4  C   UNL     1       1.119  15.420  21.447  0.00  0.00    +0.000 A 
ATOM      5  C   UNL     1       0.837  14.058  21.370  0.00  0.00    +0.000 A 
ATOM      6  C   UNL     1      -0.185  13.429  22.193  0.00  0.00    +0.000 A 
ATOM      7  C   UNL     1      -0.472  12.119  22.075  0.00  0.00    +0.000 A 
ATOM      8  C   UNL     1       0.274  11.272  21.111  0.00  0.00    +0.000 A 
ATOM      9  N   UNL     1      -0.002  10.014  20.927  0.00  0.00    +0.000 NA
ATOM     10  O   UNL     1       1.313  11.889  20.425  0.00  0.00    +0.000 OA
ATOM     11  C   UNL     1       1.555  13.275  20.474  0.00  0.00    +0.000 A 
ENDROOT
BRANCH   9  12
ATOM     12  C   UNL     1       0.775   9.208  20.076  0.00  0.00    +0.000 A 
ATOM     13  C   UNL     1       1.351   8.066  20.631  0.00  0.00    +0.000 A 
ATOM     14  C   UNL     1       2.197   7.246  19.875  0.00  0.00    +0.000 A 
ATOM     15  C   UNL     1       2.494   7.541  18.534  0.00  0.00    +0.000 A 
ATOM     16  C   UNL     1       1.859   8.656  17.969  0.00  0.00    +0.000 A 
ATOM     17  C   UNL     1       0.993   9.459  18.721  0.00  0.00    +0.000 A 
BRANCH  15  18
ATOM     18  C   UNL     1       3.457   6.725  17.765  0.00  0.00    +0.000 A 
ATOM     19  C   UNL     1       3.351   5.322  17.722  0.00  0.00    +0.000 A 
ATOM     20  C   UNL     1       4.299   4.542  17.057  0.00  0.00    +0.000 A 
ATOM     21  C   UNL     1       5.365   5.148  16.400  0.00  0.00    +0.000 A 
ATOM     22  C   UNL     1       5.479   6.536  16.399  0.00  0.00    +0.000 A 
ATOM     23  C   UNL     1       4.531   7.315  17.076  0.00  0.00    +0.000 A 
ENDBRANCH  15  18
ENDBRANCH   9  12
BRANCH   7  24
ATOM     24  C   UNL     1      -1.535  11.597  22.988  0.00  0.00    +0.000 C 
ATOM     25  N   UNL     1      -1.377  10.332  23.458  0.00  0.00    +0.000 N 
ATOM     26  O   UNL     1      -2.515  12.256  23.322  0.00  0.00    +0.000 OA
ATOM     27  H   UNL     1      -0.592   9.750  23.169  0.00  0.00    +0.000 HD
ATOM     28  H   UNL     1      -2.082   9.943  24.071  0.00  0.00    +0.000 HD
ENDBRANCH   7  24
BRANCH   1  30
ATOM     29  C   UNL     1       2.417  12.714  17.538  0.00  0.00    +0.000 C 
ATOM     30  O   UNL     1       3.137  12.963  18.740  0.00  0.00    +0.000 OA
ENDBRANCH   1  30
TORSDOF 4
ENDMDL
