MODEL 1
REMARK VINA RESULT:      -8.0      0.000      0.000
REMARK  Name = 
REMARK  8 active torsions:
REMARK  status: ('A' for Active; 'I' for Inactive)
REMARK    1  A    between atoms: C_1  and  O_2
REMARK    2  A    between atoms: O_2  and  C_3
REMARK    3  A    between atoms: C_3  and  C_5
REMARK    4  A    between atoms: C_5  and  N_6
REMARK    5  A    between atoms: C_8  and  C_9
REMARK    6  A    between atoms: N_10  and  N_11
REMARK    7  A    between atoms: C_12  and  C_14
REMARK    8  A    between atoms: C_17  and  C_18
REMARK                            x       y       z     vdW  Elec       q    Type
REMARK                         _______ _______ _______ _____ _____    ______ ____
ROOT
ATOM      1  C   UNL     1       2.464   7.582  18.147  0.00  0.00    +0.000 C 
ATOM      2  N   UNL     1       2.141   7.912  19.357  0.00  0.00    +0.000 NA
ENDROOT
BRANCH   1   5
ATOM      3  N   UNL     1       4.995   5.054  17.531  0.00  0.00    +0.000 N 
ATOM      4  C   UNL     1       4.589   6.355  17.628  0.00  0.00    +0.000 A 
ATOM      5  C   UNL     1       3.241   6.379  17.928  0.00  0.00    +0.000 A 
ATOM      6  C   UNL     1       2.807   5.014  17.979  0.00  0.00    +0.000 A 
ATOM      7  C   UNL     1       1.567   4.384  18.231  0.00  0.00    +0.000 A 
ATOM      8  C   UNL     1       1.475   2.988  18.196  0.00  0.00    +0.000 A 
ATOM      9  C   UNL     1       2.594   2.211  17.911  0.00  0.00    +0.000 A 
ATOM     10  C   UNL     1       3.833   2.805  17.663  0.00  0.00    +0.000 A 
ATOM     11  C   UNL     1       3.920   4.207  17.710  0.00  0.00    +0.000 A 
BRANCH   3  12
ATOM     12  C   UNL     1       6.383   4.653  17.363  0.00  0.00    +0.000 C 
BRANCH  12  13
ATOM     13  C   UNL     1       6.853   4.751  15.936  0.00  0.00    +0.000 C 
ATOM     14  O   UNL     1       7.546   5.635  15.454  0.00  0.00    +0.000 OA
BRANCH  13  16
ATOM     15  C   UNL     1       6.003   3.994  13.889  0.00  0.00    +0.000 C 
ATOM     16  O   UNL     1       6.370   3.680  15.234  0.00  0.00    +0.000 OA
ENDBRANCH  13  16
ENDBRANCH  12  13
ENDBRANCH   3  12
ENDBRANCH   1   5
BRANCH   2  17
ATOM     17  N   UNL     1       1.392   9.045  19.489  0.00  0.00    +0.000 N 
ATOM     18  C   UNL     1       0.502   9.171  20.547  0.00  0.00    +0.000 C 
ATOM     19  O   UNL     1       0.335   8.332  21.428  0.00  0.00    +0.000 OA
ATOM     20  H   UNL     1       1.480   9.779  18.792  0.00  0.00    +0.000 HD
BRANCH  18  21
ATOM     21  C   UNL     1      -0.309  10.423  20.589  0.00  0.00    +0.000 A 
ATOM     22  C   UNL     1      -0.254  11.230  21.738  0.00  0.00    +0.000 A 
ATOM     23  C   UNL     1      -1.025  12.396  21.830  0.00  0.00    +0.000 A 
ATOM     24  C   UNL     1      -1.861  12.772  20.774  0.00  0.00    +0.000 A 
ATOM     25  C   UNL     1      -1.909  11.984  19.621  0.00  0.00    +0.000 A 
ATOM     26  C   UNL     1      -1.139  10.823  19.539  0.00  0.00    +0.000 A 
ATOM     27  F   UNL     1      -1.229  10.097  18.414  0.00  0.00    +0.000 F 
BRANCH  24  28
ATOM     28  C   UNL     1      -2.675  13.949  20.871  0.00  0.00    +0.000 C 
ATOM     29  N   UNL     1      -3.345  14.893  20.940  0.00  0.00    +0.000 NA
ENDBRANCH  24  28
ENDBRANCH  18  21
ENDBRANCH   2  17
TORSDOF 7
ENDMDL
MODEL 2
REMARK VINA RESULT:      -8.0      1.519      2.043
REMARK  Name = 
REMARK  8 active torsions:
REMARK  status: ('A' for Active; 'I' for Inactive)
REMARK    1  A    between atoms: C_1  and  O_2
REMARK    2  A    between atoms: O_2  and  C_3
REMARK    3  A    between atoms: C_3  and  C_5
REMARK    4  A    between atoms: C_5  and  N_6
REMARK    5  A    between atoms: C_8  and  C_9
REMARK    6  A    between atoms: N_10  and  N_11
REMARK    7  A    between atoms: C_12  and  C_14
REMARK    8  A    between atoms: C_17  and  C_18
REMARK                            x       y       z     vdW  Elec       q    Type
REMARK                         _______ _______ _______ _____ _____    ______ ____
ROOT
ATOM      1  C   UNL     1       2.330   7.498  18.638  0.00  0.00    +0.000 C 
ATOM      2  N   UNL     1       2.049   7.605  19.898  0.00  0.00    +0.000 NA
ENDROOT
BRANCH   1   5
ATOM      3  N   UNL     1       4.415   4.922  17.156  0.00  0.00    +0.000 N 
ATOM      4  C   UNL     1       4.099   6.232  17.391  0.00  0.00    +0.000 A 
ATOM      5  C   UNL     1       2.950   6.281  18.155  0.00  0.00    +0.000 A 
ATOM      6  C   UNL     1       2.534   4.925  18.360  0.00  0.00    +0.000 A 
ATOM      7  C   UNL     1       1.454   4.319  19.041  0.00  0.00    +0.000 A 
ATOM      8  C   UNL     1       1.326   2.925  19.043  0.00  0.00    +0.000 A 
ATOM      9  C   UNL     1       2.250   2.127  18.376  0.00  0.00    +0.000 A 
ATOM     10  C   UNL     1       3.330   2.697  17.698  0.00  0.00    +0.000 A 
ATOM     11  C   UNL     1       3.458   4.097  17.710  0.00  0.00    +0.000 A 
BRANCH   3  12
ATOM     12  C   UNL     1       5.641   4.494  16.501  0.00  0.00    +0.000 C 
BRANCH  12  13
ATOM     13  C   UNL     1       6.863   5.207  17.019  0.00  0.00    +0.000 C 
ATOM     14  O   UNL     1       7.487   6.092  16.453  0.00  0.00    +0.000 OA
BRANCH  13  16
ATOM     15  C   UNL     1       7.421   5.697  19.239  0.00  0.00    +0.000 C 
ATOM     16  O   UNL     1       7.189   4.697  18.246  0.00  0.00    +0.000 OA
ENDBRANCH  13  16
ENDBRANCH  12  13
ENDBRANCH   3  12
ENDBRANCH   1   5
BRANCH   2  17
ATOM     17  N   UNL     1       1.448   8.769  20.280  0.00  0.00    +0.000 N 
ATOM     18  C   UNL     1       0.268   8.736  21.010  0.00  0.00    +0.000 C 
ATOM     19  O   UNL     1      -0.298   7.712  21.383  0.00  0.00    +0.000 OA
ATOM     20  H   UNL     1       1.864   9.654  20.002  0.00  0.00    +0.000 HD
BRANCH  18  21
ATOM     21  C   UNL     1      -0.344  10.054  21.347  0.00  0.00    +0.000 A 
ATOM     22  C   UNL     1      -0.711  10.919  20.302  0.00  0.00    +0.000 A 
ATOM     23  C   UNL     1      -1.258  12.179  20.577  0.00  0.00    +0.000 A 
ATOM     24  C   UNL     1      -1.446  12.591  21.900  0.00  0.00    +0.000 A 
ATOM     25  C   UNL     1      -1.099  11.731  22.945  0.00  0.00    +0.000 A 
ATOM     26  C   UNL     1      -0.553  10.479  22.661  0.00  0.00    +0.000 A 
ATOM     27  F   UNL     1      -0.227   9.694  23.701  0.00  0.00    +0.000 F 
BRANCH  24  28
ATOM     28  C   UNL     1      -1.980  13.891  22.191  0.00  0.00    +0.000 C 
ATOM     29  N   UNL     1      -2.397  14.948  22.419  0.00  0.00    +0.000 NA
ENDBRANCH  24  28
ENDBRANCH  18  21
ENDBRANCH   2  17
TORSDOF 7
ENDMDL
MODEL 3
REMARK VINA RESULT:      -8.0      1.322      1.603
REMARK  Name = 
REMARK  8 active torsions:
REMARK  status: ('A' for Active; 'I' for Inactive)
REMARK    1  A    between atoms: C_1  and  O_2
REMARK    2  A    between atoms: O_2  and  C_3
REMARK    3  A    between atoms: C_3  and  C_5
REMARK    4  A    between atoms: C_5  and  N_6
REMARK    5  A    between atoms: C_8  and  C_9
REMARK    6  A    between atoms: N_10  and  N_11
REMARK    7  A    between atoms: C_12  and  C_14
REMARK    8  A    between atoms: C_17  and  C_18
REMARK                            x       y       z     vdW  Elec       q    Type
REMARK                         _______ _______ _______ _____ _____    ______ ____
ROOT
ATOM      1  C   UNL     1       2.408   7.547  18.673  0.00  0.00    +0.000 C 
ATOM      2  N   UNL     1       2.116   7.679  19.928  0.00  0.00    +0.000 NA
ENDROOT
BRANCH   1   5
ATOM      3  N   UNL     1       4.723   5.034  17.447  0.00  0.00    +0.000 N 
ATOM      4  C   UNL     1       4.381   6.330  17.715  0.00  0.00    +0.000 A 
ATOM      5  C   UNL     1       3.100   6.354  18.232  0.00  0.00    +0.000 A 
ATOM      6  C   UNL     1       2.635   4.998  18.239  0.00  0.00    +0.000 A 
ATOM      7  C   UNL     1       1.431   4.373  18.637  0.00  0.00    +0.000 A 
ATOM      8  C   UNL     1       1.289   2.986  18.501  0.00  0.00    +0.000 A 
ATOM      9  C   UNL     1       2.320   2.216  17.975  0.00  0.00    +0.000 A 
ATOM     10  C   UNL     1       3.523   2.805  17.579  0.00  0.00    +0.000 A 
ATOM     11  C   UNL     1       3.663   4.196  17.727  0.00  0.00    +0.000 A 
BRANCH   3  12
ATOM     12  C   UNL     1       6.052   4.622  17.023  0.00  0.00    +0.000 C 
BRANCH  12  13
ATOM     13  C   UNL     1       6.717   5.627  16.119  0.00  0.00    +0.000 C 
ATOM     14  O   UNL     1       7.612   6.402  16.422  0.00  0.00    +0.000 OA
BRANCH  13  16
ATOM     15  C   UNL     1       6.776   4.595  14.018  0.00  0.00    +0.000 C 
ATOM     16  O   UNL     1       6.151   5.551  14.876  0.00  0.00    +0.000 OA
ENDBRANCH  13  16
ENDBRANCH  12  13
ENDBRANCH   3  12
ENDBRANCH   1   5
BRANCH   2  17
ATOM     17  N   UNL     1       1.448   8.818  20.271  0.00  0.00    +0.000 N 
ATOM     18  C   UNL     1       0.332   8.749  21.094  0.00  0.00    +0.000 C 
ATOM     19  O   UNL     1      -0.115   7.716  21.584  0.00  0.00    +0.000 OA
ATOM     20  H   UNL     1       1.765   9.708  19.897  0.00  0.00    +0.000 HD
BRANCH  18  21
ATOM     21  C   UNL     1      -0.364  10.037  21.381  0.00  0.00    +0.000 A 
ATOM     22  C   UNL     1      -0.757  10.851  20.305  0.00  0.00    +0.000 A 
ATOM     23  C   UNL     1      -1.384  12.083  20.533  0.00  0.00    +0.000 A 
ATOM     24  C   UNL     1      -1.627  12.517  21.840  0.00  0.00    +0.000 A 
ATOM     25  C   UNL     1      -1.254  11.707  22.915  0.00  0.00    +0.000 A 
ATOM     26  C   UNL     1      -0.628  10.482  22.678  0.00  0.00    +0.000 A 
ATOM     27  F   UNL     1      -0.281   9.746  23.746  0.00  0.00    +0.000 F 
BRANCH  24  28
ATOM     28  C   UNL     1      -2.243  13.790  22.083  0.00  0.00    +0.000 C 
ATOM     29  N   UNL     1      -2.738  14.816  22.297  0.00  0.00    +0.000 NA
ENDBRANCH  24  28
ENDBRANCH  18  21
ENDBRANCH   2  17
TORSDOF 7
ENDMDL
MODEL 4
REMARK VINA RESULT:      -7.9      1.746      2.037
REMARK  Name = 
REMARK  8 active torsions:
REMARK  status: ('A' for Active; 'I' for Inactive)
REMARK    1  A    between atoms: C_1  and  O_2
REMARK    2  A    between atoms: O_2  and  C_3
REMARK    3  A    between atoms: C_3  and  C_5
REMARK    4  A    between atoms: C_5  and  N_6
REMARK    5  A    between atoms: C_8  and  C_9
REMARK    6  A    between atoms: N_10  and  N_11
REMARK    7  A    between atoms: C_12  and  C_14
REMARK    8  A    between atoms: C_17  and  C_18
REMARK                            x       y       z     vdW  Elec       q    Type
REMARK                         _______ _______ _______ _____ _____    ______ ____
ROOT
ATOM      1  C   UNL     1       2.154   7.143  19.823  0.00  0.00    +0.000 C 
ATOM      2  N   UNL     1       1.823   8.289  19.317  0.00  0.00    +0.000 NA
ENDROOT
BRANCH   1   5
ATOM      3  N   UNL     1       4.037   5.140  17.452  0.00  0.00    +0.000 N 
ATOM      4  C   UNL     1       3.750   6.326  18.069  0.00  0.00    +0.000 A 
ATOM      5  C   UNL     1       2.710   6.125  18.956  0.00  0.00    +0.000 A 
ATOM      6  C   UNL     1       2.329   4.748  18.836  0.00  0.00    +0.000 A 
ATOM      7  C   UNL     1       1.349   3.941  19.458  0.00  0.00    +0.000 A 
ATOM      8  C   UNL     1       1.226   2.594  19.098  0.00  0.00    +0.000 A 
ATOM      9  C   UNL     1       2.058   2.040  18.130  0.00  0.00    +0.000 A 
ATOM     10  C   UNL     1       3.039   2.811  17.503  0.00  0.00    +0.000 A 
ATOM     11  C   UNL     1       3.163   4.160  17.877  0.00  0.00    +0.000 A 
BRANCH   3  12
ATOM     12  C   UNL     1       5.168   4.950  16.559  0.00  0.00    +0.000 C 
BRANCH  12  13
ATOM     13  C   UNL     1       6.445   4.625  17.288  0.00  0.00    +0.000 C 
ATOM     14  O   UNL     1       6.562   4.367  18.478  0.00  0.00    +0.000 OA
BRANCH  13  16
ATOM     15  C   UNL     1       7.078   4.715  15.036  0.00  0.00    +0.000 C 
ATOM     16  O   UNL     1       7.488   4.670  16.404  0.00  0.00    +0.000 OA
ENDBRANCH  13  16
ENDBRANCH  12  13
ENDBRANCH   3  12
ENDBRANCH   1   5
BRANCH   2  17
ATOM     17  N   UNL     1       1.324   9.209  20.192  0.00  0.00    +0.000 N 
ATOM     18  C   UNL     1       0.268  10.027  19.815  0.00  0.00    +0.000 C 
ATOM     19  O   UNL     1      -0.302   9.981  18.728  0.00  0.00    +0.000 OA
ATOM     20  H   UNL     1       1.752   9.301  21.109  0.00  0.00    +0.000 HD
BRANCH  18  21
ATOM     21  C   UNL     1      -0.184  11.035  20.818  0.00  0.00    +0.000 A 
ATOM     22  C   UNL     1      -0.058  12.401  20.512  0.00  0.00    +0.000 A 
ATOM     23  C   UNL     1      -0.440  13.378  21.440  0.00  0.00    +0.000 A 
ATOM     24  C   UNL     1      -0.955  13.004  22.685  0.00  0.00    +0.000 A 
ATOM     25  C   UNL     1      -1.100  11.648  22.991  0.00  0.00    +0.000 A 
ATOM     26  C   UNL     1      -0.714  10.681  22.061  0.00  0.00    +0.000 A 
ATOM     27  F   UNL     1      -0.864   9.393  22.407  0.00  0.00    +0.000 F 
BRANCH  24  28
ATOM     28  C   UNL     1      -1.324  13.998  23.652  0.00  0.00    +0.000 C 
ATOM     29  N   UNL     1      -1.607  14.810  24.429  0.00  0.00    +0.000 NA
ENDBRANCH  24  28
ENDBRANCH  18  21
ENDBRANCH   2  17
TORSDOF 7
ENDMDL
MODEL 5
REMARK VINA RESULT:      -7.8      2.100      2.202
REMARK  Name = 
REMARK  8 active torsions:
REMARK  status: ('A' for Active; 'I' for Inactive)
REMARK    1  A    between atoms: C_1  and  O_2
REMARK    2  A    between atoms: O_2  and  C_3
REMARK    3  A    between atoms: C_3  and  C_5
REMARK    4  A    between atoms: C_5  and  N_6
REMARK    5  A    between atoms: C_8  and  C_9
REMARK    6  A    between atoms: N_10  and  N_11
REMARK    7  A    between atoms: C_12  and  C_14
REMARK    8  A    between atoms: C_17  and  C_18
REMARK                            x       y       z     vdW  Elec       q    Type
REMARK                         _______ _______ _______ _____ _____    ______ ____
ROOT
ATOM      1  C   UNL     1       3.265   8.007  17.840  0.00  0.00    +0.000 C 
ATOM      2  N   UNL     1       2.005   8.271  17.699  0.00  0.00    +0.000 NA
ENDROOT
BRANCH   1   5
ATOM      3  N   UNL     1       4.773   4.789  17.099  0.00  0.00    +0.000 N 
ATOM      4  C   UNL     1       4.532   6.103  16.810  0.00  0.00    +0.000 A 
ATOM      5  C   UNL     1       3.707   6.629  17.785  0.00  0.00    +0.000 A 
ATOM      6  C   UNL     1       3.408   5.559  18.690  0.00  0.00    +0.000 A 
ATOM      7  C   UNL     1       2.631   5.453  19.866  0.00  0.00    +0.000 A 
ATOM      8  C   UNL     1       2.534   4.223  20.529  0.00  0.00    +0.000 A 
ATOM      9  C   UNL     1       3.193   3.100  20.038  0.00  0.00    +0.000 A 
ATOM     10  C   UNL     1       3.972   3.176  18.882  0.00  0.00    +0.000 A 
ATOM     11  C   UNL     1       4.073   4.415  18.228  0.00  0.00    +0.000 A 
BRANCH   3  12
ATOM     12  C   UNL     1       5.713   3.961  16.361  0.00  0.00    +0.000 C 
BRANCH  12  13
ATOM     13  C   UNL     1       7.128   4.474  16.430  0.00  0.00    +0.000 C 
ATOM     14  O   UNL     1       7.855   4.480  17.412  0.00  0.00    +0.000 OA
BRANCH  13  16
ATOM     15  C   UNL     1       6.682   4.457  14.131  0.00  0.00    +0.000 C 
ATOM     16  O   UNL     1       7.487   4.955  15.201  0.00  0.00    +0.000 OA
ENDBRANCH  13  16
ENDBRANCH  12  13
ENDBRANCH   3  12
ENDBRANCH   1   5
BRANCH   2  17
ATOM     17  N   UNL     1       1.660   9.590  17.741  0.00  0.00    +0.000 N 
ATOM     18  C   UNL     1       1.127  10.133  18.901  0.00  0.00    +0.000 C 
ATOM     19  O   UNL     1       0.952   9.517  19.949  0.00  0.00    +0.000 OA
ATOM     20  H   UNL     1       1.776  10.158  16.906  0.00  0.00    +0.000 HD
BRANCH  18  21
ATOM     21  C   UNL     1       0.736  11.572  18.844  0.00  0.00    +0.000 A 
ATOM     22  C   UNL     1       1.735  12.540  18.645  0.00  0.00    +0.000 A 
ATOM     23  C   UNL     1       1.414  13.904  18.619  0.00  0.00    +0.000 A 
ATOM     24  C   UNL     1       0.089  14.317  18.790  0.00  0.00    +0.000 A 
ATOM     25  C   UNL     1      -0.913  13.361  18.972  0.00  0.00    +0.000 A 
ATOM     26  C   UNL     1      -0.583  12.005  18.999  0.00  0.00    +0.000 A 
ATOM     27  F   UNL     1      -1.581  11.127  19.187  0.00  0.00    +0.000 F 
BRANCH  24  28
ATOM     28  C   UNL     1      -0.245  15.713  18.792  0.00  0.00    +0.000 C 
ATOM     29  N   UNL     1      -0.512  16.841  18.811  0.00  0.00    +0.000 NA
ENDBRANCH  24  28
ENDBRANCH  18  21
ENDBRANCH   2  17
TORSDOF 7
ENDMDL
MODEL 6
REMARK VINA RESULT:      -7.8      1.193      1.607
REMARK  Name = 
REMARK  8 active torsions:
REMARK  status: ('A' for Active; 'I' for Inactive)
REMARK    1  A    between atoms: C_1  and  O_2
REMARK    2  A    between atoms: O_2  and  C_3
REMARK    3  A    between atoms: C_3  and  C_5
REMARK    4  A    between atoms: C_5  and  N_6
REMARK    5  A    between atoms: C_8  and  C_9
REMARK    6  A    between atoms: N_10  and  N_11
REMARK    7  A    between atoms: C_12  and  C_14
REMARK    8  A    between atoms: C_17  and  C_18
REMARK                            x       y       z     vdW  Elec       q    Type
REMARK                         _______ _______ _______ _____ _____    ______ ____
ROOT
ATOM      1  C   UNL     1       2.452   7.785  18.507  0.00  0.00    +0.000 C 
ATOM      2  N   UNL     1       2.031   7.800  19.732  0.00  0.00    +0.000 NA
ENDROOT
BRANCH   1   5
ATOM      3  N   UNL     1       4.638   5.299  17.018  0.00  0.00    +0.000 N 
ATOM      4  C   UNL     1       4.295   6.593  17.292  0.00  0.00    +0.000 A 
ATOM      5  C   UNL     1       3.110   6.597  18.003  0.00  0.00    +0.000 A 
ATOM      6  C   UNL     1       2.703   5.228  18.130  0.00  0.00    +0.000 A 
ATOM      7  C   UNL     1       1.601   4.582  18.733  0.00  0.00    +0.000 A 
ATOM      8  C   UNL     1       1.491   3.187  18.669  0.00  0.00    +0.000 A 
ATOM      9  C   UNL     1       2.456   2.430  18.013  0.00  0.00    +0.000 A 
ATOM     10  C   UNL     1       3.559   3.041  17.413  0.00  0.00    +0.000 A 
ATOM     11  C   UNL     1       3.668   4.440  17.490  0.00  0.00    +0.000 A 
BRANCH   3  12
ATOM     12  C   UNL     1       5.899   4.914  16.404  0.00  0.00    +0.000 C 
BRANCH  12  13
ATOM     13  C   UNL     1       7.097   5.305  17.228  0.00  0.00    +0.000 C 
ATOM     14  O   UNL     1       7.535   4.717  18.206  0.00  0.00    +0.000 OA
BRANCH  13  16
ATOM     15  C   UNL     1       7.703   7.526  17.654  0.00  0.00    +0.000 C 
ATOM     16  O   UNL     1       7.636   6.452  16.714  0.00  0.00    +0.000 OA
ENDBRANCH  13  16
ENDBRANCH  12  13
ENDBRANCH   3  12
ENDBRANCH   1   5
BRANCH   2  17
ATOM     17  N   UNL     1       1.403   8.942  20.135  0.00  0.00    +0.000 N 
ATOM     18  C   UNL     1       0.299   8.871  20.973  0.00  0.00    +0.000 C 
ATOM     19  O   UNL     1      -0.172   7.831  21.427  0.00  0.00    +0.000 OA
ATOM     20  H   UNL     1       1.740   9.838  19.794  0.00  0.00    +0.000 HD
BRANCH  18  21
ATOM     21  C   UNL     1      -0.354  10.165  21.327  0.00  0.00    +0.000 A 
ATOM     22  C   UNL     1      -0.578  10.465  22.682  0.00  0.00    +0.000 A 
ATOM     23  C   UNL     1      -1.217  11.654  23.054  0.00  0.00    +0.000 A 
ATOM     24  C   UNL     1      -1.640  12.561  22.077  0.00  0.00    +0.000 A 
ATOM     25  C   UNL     1      -1.407  12.279  20.729  0.00  0.00    +0.000 A 
ATOM     26  C   UNL     1      -0.771  11.090  20.368  0.00  0.00    +0.000 A 
ATOM     27  F   UNL     1      -0.579  10.862  19.058  0.00  0.00    +0.000 F 
BRANCH  24  28
ATOM     28  C   UNL     1      -2.321  13.769  22.448  0.00  0.00    +0.000 C 
ATOM     29  N   UNL     1      -2.863  14.744  22.762  0.00  0.00    +0.000 NA
ENDBRANCH  24  28
ENDBRANCH  18  21
ENDBRANCH   2  17
TORSDOF 7
ENDMDL
MODEL 7
REMARK VINA RESULT:      -7.8      1.024      1.071
REMARK  Name = 
REMARK  8 active torsions:
REMARK  status: ('A' for Active; 'I' for Inactive)
REMARK    1  A    between atoms: C_1  and  O_2
REMARK    2  A    between atoms: O_2  and  C_3
REMARK    3  A    between atoms: C_3  and  C_5
REMARK    4  A    between atoms: C_5  and  N_6
REMARK    5  A    between atoms: C_8  and  C_9
REMARK    6  A    between atoms: N_10  and  N_11
REMARK    7  A    between atoms: C_12  and  C_14
REMARK    8  A    between atoms: C_17  and  C_18
REMARK                            x       y       z     vdW  Elec       q    Type
REMARK                         _______ _______ _______ _____ _____    ______ ____
ROOT
ATOM      1  C   UNL     1       2.388   7.466  18.638  0.00  0.00    +0.000 C 
ATOM      2  N   UNL     1       2.046   7.657  19.873  0.00  0.00    +0.000 NA
ENDROOT
BRANCH   1   5
ATOM      3  N   UNL     1       4.971   5.068  17.768  0.00  0.00    +0.000 N 
ATOM      4  C   UNL     1       4.536   6.345  17.992  0.00  0.00    +0.000 A 
ATOM      5  C   UNL     1       3.190   6.308  18.300  0.00  0.00    +0.000 A 
ATOM      6  C   UNL     1       2.788   4.934  18.222  0.00  0.00    +0.000 A 
ATOM      7  C   UNL     1       1.565   4.255  18.419  0.00  0.00    +0.000 A 
ATOM      8  C   UNL     1       1.505   2.866  18.250  0.00  0.00    +0.000 A 
ATOM      9  C   UNL     1       2.638   2.147  17.885  0.00  0.00    +0.000 A 
ATOM     10  C   UNL     1       3.862   2.791  17.689  0.00  0.00    +0.000 A 
ATOM     11  C   UNL     1       3.917   4.183  17.870  0.00  0.00    +0.000 A 
BRANCH   3  12
ATOM     12  C   UNL     1       6.366   4.718  17.555  0.00  0.00    +0.000 C 
BRANCH  12  13
ATOM     13  C   UNL     1       6.798   4.876  16.120  0.00  0.00    +0.000 C 
ATOM     14  O   UNL     1       7.412   5.819  15.642  0.00  0.00    +0.000 OA
BRANCH  13  16
ATOM     15  C   UNL     1       6.005   4.088  14.063  0.00  0.00    +0.000 C 
ATOM     16  O   UNL     1       6.383   3.785  15.407  0.00  0.00    +0.000 OA
ENDBRANCH  13  16
ENDBRANCH  12  13
ENDBRANCH   3  12
ENDBRANCH   1   5
BRANCH   2  17
ATOM     17  N   UNL     1       1.275   8.755  20.118  0.00  0.00    +0.000 N 
ATOM     18  C   UNL     1       1.121   9.222  21.416  0.00  0.00    +0.000 C 
ATOM     19  O   UNL     1       1.659   8.734  22.406  0.00  0.00    +0.000 OA
ATOM     20  H   UNL     1       0.798   9.207  19.342  0.00  0.00    +0.000 HD
BRANCH  18  21
ATOM     21  C   UNL     1       0.224  10.400  21.598  0.00  0.00    +0.000 A 
ATOM     22  C   UNL     1      -0.654  10.423  22.695  0.00  0.00    +0.000 A 
ATOM     23  C   UNL     1      -1.536  11.494  22.883  0.00  0.00    +0.000 A 
ATOM     24  C   UNL     1      -1.552  12.559  21.977  0.00  0.00    +0.000 A 
ATOM     25  C   UNL     1      -0.672  12.553  20.892  0.00  0.00    +0.000 A 
ATOM     26  C   UNL     1       0.202  11.480  20.712  0.00  0.00    +0.000 A 
ATOM     27  F   UNL     1       1.020  11.517  19.648  0.00  0.00    +0.000 F 
BRANCH  24  28
ATOM     28  C   UNL     1      -2.471  13.648  22.146  0.00  0.00    +0.000 C 
ATOM     29  N   UNL     1      -3.216  14.523  22.299  0.00  0.00    +0.000 NA
ENDBRANCH  24  28
ENDBRANCH  18  21
ENDBRANCH   2  17
TORSDOF 7
ENDMDL
MODEL 8
REMARK VINA RESULT:      -7.8      2.760      3.928
REMARK  Name = 
REMARK  8 active torsions:
REMARK  status: ('A' for Active; 'I' for Inactive)
REMARK    1  A    between atoms: C_1  and  O_2
REMARK    2  A    between atoms: O_2  and  C_3
REMARK    3  A    between atoms: C_3  and  C_5
REMARK    4  A    between atoms: C_5  and  N_6
REMARK    5  A    between atoms: C_8  and  C_9
REMARK    6  A    between atoms: N_10  and  N_11
REMARK    7  A    between atoms: C_12  and  C_14
REMARK    8  A    between atoms: C_17  and  C_18
REMARK                            x       y       z     vdW  Elec       q    Type
REMARK                         _______ _______ _______ _____ _____    ______ ____
ROOT
ATOM      1  C   UNL     1       2.994   8.029  17.878  0.00  0.00    +0.000 C 
ATOM      2  N   UNL     1       1.746   8.375  17.871  0.00  0.00    +0.000 NA
ENDROOT
BRANCH   1   5
ATOM      3  N   UNL     1       3.310   4.437  18.297  0.00  0.00    +0.000 N 
ATOM      4  C   UNL     1       2.787   5.650  18.647  0.00  0.00    +0.000 A 
ATOM      5  C   UNL     1       3.336   6.622  17.832  0.00  0.00    +0.000 A 
ATOM      6  C   UNL     1       4.268   5.957  16.970  0.00  0.00    +0.000 A 
ATOM      7  C   UNL     1       5.133   6.386  15.938  0.00  0.00    +0.000 A 
ATOM      8  C   UNL     1       5.945   5.456  15.278  0.00  0.00    +0.000 A 
ATOM      9  C   UNL     1       5.913   4.111  15.631  0.00  0.00    +0.000 A 
ATOM     10  C   UNL     1       5.065   3.656  16.643  0.00  0.00    +0.000 A 
ATOM     11  C   UNL     1       4.245   4.594  17.294  0.00  0.00    +0.000 A 
BRANCH   3  12
ATOM     12  C   UNL     1       2.854   3.173  18.853  0.00  0.00    +0.000 C 
BRANCH  12  13
ATOM     13  C   UNL     1       3.622   2.760  20.081  0.00  0.00    +0.000 C 
ATOM     14  O   UNL     1       4.759   2.313  20.116  0.00  0.00    +0.000 OA
BRANCH  13  16
ATOM     15  C   UNL     1       1.451   2.688  20.955  0.00  0.00    +0.000 C 
ATOM     16  O   UNL     1       2.836   2.954  21.184  0.00  0.00    +0.000 OA
ENDBRANCH  13  16
ENDBRANCH  12  13
ENDBRANCH   3  12
ENDBRANCH   1   5
BRANCH   2  17
ATOM     17  N   UNL     1       1.496   9.715  17.896  0.00  0.00    +0.000 N 
ATOM     18  C   UNL     1       1.036  10.316  19.060  0.00  0.00    +0.000 C 
ATOM     19  O   UNL     1       0.849   9.733  20.124  0.00  0.00    +0.000 OA
ATOM     20  H   UNL     1       1.627  10.259  17.047  0.00  0.00    +0.000 HD
BRANCH  18  21
ATOM     21  C   UNL     1       0.745  11.778  18.985  0.00  0.00    +0.000 A 
ATOM     22  C   UNL     1      -0.540  12.233  19.328  0.00  0.00    +0.000 A 
ATOM     23  C   UNL     1      -0.863  13.593  19.239  0.00  0.00    +0.000 A 
ATOM     24  C   UNL     1       0.094  14.516  18.808  0.00  0.00    +0.000 A 
ATOM     25  C   UNL     1       1.378  14.075  18.480  0.00  0.00    +0.000 A 
ATOM     26  C   UNL     1       1.691  12.718  18.569  0.00  0.00    +0.000 A 
ATOM     27  F   UNL     1       2.936  12.344  18.234  0.00  0.00    +0.000 F 
BRANCH  24  28
ATOM     28  C   UNL     1      -0.237  15.908  18.687  0.00  0.00    +0.000 C 
ATOM     29  N   UNL     1      -0.489  17.035  18.597  0.00  0.00    +0.000 NA
ENDBRANCH  24  28
ENDBRANCH  18  21
ENDBRANCH   2  17
TORSDOF 7
ENDMDL
MODEL 9
REMARK VINA RESULT:      -7.7      2.323      2.454
REMARK  Name = 
REMARK  8 active torsions:
REMARK  status: ('A' for Active; 'I' for Inactive)
REMARK    1  A    between atoms: C_1  and  O_2
REMARK    2  A    between atoms: O_2  and  C_3
REMARK    3  A    between atoms: C_3  and  C_5
REMARK    4  A    between atoms: C_5  and  N_6
REMARK    5  A    between atoms: C_8  and  C_9
REMARK    6  A    between atoms: N_10  and  N_11
REMARK    7  A    between atoms: C_12  and  C_14
REMARK    8  A    between atoms: C_17  and  C_18
REMARK                            x       y       z     vdW  Elec       q    Type
REMARK                         _______ _______ _______ _____ _____    ______ ____
ROOT
ATOM      1  C   UNL     1       3.096   8.163  17.989  0.00  0.00    +0.000 C 
ATOM      2  N   UNL     1       1.873   8.482  17.705  0.00  0.00    +0.000 NA
ENDROOT
BRANCH   1   5
ATOM      3  N   UNL     1       4.570   4.922  17.285  0.00  0.00    +0.000 N 
ATOM      4  C   UNL     1       4.409   6.255  17.028  0.00  0.00    +0.000 A 
ATOM      5  C   UNL     1       3.495   6.772  17.925  0.00  0.00    +0.000 A 
ATOM      6  C   UNL     1       3.057   5.679  18.743  0.00  0.00    +0.000 A 
ATOM      7  C   UNL     1       2.147   5.557  19.817  0.00  0.00    +0.000 A 
ATOM      8  C   UNL     1       1.933   4.306  20.410  0.00  0.00    +0.000 A 
ATOM      9  C   UNL     1       2.606   3.180  19.948  0.00  0.00    +0.000 A 
ATOM     10  C   UNL     1       3.515   3.270  18.892  0.00  0.00    +0.000 A 
ATOM     11  C   UNL     1       3.732   4.531  18.309  0.00  0.00    +0.000 A 
BRANCH   3  12
ATOM     12  C   UNL     1       5.560   4.088  16.623  0.00  0.00    +0.000 C 
BRANCH  12  13
ATOM     13  C   UNL     1       6.975   4.508  16.920  0.00  0.00    +0.000 C 
ATOM     14  O   UNL     1       7.566   4.386  17.984  0.00  0.00    +0.000 OA
BRANCH  13  16
ATOM     15  C   UNL     1       6.934   4.605  14.581  0.00  0.00    +0.000 C 
ATOM     16  O   UNL     1       7.517   5.073  15.799  0.00  0.00    +0.000 OA
ENDBRANCH  13  16
ENDBRANCH  12  13
ENDBRANCH   3  12
ENDBRANCH   1   5
BRANCH   2  17
ATOM     17  N   UNL     1       1.571   9.811  17.767  0.00  0.00    +0.000 N 
ATOM     18  C   UNL     1       1.133  10.371  18.959  0.00  0.00    +0.000 C 
ATOM     19  O   UNL     1       1.011   9.761  20.018  0.00  0.00    +0.000 OA
ATOM     20  H   UNL     1       1.647  10.374  16.924  0.00  0.00    +0.000 HD
BRANCH  18  21
ATOM     21  C   UNL     1       0.781  11.820  18.924  0.00  0.00    +0.000 A 
ATOM     22  C   UNL     1      -0.539  12.206  19.212  0.00  0.00    +0.000 A 
ATOM     23  C   UNL     1      -0.918  13.553  19.158  0.00  0.00    +0.000 A 
ATOM     24  C   UNL     1       0.018  14.534  18.816  0.00  0.00    +0.000 A 
ATOM     25  C   UNL     1       1.337  14.162  18.544  0.00  0.00    +0.000 A 
ATOM     26  C   UNL     1       1.705  12.816  18.599  0.00  0.00    +0.000 A 
ATOM     27  F   UNL     1       2.982  12.510  18.319  0.00  0.00    +0.000 F 
BRANCH  24  28
ATOM     28  C   UNL     1      -0.368  15.913  18.731  0.00  0.00    +0.000 C 
ATOM     29  N   UNL     1      -0.663  17.032  18.662  0.00  0.00    +0.000 NA
ENDBRANCH  24  28
ENDBRANCH  18  21
ENDBRANCH   2  17
TORSDOF 7
ENDMDL
