MODEL 1
REMARK VINA RESULT:      -7.8      0.000      0.000
REMARK  Name = 
REMARK  10 active torsions:
REMARK  status: ('A' for Active; 'I' for Inactive)
REMARK    1  A    between atoms: O_1  and  C_2
REMARK    2  A    between atoms: C_2  and  C_3
REMARK    3  A    between atoms: C_3  and  N_4
REMARK    4  A    between atoms: N_4  and  C_5
REMARK    5  A    between atoms: N_4  and  C_12
REMARK    6  A    between atoms: C_5  and  C_6
REMARK    7  A    between atoms: C_12  and  C_13
REMARK    8  A    between atoms: C_16  and  O_17
REMARK    9  A    between atoms: O_17  and  C_18
REMARK   10  A    between atoms: C_18  and  C_19
REMARK                            x       y       z     vdW  Elec       q    Type
REMARK                         _______ _______ _______ _____ _____    ______ ____
ROOT
ATOM      1  C   UNL     1       1.983   6.645  20.106  0.00  0.00    +0.000 A 
ATOM      2  N   UNL     1       2.520   6.161  19.003  0.00  0.00    +0.000 NA
ATOM      3  C   UNL     1       2.234   4.808  18.998  0.00  0.00    +0.000 A 
ATOM      4  C   UNL     1       2.523   3.812  18.038  0.00  0.00    +0.000 A 
ATOM      5  C   UNL     1       2.052   2.510  18.297  0.00  0.00    +0.000 A 
ATOM      6  C   UNL     1       1.336   2.205  19.460  0.00  0.00    +0.000 A 
ATOM      7  C   UNL     1       1.069   3.178  20.422  0.00  0.00    +0.000 A 
ATOM      8  C   UNL     1       1.535   4.463  20.152  0.00  0.00    +0.000 A 
ATOM      9  N   UNL     1       1.442   5.633  20.860  0.00  0.00    +0.000 N 
ATOM     10  H   UNL     1       0.993   5.740  21.757  0.00  0.00    +0.000 HD
ENDROOT
BRANCH   1  11
ATOM     11  C   UNL     1       1.898   8.081  20.545  0.00  0.00    +0.000 C 
BRANCH  11  12
ATOM     12  N   UNL     1       0.588   8.721  20.253  0.00  0.00    +0.000 NA
BRANCH  12  13
ATOM     13  C   UNL     1      -0.118   9.027  21.524  0.00  0.00    +0.000 C 
BRANCH  13  14
ATOM     14  C   UNL     1       0.753   9.346  22.750  0.00  0.00    +0.000 C 
BRANCH  14  15
ATOM     15  O   UNL     1      -0.053  10.008  23.727  0.00  0.00    +0.000 OA
ATOM     16  H   UNL     1      -0.368  10.834  23.321  0.00  0.00    +0.000 HD
ENDBRANCH  14  15
ENDBRANCH  13  14
ENDBRANCH  12  13
BRANCH  12  17
ATOM     17  C   UNL     1       0.785   9.943  19.454  0.00  0.00    +0.000 C 
BRANCH  17  18
ATOM     18  C   UNL     1      -0.438  10.462  18.723  0.00  0.00    +0.000 A 
ATOM     19  C   UNL     1      -0.995   9.768  17.645  0.00  0.00    +0.000 A 
ATOM     20  C   UNL     1      -2.185  10.231  17.095  0.00  0.00    +0.000 A 
ATOM     21  N   UNL     1      -2.839  11.328  17.537  0.00  0.00    +0.000 NA
ATOM     22  C   UNL     1      -2.271  12.000  18.557  0.00  0.00    +0.000 A 
ATOM     23  C   UNL     1      -1.092  11.614  19.174  0.00  0.00    +0.000 A 
ENDBRANCH  17  18
ENDBRANCH  12  17
ENDBRANCH  11  12
ENDBRANCH   1  11
BRANCH   4  24
ATOM     24  O   UNL     1       3.234   4.178  16.923  0.00  0.00    +0.000 OA
BRANCH  24  25
ATOM     25  C   UNL     1       4.586   3.725  16.846  0.00  0.00    +0.000 C 
BRANCH  25  26
ATOM     26  C   UNL     1       5.381   4.604  15.865  0.00  0.00    +0.000 C 
ATOM     27  C   UNL     1       5.113   6.095  16.131  0.00  0.00    +0.000 C 
ATOM     28  C   UNL     1       5.745   6.583  17.435  0.00  0.00    +0.000 C 
ATOM     29  C   UNL     1       7.238   6.274  17.490  0.00  0.00    +0.000 C 
ATOM     30  C   UNL     1       7.543   4.804  17.207  0.00  0.00    +0.000 C 
ATOM     31  C   UNL     1       6.893   4.327  15.910  0.00  0.00    +0.000 C 
ENDBRANCH  25  26
ENDBRANCH  24  25
ENDBRANCH   4  24
TORSDOF 10
ENDMDL
MODEL 2
REMARK VINA RESULT:      -7.8      0.886      1.269
REMARK  Name = 
REMARK  10 active torsions:
REMARK  status: ('A' for Active; 'I' for Inactive)
REMARK    1  A    between atoms: O_1  and  C_2
REMARK    2  A    between atoms: C_2  and  C_3
REMARK    3  A    between atoms: C_3  and  N_4
REMARK    4  A    between atoms: N_4  and  C_5
REMARK    5  A    between atoms: N_4  and  C_12
REMARK    6  A    between atoms: C_5  and  C_6
REMARK    7  A    between atoms: C_12  and  C_13
REMARK    8  A    between atoms: C_16  and  O_17
REMARK    9  A    between atoms: O_17  and  C_18
REMARK   10  A    between atoms: C_18  and  C_19
REMARK                            x       y       z     vdW  Elec       q    Type
REMARK                         _______ _______ _______ _____ _____    ______ ____
ROOT
ATOM      1  C   UNL     1       2.143   7.311  19.617  0.00  0.00    +0.000 A 
ATOM      2  N   UNL     1       2.563   6.539  18.633  0.00  0.00    +0.000 NA
ATOM      3  C   UNL     1       2.301   5.239  19.028  0.00  0.00    +0.000 A 
ATOM      4  C   UNL     1       2.499   4.015  18.347  0.00  0.00    +0.000 A 
ATOM      5  C   UNL     1       2.082   2.840  19.001  0.00  0.00    +0.000 A 
ATOM      6  C   UNL     1       1.504   2.871  20.275  0.00  0.00    +0.000 A 
ATOM      7  C   UNL     1       1.328   4.073  20.961  0.00  0.00    +0.000 A 
ATOM      8  C   UNL     1       1.740   5.230  20.302  0.00  0.00    +0.000 A 
ATOM      9  N   UNL     1       1.707   6.549  20.672  0.00  0.00    +0.000 N 
ATOM     10  H   UNL     1       1.358   6.902  21.551  0.00  0.00    +0.000 HD
ENDROOT
BRANCH   1  11
ATOM     11  C   UNL     1       2.083   8.813  19.656  0.00  0.00    +0.000 C 
BRANCH  11  12
ATOM     12  N   UNL     1       0.712   9.354  19.849  0.00  0.00    +0.000 NA
BRANCH  12  13
ATOM     13  C   UNL     1       0.594   9.959  21.201  0.00  0.00    +0.000 C 
BRANCH  13  14
ATOM     14  C   UNL     1      -0.376   9.289  22.186  0.00  0.00    +0.000 C 
BRANCH  14  15
ATOM     15  O   UNL     1      -0.728   7.999  21.680  0.00  0.00    +0.000 OA
ATOM     16  H   UNL     1       0.050   7.427  21.798  0.00  0.00    +0.000 HD
ENDBRANCH  14  15
ENDBRANCH  13  14
ENDBRANCH  12  13
BRANCH  12  17
ATOM     17  C   UNL     1       0.402  10.343  18.802  0.00  0.00    +0.000 C 
BRANCH  17  18
ATOM     18  C   UNL     1      -1.066  10.515  18.465  0.00  0.00    +0.000 A 
ATOM     19  C   UNL     1      -1.855  11.480  19.100  0.00  0.00    +0.000 A 
ATOM     20  C   UNL     1      -3.160  11.669  18.661  0.00  0.00    +0.000 A 
ATOM     21  N   UNL     1      -3.724  10.966  17.655  0.00  0.00    +0.000 NA
ATOM     22  C   UNL     1      -2.958  10.021  17.076  0.00  0.00    +0.000 A 
ATOM     23  C   UNL     1      -1.646   9.762  17.438  0.00  0.00    +0.000 A 
ENDBRANCH  17  18
ENDBRANCH  12  17
ENDBRANCH  11  12
ENDBRANCH   1  11
BRANCH   4  24
ATOM     24  O   UNL     1       3.076   4.056  17.103  0.00  0.00    +0.000 OA
BRANCH  24  25
ATOM     25  C   UNL     1       4.455   3.694  17.023  0.00  0.00    +0.000 C 
BRANCH  25  26
ATOM     26  C   UNL     1       5.157   4.533  15.942  0.00  0.00    +0.000 C 
ATOM     27  C   UNL     1       4.995   6.035  16.229  0.00  0.00    +0.000 C 
ATOM     28  C   UNL     1       5.812   6.494  17.437  0.00  0.00    +0.000 C 
ATOM     29  C   UNL     1       7.284   6.115  17.302  0.00  0.00    +0.000 C 
ATOM     30  C   UNL     1       7.480   4.632  16.993  0.00  0.00    +0.000 C 
ATOM     31  C   UNL     1       6.647   4.185  15.794  0.00  0.00    +0.000 C 
ENDBRANCH  25  26
ENDBRANCH  24  25
ENDBRANCH   4  24
TORSDOF 10
ENDMDL
MODEL 3
REMARK VINA RESULT:      -7.5      2.146      8.231
REMARK  Name = 
REMARK  10 active torsions:
REMARK  status: ('A' for Active; 'I' for Inactive)
REMARK    1  A    between atoms: O_1  and  C_2
REMARK    2  A    between atoms: C_2  and  C_3
REMARK    3  A    between atoms: C_3  and  N_4
REMARK    4  A    between atoms: N_4  and  C_5
REMARK    5  A    between atoms: N_4  and  C_12
REMARK    6  A    between atoms: C_5  and  C_6
REMARK    7  A    between atoms: C_12  and  C_13
REMARK    8  A    between atoms: C_16  and  O_17
REMARK    9  A    between atoms: O_17  and  C_18
REMARK   10  A    between atoms: C_18  and  C_19
REMARK                            x       y       z     vdW  Elec       q    Type
REMARK                         _______ _______ _______ _____ _____    ______ ____
ROOT
ATOM      1  C   UNL     1       2.293   7.495  19.135  0.00  0.00    +0.000 A 
ATOM      2  N   UNL     1       1.692   8.546  18.611  0.00  0.00    +0.000 NA
ATOM      3  C   UNL     1       1.110   9.222  19.669  0.00  0.00    +0.000 A 
ATOM      4  C   UNL     1       0.385  10.436  19.695  0.00  0.00    +0.000 A 
ATOM      5  C   UNL     1      -0.047  10.901  20.952  0.00  0.00    +0.000 A 
ATOM      6  C   UNL     1       0.218  10.194  22.130  0.00  0.00    +0.000 A 
ATOM      7  C   UNL     1       0.912   8.984  22.108  0.00  0.00    +0.000 A 
ATOM      8  C   UNL     1       1.339   8.536  20.858  0.00  0.00    +0.000 A 
ATOM      9  N   UNL     1       2.038   7.420  20.482  0.00  0.00    +0.000 N 
ATOM     10  H   UNL     1       2.365   6.696  21.105  0.00  0.00    +0.000 HD
ENDROOT
BRANCH   1  11
ATOM     11  C   UNL     1       3.173   6.491  18.445  0.00  0.00    +0.000 C 
BRANCH  11  12
ATOM     12  N   UNL     1       3.285   5.195  19.166  0.00  0.00    +0.000 NA
BRANCH  12  13
ATOM     13  C   UNL     1       2.369   4.197  18.555  0.00  0.00    +0.000 C 
BRANCH  13  14
ATOM     14  C   UNL     1       1.249   3.637  19.446  0.00  0.00    +0.000 C 
BRANCH  14  15
ATOM     15  O   UNL     1       0.914   4.615  20.433  0.00  0.00    +0.000 OA
ATOM     16  H   UNL     1       1.218   4.267  21.290  0.00  0.00    +0.000 HD
ENDBRANCH  14  15
ENDBRANCH  13  14
ENDBRANCH  12  13
BRANCH  12  17
ATOM     17  C   UNL     1       4.678   4.716  19.140  0.00  0.00    +0.000 C 
BRANCH  17  18
ATOM     18  C   UNL     1       5.521   5.193  17.974  0.00  0.00    +0.000 A 
ATOM     19  C   UNL     1       6.417   6.259  18.106  0.00  0.00    +0.000 A 
ATOM     20  C   UNL     1       7.248   6.570  17.036  0.00  0.00    +0.000 A 
ATOM     21  N   UNL     1       7.240   5.904  15.861  0.00  0.00    +0.000 NA
ATOM     22  C   UNL     1       6.350   4.900  15.742  0.00  0.00    +0.000 A 
ATOM     23  C   UNL     1       5.485   4.512  16.752  0.00  0.00    +0.000 A 
ENDBRANCH  17  18
ENDBRANCH  12  17
ENDBRANCH  11  12
ENDBRANCH   1  11
BRANCH   4  24
ATOM     24  O   UNL     1       0.155  11.076  18.503  0.00  0.00    +0.000 OA
BRANCH  24  25
ATOM     25  C   UNL     1      -1.190  11.473  18.237  0.00  0.00    +0.000 C 
BRANCH  25  26
ATOM     26  C   UNL     1      -2.060  10.234  17.964  0.00  0.00    +0.000 C 
ATOM     27  C   UNL     1      -3.514  10.484  18.401  0.00  0.00    +0.000 C 
ATOM     28  C   UNL     1      -4.239  11.475  17.490  0.00  0.00    +0.000 C 
ATOM     29  C   UNL     1      -4.169  11.052  16.025  0.00  0.00    +0.000 C 
ATOM     30  C   UNL     1      -2.740  10.773  15.564  0.00  0.00    +0.000 C 
ATOM     31  C   UNL     1      -2.023   9.794  16.492  0.00  0.00    +0.000 C 
ENDBRANCH  25  26
ENDBRANCH  24  25
ENDBRANCH   4  24
TORSDOF 10
ENDMDL
MODEL 4
REMARK VINA RESULT:      -7.4      0.767      1.351
REMARK  Name = 
REMARK  10 active torsions:
REMARK  status: ('A' for Active; 'I' for Inactive)
REMARK    1  A    between atoms: O_1  and  C_2
REMARK    2  A    between atoms: C_2  and  C_3
REMARK    3  A    between atoms: C_3  and  N_4
REMARK    4  A    between atoms: N_4  and  C_5
REMARK    5  A    between atoms: N_4  and  C_12
REMARK    6  A    between atoms: C_5  and  C_6
REMARK    7  A    between atoms: C_12  and  C_13
REMARK    8  A    between atoms: C_16  and  O_17
REMARK    9  A    between atoms: O_17  and  C_18
REMARK   10  A    between atoms: C_18  and  C_19
REMARK                            x       y       z     vdW  Elec       q    Type
REMARK                         _______ _______ _______ _____ _____    ______ ____
ROOT
ATOM      1  C   UNL     1       2.062   7.037  19.792  0.00  0.00    +0.000 A 
ATOM      2  N   UNL     1       2.336   6.268  18.756  0.00  0.00    +0.000 NA
ATOM      3  C   UNL     1       2.148   4.966  19.183  0.00  0.00    +0.000 A 
ATOM      4  C   UNL     1       2.253   3.745  18.479  0.00  0.00    +0.000 A 
ATOM      5  C   UNL     1       1.949   2.565  19.186  0.00  0.00    +0.000 A 
ATOM      6  C   UNL     1       1.569   2.592  20.533  0.00  0.00    +0.000 A 
ATOM      7  C   UNL     1       1.488   3.791  21.239  0.00  0.00    +0.000 A 
ATOM      8  C   UNL     1       1.785   4.952  20.527  0.00  0.00    +0.000 A 
ATOM      9  N   UNL     1       1.796   6.271  20.900  0.00  0.00    +0.000 N 
ATOM     10  H   UNL     1       1.581   6.620  21.821  0.00  0.00    +0.000 HD
ENDROOT
BRANCH   1  11
ATOM     11  C   UNL     1       1.995   8.538  19.842  0.00  0.00    +0.000 C 
BRANCH  11  12
ATOM     12  N   UNL     1       0.733   9.063  20.427  0.00  0.00    +0.000 NA
BRANCH  12  13
ATOM     13  C   UNL     1       0.833   9.077  21.910  0.00  0.00    +0.000 C 
BRANCH  13  14
ATOM     14  C   UNL     1      -0.456   9.367  22.696  0.00  0.00    +0.000 C 
BRANCH  14  15
ATOM     15  O   UNL     1      -0.293  10.595  23.409  0.00  0.00    +0.000 OA
ATOM     16  H   UNL     1      -0.965  11.212  23.068  0.00  0.00    +0.000 HD
ENDBRANCH  14  15
ENDBRANCH  13  14
ENDBRANCH  12  13
BRANCH  12  17
ATOM     17  C   UNL     1       0.453  10.413  19.908  0.00  0.00    +0.000 C 
BRANCH  17  18
ATOM     18  C   UNL     1      -0.787  10.548  19.046  0.00  0.00    +0.000 A 
ATOM     19  C   UNL     1      -1.822  11.426  19.385  0.00  0.00    +0.000 A 
ATOM     20  C   UNL     1      -2.875  11.593  18.493  0.00  0.00    +0.000 A 
ATOM     21  N   UNL     1      -2.967  10.948  17.310  0.00  0.00    +0.000 NA
ATOM     22  C   UNL     1      -1.975  10.085  17.014  0.00  0.00    +0.000 A 
ATOM     23  C   UNL     1      -0.883   9.854  17.835  0.00  0.00    +0.000 A 
ENDBRANCH  17  18
ENDBRANCH  12  17
ENDBRANCH  11  12
ENDBRANCH   1  11
BRANCH   4  24
ATOM     24  O   UNL     1       2.635   3.790  17.162  0.00  0.00    +0.000 OA
BRANCH  24  25
ATOM     25  C   UNL     1       4.030   3.645  16.893  0.00  0.00    +0.000 C 
BRANCH  25  26
ATOM     26  C   UNL     1       4.645   5.013  16.553  0.00  0.00    +0.000 C 
ATOM     27  C   UNL     1       5.541   5.507  17.701  0.00  0.00    +0.000 C 
ATOM     28  C   UNL     1       6.835   4.701  17.826  0.00  0.00    +0.000 C 
ATOM     29  C   UNL     1       7.603   4.658  16.508  0.00  0.00    +0.000 C 
ATOM     30  C   UNL     1       6.736   4.193  15.340  0.00  0.00    +0.000 C 
ATOM     31  C   UNL     1       5.441   4.997  15.237  0.00  0.00    +0.000 C 
ENDBRANCH  25  26
ENDBRANCH  24  25
ENDBRANCH   4  24
TORSDOF 10
ENDMDL
MODEL 5
REMARK VINA RESULT:      -7.4      1.005      1.201
REMARK  Name = 
REMARK  10 active torsions:
REMARK  status: ('A' for Active; 'I' for Inactive)
REMARK    1  A    between atoms: O_1  and  C_2
REMARK    2  A    between atoms: C_2  and  C_3
REMARK    3  A    between atoms: C_3  and  N_4
REMARK    4  A    between atoms: N_4  and  C_5
REMARK    5  A    between atoms: N_4  and  C_12
REMARK    6  A    between atoms: C_5  and  C_6
REMARK    7  A    between atoms: C_12  and  C_13
REMARK    8  A    between atoms: C_16  and  O_17
REMARK    9  A    between atoms: O_17  and  C_18
REMARK   10  A    between atoms: C_18  and  C_19
REMARK                            x       y       z     vdW  Elec       q    Type
REMARK                         _______ _______ _______ _____ _____    ______ ____
ROOT
ATOM      1  C   UNL     1       1.893   7.316  20.329  0.00  0.00    +0.000 A 
ATOM      2  N   UNL     1       2.430   6.875  19.208  0.00  0.00    +0.000 NA
ATOM      3  C   UNL     1       2.398   5.494  19.284  0.00  0.00    +0.000 A 
ATOM      4  C   UNL     1       2.797   4.513  18.347  0.00  0.00    +0.000 A 
ATOM      5  C   UNL     1       2.593   3.165  18.699  0.00  0.00    +0.000 A 
ATOM      6  C   UNL     1       2.029   2.802  19.927  0.00  0.00    +0.000 A 
ATOM      7  C   UNL     1       1.657   3.764  20.866  0.00  0.00    +0.000 A 
ATOM      8  C   UNL     1       1.858   5.095  20.504  0.00  0.00    +0.000 A 
ATOM      9  N   UNL     1       1.603   6.267  21.166  0.00  0.00    +0.000 N 
ATOM     10  H   UNL     1       1.207   6.342  22.091  0.00  0.00    +0.000 HD
ENDROOT
BRANCH   1  11
ATOM     11  C   UNL     1       1.577   8.735  20.710  0.00  0.00    +0.000 C 
BRANCH  11  12
ATOM     12  N   UNL     1       0.144   9.097  20.544  0.00  0.00    +0.000 NA
BRANCH  12  13
ATOM     13  C   UNL     1      -0.563   8.966  21.844  0.00  0.00    +0.000 C 
BRANCH  13  14
ATOM     14  C   UNL     1      -0.421  10.128  22.839  0.00  0.00    +0.000 C 
BRANCH  14  15
ATOM     15  O   UNL     1       0.386   9.698  23.938  0.00  0.00    +0.000 OA
ATOM     16  H   UNL     1       0.049   8.827  24.212  0.00  0.00    +0.000 HD
ENDBRANCH  14  15
ENDBRANCH  13  14
ENDBRANCH  12  13
BRANCH  12  17
ATOM     17  C   UNL     1       0.022  10.467  20.015  0.00  0.00    +0.000 C 
BRANCH  17  18
ATOM     18  C   UNL     1      -1.038  10.675  18.952  0.00  0.00    +0.000 A 
ATOM     19  C   UNL     1      -1.023   9.956  17.752  0.00  0.00    +0.000 A 
ATOM     20  C   UNL     1      -2.088  10.104  16.871  0.00  0.00    +0.000 A 
ATOM     21  N   UNL     1      -3.143  10.915  17.099  0.00  0.00    +0.000 NA
ATOM     22  C   UNL     1      -3.125  11.622  18.245  0.00  0.00    +0.000 A 
ATOM     23  C   UNL     1      -2.113  11.539  19.188  0.00  0.00    +0.000 A 
ENDBRANCH  17  18
ENDBRANCH  12  17
ENDBRANCH  11  12
ENDBRANCH   1  11
BRANCH   4  24
ATOM     24  O   UNL     1       3.347   4.938  17.164  0.00  0.00    +0.000 OA
BRANCH  24  25
ATOM     25  C   UNL     1       4.482   5.799  17.256  0.00  0.00    +0.000 C 
BRANCH  25  26
ATOM     26  C   UNL     1       5.777   4.979  17.119  0.00  0.00    +0.000 C 
ATOM     27  C   UNL     1       6.874   5.808  16.430  0.00  0.00    +0.000 C 
ATOM     28  C   UNL     1       7.410   6.930  17.320  0.00  0.00    +0.000 C 
ATOM     29  C   UNL     1       7.885   6.402  18.671  0.00  0.00    +0.000 C 
ATOM     30  C   UNL     1       6.826   5.553  19.373  0.00  0.00    +0.000 C 
ATOM     31  C   UNL     1       6.290   4.447  18.467  0.00  0.00    +0.000 C 
ENDBRANCH  25  26
ENDBRANCH  24  25
ENDBRANCH   4  24
TORSDOF 10
ENDMDL
MODEL 6
REMARK VINA RESULT:      -7.4      0.812      1.243
REMARK  Name = 
REMARK  10 active torsions:
REMARK  status: ('A' for Active; 'I' for Inactive)
REMARK    1  A    between atoms: O_1  and  C_2
REMARK    2  A    between atoms: C_2  and  C_3
REMARK    3  A    between atoms: C_3  and  N_4
REMARK    4  A    between atoms: N_4  and  C_5
REMARK    5  A    between atoms: N_4  and  C_12
REMARK    6  A    between atoms: C_5  and  C_6
REMARK    7  A    between atoms: C_12  and  C_13
REMARK    8  A    between atoms: C_16  and  O_17
REMARK    9  A    between atoms: O_17  and  C_18
REMARK   10  A    between atoms: C_18  and  C_19
REMARK                            x       y       z     vdW  Elec       q    Type
REMARK                         _______ _______ _______ _____ _____    ______ ____
ROOT
ATOM      1  C   UNL     1       2.154   7.033  19.607  0.00  0.00    +0.000 A 
ATOM      2  N   UNL     1       2.914   6.229  18.888  0.00  0.00    +0.000 NA
ATOM      3  C   UNL     1       2.555   4.942  19.242  0.00  0.00    +0.000 A 
ATOM      4  C   UNL     1       3.008   3.695  18.754  0.00  0.00    +0.000 A 
ATOM      5  C   UNL     1       2.409   2.537  19.287  0.00  0.00    +0.000 A 
ATOM      6  C   UNL     1       1.412   2.609  20.267  0.00  0.00    +0.000 A 
ATOM      7  C   UNL     1       0.978   3.835  20.770  0.00  0.00    +0.000 A 
ATOM      8  C   UNL     1       1.574   4.973  20.231  0.00  0.00    +0.000 A 
ATOM      9  N   UNL     1       1.384   6.307  20.482  0.00  0.00    +0.000 N 
ATOM     10  H   UNL     1       0.736   6.689  21.155  0.00  0.00    +0.000 HD
ENDROOT
BRANCH   1  11
ATOM     11  C   UNL     1       2.053   8.530  19.529  0.00  0.00    +0.000 C 
BRANCH  11  12
ATOM     12  N   UNL     1       0.852   9.087  20.206  0.00  0.00    +0.000 NA
BRANCH  12  13
ATOM     13  C   UNL     1       1.082   9.146  21.673  0.00  0.00    +0.000 C 
BRANCH  13  14
ATOM     14  C   UNL     1      -0.156   9.300  22.571  0.00  0.00    +0.000 C 
BRANCH  14  15
ATOM     15  O   UNL     1       0.266   9.719  23.870  0.00  0.00    +0.000 OA
ATOM     16  H   UNL     1      -0.071   9.062  24.503  0.00  0.00    +0.000 HD
ENDBRANCH  14  15
ENDBRANCH  13  14
ENDBRANCH  12  13
BRANCH  12  17
ATOM     17  C   UNL     1       0.538  10.423  19.670  0.00  0.00    +0.000 C 
BRANCH  17  18
ATOM     18  C   UNL     1      -0.765  10.540  18.903  0.00  0.00    +0.000 A 
ATOM     19  C   UNL     1      -1.776  11.417  19.308  0.00  0.00    +0.000 A 
ATOM     20  C   UNL     1      -2.895  11.568  18.496  0.00  0.00    +0.000 A 
ATOM     21  N   UNL     1      -3.072  10.906  17.332  0.00  0.00    +0.000 NA
ATOM     22  C   UNL     1      -2.101  10.044  16.974  0.00  0.00    +0.000 A 
ATOM     23  C   UNL     1      -0.948   9.830  17.712  0.00  0.00    +0.000 A 
ENDBRANCH  17  18
ENDBRANCH  12  17
ENDBRANCH  11  12
ENDBRANCH   1  11
BRANCH   4  24
ATOM     24  O   UNL     1       3.992   3.696  17.797  0.00  0.00    +0.000 OA
BRANCH  24  25
ATOM     25  C   UNL     1       5.311   4.024  18.234  0.00  0.00    +0.000 C 
BRANCH  25  26
ATOM     26  C   UNL     1       6.190   4.386  17.024  0.00  0.00    +0.000 C 
ATOM     27  C   UNL     1       5.603   5.589  16.266  0.00  0.00    +0.000 C 
ATOM     28  C   UNL     1       5.737   6.898  17.045  0.00  0.00    +0.000 C 
ATOM     29  C   UNL     1       7.182   7.162  17.461  0.00  0.00    +0.000 C 
ATOM     30  C   UNL     1       7.805   5.977  18.198  0.00  0.00    +0.000 C 
ATOM     31  C   UNL     1       7.649   4.675  17.415  0.00  0.00    +0.000 C 
ENDBRANCH  25  26
ENDBRANCH  24  25
ENDBRANCH   4  24
TORSDOF 10
ENDMDL
MODEL 7
REMARK VINA RESULT:      -7.3      2.793      8.043
REMARK  Name = 
REMARK  10 active torsions:
REMARK  status: ('A' for Active; 'I' for Inactive)
REMARK    1  A    between atoms: O_1  and  C_2
REMARK    2  A    between atoms: C_2  and  C_3
REMARK    3  A    between atoms: C_3  and  N_4
REMARK    4  A    between atoms: N_4  and  C_5
REMARK    5  A    between atoms: N_4  and  C_12
REMARK    6  A    between atoms: C_5  and  C_6
REMARK    7  A    between atoms: C_12  and  C_13
REMARK    8  A    between atoms: C_16  and  O_17
REMARK    9  A    between atoms: O_17  and  C_18
REMARK   10  A    between atoms: C_18  and  C_19
REMARK                            x       y       z     vdW  Elec       q    Type
REMARK                         _______ _______ _______ _____ _____    ______ ____
ROOT
ATOM      1  C   UNL     1       4.040   5.602  17.598  0.00  0.00    +0.000 A 
ATOM      2  N   UNL     1       3.493   6.064  18.706  0.00  0.00    +0.000 NA
ATOM      3  C   UNL     1       2.557   5.123  19.094  0.00  0.00    +0.000 A 
ATOM      4  C   UNL     1       1.716   5.079  20.229  0.00  0.00    +0.000 A 
ATOM      5  C   UNL     1       0.889   3.948  20.376  0.00  0.00    +0.000 A 
ATOM      6  C   UNL     1       0.888   2.911  19.436  0.00  0.00    +0.000 A 
ATOM      7  C   UNL     1       1.697   2.960  18.302  0.00  0.00    +0.000 A 
ATOM      8  C   UNL     1       2.515   4.082  18.171  0.00  0.00    +0.000 A 
ATOM      9  N   UNL     1       3.420   4.441  17.207  0.00  0.00    +0.000 N 
ATOM     10  H   UNL     1       3.638   3.904  16.380  0.00  0.00    +0.000 HD
ENDROOT
BRANCH   1  11
ATOM     11  C   UNL     1       5.193   6.175  16.823  0.00  0.00    +0.000 C 
BRANCH  11  12
ATOM     12  N   UNL     1       6.333   5.233  16.659  0.00  0.00    +0.000 NA
BRANCH  12  13
ATOM     13  C   UNL     1       6.757   4.718  17.987  0.00  0.00    +0.000 C 
BRANCH  13  14
ATOM     14  C   UNL     1       7.756   5.572  18.783  0.00  0.00    +0.000 C 
BRANCH  14  15
ATOM     15  O   UNL     1       7.386   5.547  20.163  0.00  0.00    +0.000 OA
ATOM     16  H   UNL     1       6.670   6.198  20.276  0.00  0.00    +0.000 HD
ENDBRANCH  14  15
ENDBRANCH  13  14
ENDBRANCH  12  13
BRANCH  12  17
ATOM     17  C   UNL     1       5.955   4.127  15.762  0.00  0.00    +0.000 C 
BRANCH  17  18
ATOM     18  C   UNL     1       6.390   4.266  14.317  0.00  0.00    +0.000 A 
ATOM     19  C   UNL     1       7.408   5.149  13.940  0.00  0.00    +0.000 A 
ATOM     20  C   UNL     1       7.843   5.142  12.620  0.00  0.00    +0.000 A 
ATOM     21  N   UNL     1       7.334   4.334  11.665  0.00  0.00    +0.000 NA
ATOM     22  C   UNL     1       6.334   3.512  12.040  0.00  0.00    +0.000 A 
ATOM     23  C   UNL     1       5.836   3.442  13.331  0.00  0.00    +0.000 A 
ENDBRANCH  17  18
ENDBRANCH  12  17
ENDBRANCH  11  12
ENDBRANCH   1  11
BRANCH   4  24
ATOM     24  O   UNL     1       1.763   6.131  21.109  0.00  0.00    +0.000 OA
BRANCH  24  25
ATOM     25  C   UNL     1       0.804   7.172  20.917  0.00  0.00    +0.000 C 
BRANCH  25  26
ATOM     26  C   UNL     1       1.491   8.545  21.009  0.00  0.00    +0.000 C 
ATOM     27  C   UNL     1       0.873   9.531  20.004  0.00  0.00    +0.000 C 
ATOM     28  C   UNL     1      -0.542   9.959  20.395  0.00  0.00    +0.000 C 
ATOM     29  C   UNL     1      -0.592  10.517  21.815  0.00  0.00    +0.000 C 
ATOM     30  C   UNL     1       0.036   9.571  22.838  0.00  0.00    +0.000 C 
ATOM     31  C   UNL     1       1.443   9.140  22.426  0.00  0.00    +0.000 C 
ENDBRANCH  25  26
ENDBRANCH  24  25
ENDBRANCH   4  24
TORSDOF 10
ENDMDL
MODEL 8
REMARK VINA RESULT:      -7.2      2.918      8.312
REMARK  Name = 
REMARK  10 active torsions:
REMARK  status: ('A' for Active; 'I' for Inactive)
REMARK    1  A    between atoms: O_1  and  C_2
REMARK    2  A    between atoms: C_2  and  C_3
REMARK    3  A    between atoms: C_3  and  N_4
REMARK    4  A    between atoms: N_4  and  C_5
REMARK    5  A    between atoms: N_4  and  C_12
REMARK    6  A    between atoms: C_5  and  C_6
REMARK    7  A    between atoms: C_12  and  C_13
REMARK    8  A    between atoms: C_16  and  O_17
REMARK    9  A    between atoms: O_17  and  C_18
REMARK   10  A    between atoms: C_18  and  C_19
REMARK                            x       y       z     vdW  Elec       q    Type
REMARK                         _______ _______ _______ _____ _____    ______ ____
ROOT
ATOM      1  C   UNL     1       4.297   6.254  16.962  0.00  0.00    +0.000 A 
ATOM      2  N   UNL     1       3.646   7.084  17.755  0.00  0.00    +0.000 NA
ATOM      3  C   UNL     1       3.016   6.297  18.702  0.00  0.00    +0.000 A 
ATOM      4  C   UNL     1       2.226   6.657  19.817  0.00  0.00    +0.000 A 
ATOM      5  C   UNL     1       1.755   5.614  20.638  0.00  0.00    +0.000 A 
ATOM      6  C   UNL     1       2.045   4.273  20.363  0.00  0.00    +0.000 A 
ATOM      7  C   UNL     1       2.803   3.910  19.250  0.00  0.00    +0.000 A 
ATOM      8  C   UNL     1       3.268   4.951  18.448  0.00  0.00    +0.000 A 
ATOM      9  N   UNL     1       4.031   4.953  17.310  0.00  0.00    +0.000 N 
ATOM     10  H   UNL     1       4.390   4.132  16.845  0.00  0.00    +0.000 HD
ENDROOT
BRANCH   1  11
ATOM     11  C   UNL     1       5.238   6.590  15.840  0.00  0.00    +0.000 C 
BRANCH  11  12
ATOM     12  N   UNL     1       6.667   6.326  16.155  0.00  0.00    +0.000 NA
BRANCH  12  13
ATOM     13  C   UNL     1       6.943   6.675  17.573  0.00  0.00    +0.000 C 
BRANCH  13  14
ATOM     14  C   UNL     1       7.808   7.919  17.832  0.00  0.00    +0.000 C 
BRANCH  14  15
ATOM     15  O   UNL     1       8.641   7.671  18.968  0.00  0.00    +0.000 OA
ATOM     16  H   UNL     1       9.064   6.807  18.825  0.00  0.00    +0.000 HD
ENDBRANCH  14  15
ENDBRANCH  13  14
ENDBRANCH  12  13
BRANCH  12  17
ATOM     17  C   UNL     1       6.997   4.916  15.887  0.00  0.00    +0.000 C 
BRANCH  17  18
ATOM     18  C   UNL     1       6.853   4.462  14.448  0.00  0.00    +0.000 A 
ATOM     19  C   UNL     1       5.841   3.580  14.056  0.00  0.00    +0.000 A 
ATOM     20  C   UNL     1       5.687   3.298  12.703  0.00  0.00    +0.000 A 
ATOM     21  N   UNL     1       6.469   3.821  11.733  0.00  0.00    +0.000 NA
ATOM     22  C   UNL     1       7.457   4.646  12.133  0.00  0.00    +0.000 A 
ATOM     23  C   UNL     1       7.686   4.991  13.456  0.00  0.00    +0.000 A 
ENDBRANCH  17  18
ENDBRANCH  12  17
ENDBRANCH  11  12
ENDBRANCH   1  11
BRANCH   4  24
ATOM     24  O   UNL     1       1.976   7.991  20.027  0.00  0.00    +0.000 OA
BRANCH  24  25
ATOM     25  C   UNL     1       1.409   8.347  21.288  0.00  0.00    +0.000 C 
BRANCH  25  26
ATOM     26  C   UNL     1      -0.077   8.703  21.115  0.00  0.00    +0.000 C 
ATOM     27  C   UNL     1      -0.775   8.804  22.482  0.00  0.00    +0.000 C 
ATOM     28  C   UNL     1      -0.338  10.034  23.277  0.00  0.00    +0.000 C 
ATOM     29  C   UNL     1      -0.516  11.319  22.472  0.00  0.00    +0.000 C 
ATOM     30  C   UNL     1       0.146  11.246  21.097  0.00  0.00    +0.000 C 
ATOM     31  C   UNL     1      -0.288  10.004  20.322  0.00  0.00    +0.000 C 
ENDBRANCH  25  26
ENDBRANCH  24  25
ENDBRANCH   4  24
TORSDOF 10
ENDMDL
MODEL 9
REMARK VINA RESULT:      -7.2      1.378      1.738
REMARK  Name = 
REMARK  10 active torsions:
REMARK  status: ('A' for Active; 'I' for Inactive)
REMARK    1  A    between atoms: O_1  and  C_2
REMARK    2  A    between atoms: C_2  and  C_3
REMARK    3  A    between atoms: C_3  and  N_4
REMARK    4  A    between atoms: N_4  and  C_5
REMARK    5  A    between atoms: N_4  and  C_12
REMARK    6  A    between atoms: C_5  and  C_6
REMARK    7  A    between atoms: C_12  and  C_13
REMARK    8  A    between atoms: C_16  and  O_17
REMARK    9  A    between atoms: O_17  and  C_18
REMARK   10  A    between atoms: C_18  and  C_19
REMARK                            x       y       z     vdW  Elec       q    Type
REMARK                         _______ _______ _______ _____ _____    ______ ____
ROOT
ATOM      1  C   UNL     1       1.883   7.749  19.655  0.00  0.00    +0.000 A 
ATOM      2  N   UNL     1       2.372   7.037  18.659  0.00  0.00    +0.000 NA
ATOM      3  C   UNL     1       2.455   5.736  19.121  0.00  0.00    +0.000 A 
ATOM      4  C   UNL     1       2.863   4.552  18.465  0.00  0.00    +0.000 A 
ATOM      5  C   UNL     1       2.791   3.351  19.198  0.00  0.00    +0.000 A 
ATOM      6  C   UNL     1       2.346   3.324  20.524  0.00  0.00    +0.000 A 
ATOM      7  C   UNL     1       1.966   4.492  21.185  0.00  0.00    +0.000 A 
ATOM      8  C   UNL     1       2.035   5.673  20.448  0.00  0.00    +0.000 A 
ATOM      9  N   UNL     1       1.736   6.969  20.775  0.00  0.00    +0.000 N 
ATOM     10  H   UNL     1       1.401   7.283  21.673  0.00  0.00    +0.000 HD
ENDROOT
BRANCH   1  11
ATOM     11  C   UNL     1       1.483   9.198  19.650  0.00  0.00    +0.000 C 
BRANCH  11  12
ATOM     12  N   UNL     1       0.187   9.466  20.326  0.00  0.00    +0.000 NA
BRANCH  12  13
ATOM     13  C   UNL     1       0.420  10.224  21.583  0.00  0.00    +0.000 C 
BRANCH  13  14
ATOM     14  C   UNL     1      -0.411   9.819  22.810  0.00  0.00    +0.000 C 
BRANCH  14  15
ATOM     15  O   UNL     1       0.466   9.651  23.926  0.00  0.00    +0.000 OA
ATOM     16  H   UNL     1       1.031  10.442  23.964  0.00  0.00    +0.000 HD
ENDBRANCH  14  15
ENDBRANCH  13  14
ENDBRANCH  12  13
BRANCH  12  17
ATOM     17  C   UNL     1      -0.715  10.206  19.426  0.00  0.00    +0.000 C 
BRANCH  17  18
ATOM     18  C   UNL     1      -0.657  11.718  19.525  0.00  0.00    +0.000 A 
ATOM     19  C   UNL     1       0.265  12.465  18.784  0.00  0.00    +0.000 A 
ATOM     20  C   UNL     1       0.188  13.853  18.826  0.00  0.00    +0.000 A 
ATOM     21  N   UNL     1      -0.726  14.532  19.553  0.00  0.00    +0.000 NA
ATOM     22  C   UNL     1      -1.586  13.796  20.283  0.00  0.00    +0.000 A 
ATOM     23  C   UNL     1      -1.592  12.410  20.302  0.00  0.00    +0.000 A 
ENDBRANCH  17  18
ENDBRANCH  12  17
ENDBRANCH  11  12
ENDBRANCH   1  11
BRANCH   4  24
ATOM     24  O   UNL     1       3.293   4.650  17.165  0.00  0.00    +0.000 OA
BRANCH  24  25
ATOM     25  C   UNL     1       4.459   3.904  16.818  0.00  0.00    +0.000 C 
BRANCH  25  26
ATOM     26  C   UNL     1       5.326   4.709  15.835  0.00  0.00    +0.000 C 
ATOM     27  C   UNL     1       5.165   6.219  16.079  0.00  0.00    +0.000 C 
ATOM     28  C   UNL     1       5.818   6.677  17.384  0.00  0.00    +0.000 C 
ATOM     29  C   UNL     1       7.284   6.260  17.459  0.00  0.00    +0.000 C 
ATOM     30  C   UNL     1       7.483   4.768  17.198  0.00  0.00    +0.000 C 
ATOM     31  C   UNL     1       6.813   4.323  15.899  0.00  0.00    +0.000 C 
ENDBRANCH  25  26
ENDBRANCH  24  25
ENDBRANCH   4  24
TORSDOF 10
ENDMDL
