MODEL 1
REMARK VINA RESULT:      -7.9      0.000      0.000
REMARK  Name = 
REMARK  6 active torsions:
REMARK  status: ('A' for Active; 'I' for Inactive)
REMARK    1  A    between atoms: C_1  and  C_2
REMARK    2  A    between atoms: C_5  and  N_6
REMARK    3  A    between atoms: C_9  and  N_10
REMARK    4  A    between atoms: N_10  and  C_11
REMARK    5  A    between atoms: N_10  and  C_12
REMARK    6  A    between atoms: C_18  and  C_19
REMARK                            x       y       z     vdW  Elec       q    Type
REMARK                         _______ _______ _______ _____ _____    ______ ____
ROOT
ATOM      1  N   UNL     1       4.724   3.021  16.538  0.00  0.00    +0.000 N 
ATOM      2  C   UNL     1       5.752   3.950  16.274  0.00  0.00    +0.000 A 
ATOM      3  C   UNL     1       6.282   4.708  17.302  0.00  0.00    +0.000 A 
ATOM      4  C   UNL     1       7.154   5.725  16.991  0.00  0.00    +0.000 A 
ATOM      5  N   UNL     1       7.558   5.873  15.719  0.00  0.00    +0.000 NA
ATOM      6  C   UNL     1       7.090   5.020  14.797  0.00  0.00    +0.000 A 
ATOM      7  N   UNL     1       7.537   5.188  13.500  0.00  0.00    +0.000 N 
ATOM      8  N   UNL     1       6.174   4.079  15.012  0.00  0.00    +0.000 NA
ATOM      9  H   UNL     1       4.400   2.632  15.655  0.00  0.00    +0.000 HD
ATOM     10  H   UNL     1       7.841   6.144  13.378  0.00  0.00    +0.000 HD
ATOM     11  H   UNL     1       6.841   4.836  12.858  0.00  0.00    +0.000 HD
ENDROOT
BRANCH   1  16
ATOM     12  C   UNL     1       0.668   3.809  20.518  0.00  0.00    +0.000 C 
ATOM     13  C   UNL     1       1.721   3.540  19.480  0.00  0.00    +0.000 A 
ATOM     14  C   UNL     1       1.497   3.952  18.163  0.00  0.00    +0.000 A 
ATOM     15  C   UNL     1       2.463   3.745  17.181  0.00  0.00    +0.000 A 
ATOM     16  C   UNL     1       3.697   3.163  17.495  0.00  0.00    +0.000 A 
ATOM     17  C   UNL     1       3.899   2.698  18.797  0.00  0.00    +0.000 A 
ATOM     18  C   UNL     1       2.928   2.884  19.799  0.00  0.00    +0.000 A 
ATOM     19  C   UNL     1       3.200   2.391  21.193  0.00  0.00    +0.000 C 
ENDBRANCH   1  16
BRANCH   4  20
ATOM     20  N   UNL     1       7.518   6.667  17.943  0.00  0.00    +0.000 N 
ATOM     21  C   UNL     1       8.101   6.300  19.227  0.00  0.00    +0.000 C 
ATOM     22  C   UNL     1       7.744   8.039  17.511  0.00  0.00    +0.000 C 
ENDBRANCH   4  20
TORSDOF 2
ENDMDL
MODEL 2
REMARK VINA RESULT:      -7.7      0.847      1.527
REMARK  Name = 
REMARK  6 active torsions:
REMARK  status: ('A' for Active; 'I' for Inactive)
REMARK    1  A    between atoms: C_1  and  C_2
REMARK    2  A    between atoms: C_5  and  N_6
REMARK    3  A    between atoms: C_9  and  N_10
REMARK    4  A    between atoms: N_10  and  C_11
REMARK    5  A    between atoms: N_10  and  C_12
REMARK    6  A    between atoms: C_18  and  C_19
REMARK                            x       y       z     vdW  Elec       q    Type
REMARK                         _______ _______ _______ _____ _____    ______ ____
ROOT
ATOM      1  N   UNL     1       4.758   2.941  16.494  0.00  0.00    +0.000 N 
ATOM      2  C   UNL     1       5.781   3.866  16.195  0.00  0.00    +0.000 A 
ATOM      3  C   UNL     1       6.409   4.558  17.214  0.00  0.00    +0.000 A 
ATOM      4  C   UNL     1       7.273   5.575  16.885  0.00  0.00    +0.000 A 
ATOM      5  N   UNL     1       7.576   5.786  15.594  0.00  0.00    +0.000 NA
ATOM      6  C   UNL     1       7.015   4.991  14.670  0.00  0.00    +0.000 A 
ATOM      7  N   UNL     1       7.358   5.221  13.351  0.00  0.00    +0.000 N 
ATOM      8  N   UNL     1       6.100   4.055  14.910  0.00  0.00    +0.000 NA
ATOM      9  H   UNL     1       4.355   2.606  15.622  0.00  0.00    +0.000 HD
ATOM     10  H   UNL     1       7.672   6.178  13.255  0.00  0.00    +0.000 HD
ATOM     11  H   UNL     1       6.605   4.916  12.751  0.00  0.00    +0.000 HD
ENDROOT
BRANCH   1  16
ATOM     12  C   UNL     1       0.749   3.444  20.568  0.00  0.00    +0.000 C 
ATOM     13  C   UNL     1       1.843   3.332  19.542  0.00  0.00    +0.000 A 
ATOM     14  C   UNL     1       2.190   2.068  19.057  0.00  0.00    +0.000 A 
ATOM     15  C   UNL     1       3.179   1.928  18.085  0.00  0.00    +0.000 A 
ATOM     16  C   UNL     1       3.816   3.049  17.539  0.00  0.00    +0.000 A 
ATOM     17  C   UNL     1       3.512   4.307  18.065  0.00  0.00    +0.000 A 
ATOM     18  C   UNL     1       2.527   4.466  19.059  0.00  0.00    +0.000 A 
ATOM     19  C   UNL     1       2.213   5.842  19.576  0.00  0.00    +0.000 C 
ENDBRANCH   1  16
BRANCH   4  20
ATOM     20  N   UNL     1       7.734   6.458  17.852  0.00  0.00    +0.000 N 
ATOM     21  C   UNL     1       7.718   7.903  17.667  0.00  0.00    +0.000 C 
ATOM     22  C   UNL     1       7.823   5.995  19.229  0.00  0.00    +0.000 C 
ENDBRANCH   4  20
TORSDOF 2
ENDMDL
MODEL 3
REMARK VINA RESULT:      -7.4      4.141      5.955
REMARK  Name = 
REMARK  6 active torsions:
REMARK  status: ('A' for Active; 'I' for Inactive)
REMARK    1  A    between atoms: C_1  and  C_2
REMARK    2  A    between atoms: C_5  and  N_6
REMARK    3  A    between atoms: C_9  and  N_10
REMARK    4  A    between atoms: N_10  and  C_11
REMARK    5  A    between atoms: N_10  and  C_12
REMARK    6  A    between atoms: C_18  and  C_19
REMARK                            x       y       z     vdW  Elec       q    Type
REMARK                         _______ _______ _______ _____ _____    ______ ____
ROOT
ATOM      1  N   UNL     1       3.192   7.411  17.930  0.00  0.00    +0.000 N 
ATOM      2  C   UNL     1       3.463   6.062  18.243  0.00  0.00    +0.000 A 
ATOM      3  C   UNL     1       2.429   5.206  18.575  0.00  0.00    +0.000 A 
ATOM      4  C   UNL     1       2.736   3.951  19.045  0.00  0.00    +0.000 A 
ATOM      5  N   UNL     1       4.017   3.551  19.051  0.00  0.00    +0.000 NA
ATOM      6  C   UNL     1       4.953   4.398  18.600  0.00  0.00    +0.000 A 
ATOM      7  N   UNL     1       6.261   3.952  18.603  0.00  0.00    +0.000 N 
ATOM      8  N   UNL     1       4.737   5.657  18.223  0.00  0.00    +0.000 NA
ATOM      9  H   UNL     1       4.075   7.902  17.807  0.00  0.00    +0.000 HD
ATOM     10  H   UNL     1       6.355   3.215  19.290  0.00  0.00    +0.000 HD
ATOM     11  H   UNL     1       6.885   4.742  18.682  0.00  0.00    +0.000 HD
ENDROOT
BRANCH   1  16
ATOM     12  C   UNL     1      -0.729  10.841  20.333  0.00  0.00    +0.000 C 
ATOM     13  C   UNL     1       0.262   9.892  19.718  0.00  0.00    +0.000 A 
ATOM     14  C   UNL     1       0.469   9.930  18.336  0.00  0.00    +0.000 A 
ATOM     15  C   UNL     1       1.401   9.085  17.736  0.00  0.00    +0.000 A 
ATOM     16  C   UNL     1       2.183   8.214  18.503  0.00  0.00    +0.000 A 
ATOM     17  C   UNL     1       1.935   8.134  19.875  0.00  0.00    +0.000 A 
ATOM     18  C   UNL     1       0.987   8.967  20.498  0.00  0.00    +0.000 A 
ATOM     19  C   UNL     1       0.773   8.865  21.982  0.00  0.00    +0.000 C 
ENDBRANCH   1  16
BRANCH   4  20
ATOM     20  N   UNL     1       1.761   3.150  19.623  0.00  0.00    +0.000 N 
ATOM     21  C   UNL     1       1.339   3.304  21.008  0.00  0.00    +0.000 C 
ATOM     22  C   UNL     1       0.832   2.448  18.750  0.00  0.00    +0.000 C 
ENDBRANCH   4  20
TORSDOF 2
ENDMDL
MODEL 4
REMARK VINA RESULT:      -7.4      0.800      1.743
REMARK  Name = 
REMARK  6 active torsions:
REMARK  status: ('A' for Active; 'I' for Inactive)
REMARK    1  A    between atoms: C_1  and  C_2
REMARK    2  A    between atoms: C_5  and  N_6
REMARK    3  A    between atoms: C_9  and  N_10
REMARK    4  A    between atoms: N_10  and  C_11
REMARK    5  A    between atoms: N_10  and  C_12
REMARK    6  A    between atoms: C_18  and  C_19
REMARK                            x       y       z     vdW  Elec       q    Type
REMARK                         _______ _______ _______ _____ _____    ______ ____
ROOT
ATOM      1  N   UNL     1       4.836   2.795  16.906  0.00  0.00    +0.000 N 
ATOM      2  C   UNL     1       5.776   3.771  16.514  0.00  0.00    +0.000 A 
ATOM      3  C   UNL     1       6.467   4.492  17.470  0.00  0.00    +0.000 A 
ATOM      4  C   UNL     1       7.242   5.552  17.065  0.00  0.00    +0.000 A 
ATOM      5  N   UNL     1       7.404   5.781  15.752  0.00  0.00    +0.000 NA
ATOM      6  C   UNL     1       6.795   4.961  14.882  0.00  0.00    +0.000 A 
ATOM      7  N   UNL     1       6.992   5.212  13.537  0.00  0.00    +0.000 N 
ATOM      8  N   UNL     1       5.956   3.980  15.205  0.00  0.00    +0.000 NA
ATOM      9  H   UNL     1       4.365   2.442  16.076  0.00  0.00    +0.000 HD
ATOM     10  H   UNL     1       7.247   6.183  13.418  0.00  0.00    +0.000 HD
ATOM     11  H   UNL     1       6.199   4.870  13.013  0.00  0.00    +0.000 HD
ENDROOT
BRANCH   1  16
ATOM     12  C   UNL     1       1.406   2.772  21.505  0.00  0.00    +0.000 C 
ATOM     13  C   UNL     1       2.281   2.835  20.284  0.00  0.00    +0.000 A 
ATOM     14  C   UNL     1       3.666   2.925  20.447  0.00  0.00    +0.000 A 
ATOM     15  C   UNL     1       4.510   2.956  19.338  0.00  0.00    +0.000 A 
ATOM     16  C   UNL     1       3.998   2.852  18.040  0.00  0.00    +0.000 A 
ATOM     17  C   UNL     1       2.611   2.822  17.874  0.00  0.00    +0.000 A 
ATOM     18  C   UNL     1       1.742   2.806  18.982  0.00  0.00    +0.000 A 
ATOM     19  C   UNL     1       0.257   2.745  18.756  0.00  0.00    +0.000 C 
ENDBRANCH   1  16
BRANCH   4  20
ATOM     20  N   UNL     1       7.753   6.455  17.988  0.00  0.00    +0.000 N 
ATOM     21  C   UNL     1       7.756   7.894  17.759  0.00  0.00    +0.000 C 
ATOM     22  C   UNL     1       7.880   6.032  19.375  0.00  0.00    +0.000 C 
ENDBRANCH   4  20
TORSDOF 2
ENDMDL
MODEL 5
REMARK VINA RESULT:      -7.0      1.037      1.422
REMARK  Name = 
REMARK  6 active torsions:
REMARK  status: ('A' for Active; 'I' for Inactive)
REMARK    1  A    between atoms: C_1  and  C_2
REMARK    2  A    between atoms: C_5  and  N_6
REMARK    3  A    between atoms: C_9  and  N_10
REMARK    4  A    between atoms: N_10  and  C_11
REMARK    5  A    between atoms: N_10  and  C_12
REMARK    6  A    between atoms: C_18  and  C_19
REMARK                            x       y       z     vdW  Elec       q    Type
REMARK                         _______ _______ _______ _____ _____    ______ ____
ROOT
ATOM      1  N   UNL     1       4.405   3.437  16.313  0.00  0.00    +0.000 N 
ATOM      2  C   UNL     1       5.560   4.202  16.043  0.00  0.00    +0.000 A 
ATOM      3  C   UNL     1       6.220   4.848  17.073  0.00  0.00    +0.000 A 
ATOM      4  C   UNL     1       7.232   5.724  16.759  0.00  0.00    +0.000 A 
ATOM      5  N   UNL     1       7.630   5.835  15.482  0.00  0.00    +0.000 NA
ATOM      6  C   UNL     1       7.018   5.083  14.555  0.00  0.00    +0.000 A 
ATOM      7  N   UNL     1       7.461   5.207  13.252  0.00  0.00    +0.000 N 
ATOM      8  N   UNL     1       5.972   4.290  14.774  0.00  0.00    +0.000 NA
ATOM      9  H   UNL     1       4.008   3.122  15.432  0.00  0.00    +0.000 HD
ATOM     10  H   UNL     1       7.907   6.107  13.140  0.00  0.00    +0.000 HD
ATOM     11  H   UNL     1       6.707   4.980  12.620  0.00  0.00    +0.000 HD
ENDROOT
BRANCH   1  16
ATOM     12  C   UNL     1       0.592   4.453  20.478  0.00  0.00    +0.000 C 
ATOM     13  C   UNL     1       1.543   4.183  19.346  0.00  0.00    +0.000 A 
ATOM     14  C   UNL     1       2.429   5.189  18.950  0.00  0.00    +0.000 A 
ATOM     15  C   UNL     1       3.344   4.965  17.923  0.00  0.00    +0.000 A 
ATOM     16  C   UNL     1       3.431   3.717  17.295  0.00  0.00    +0.000 A 
ATOM     17  C   UNL     1       2.507   2.730  17.650  0.00  0.00    +0.000 A 
ATOM     18  C   UNL     1       1.565   2.944  18.673  0.00  0.00    +0.000 A 
ATOM     19  C   UNL     1       0.608   1.844  19.039  0.00  0.00    +0.000 C 
ENDBRANCH   1  16
BRANCH   4  20
ATOM     20  N   UNL     1       7.756   6.579  17.720  0.00  0.00    +0.000 N 
ATOM     21  C   UNL     1       7.757   8.027  17.565  0.00  0.00    +0.000 C 
ATOM     22  C   UNL     1       7.904   6.086  19.081  0.00  0.00    +0.000 C 
ENDBRANCH   4  20
TORSDOF 2
ENDMDL
MODEL 6
REMARK VINA RESULT:      -7.0      2.985      3.779
REMARK  Name = 
REMARK  6 active torsions:
REMARK  status: ('A' for Active; 'I' for Inactive)
REMARK    1  A    between atoms: C_1  and  C_2
REMARK    2  A    between atoms: C_5  and  N_6
REMARK    3  A    between atoms: C_9  and  N_10
REMARK    4  A    between atoms: N_10  and  C_11
REMARK    5  A    between atoms: N_10  and  C_12
REMARK    6  A    between atoms: C_18  and  C_19
REMARK                            x       y       z     vdW  Elec       q    Type
REMARK                         _______ _______ _______ _____ _____    ______ ____
ROOT
ATOM      1  N   UNL     1       3.080   5.041  17.996  0.00  0.00    +0.000 N 
ATOM      2  C   UNL     1       4.417   4.877  17.578  0.00  0.00    +0.000 A 
ATOM      3  C   UNL     1       5.451   5.370  18.353  0.00  0.00    +0.000 A 
ATOM      4  C   UNL     1       6.726   5.352  17.840  0.00  0.00    +0.000 A 
ATOM      5  N   UNL     1       6.949   4.749  16.661  0.00  0.00    +0.000 NA
ATOM      6  C   UNL     1       5.911   4.187  16.025  0.00  0.00    +0.000 A 
ATOM      7  N   UNL     1       6.174   3.560  14.822  0.00  0.00    +0.000 N 
ATOM      8  N   UNL     1       4.640   4.252  16.417  0.00  0.00    +0.000 NA
ATOM      9  H   UNL     1       2.464   4.704  17.260  0.00  0.00    +0.000 HD
ATOM     10  H   UNL     1       7.021   3.947  14.428  0.00  0.00    +0.000 HD
ATOM     11  H   UNL     1       5.344   3.577  14.247  0.00  0.00    +0.000 HD
ENDROOT
BRANCH   1  16
ATOM     12  C   UNL     1       0.721   9.496  20.736  0.00  0.00    +0.000 C 
ATOM     13  C   UNL     1       1.394   8.360  20.017  0.00  0.00    +0.000 A 
ATOM     14  C   UNL     1       1.551   7.138  20.678  0.00  0.00    +0.000 A 
ATOM     15  C   UNL     1       2.144   6.054  20.032  0.00  0.00    +0.000 A 
ATOM     16  C   UNL     1       2.555   6.147  18.697  0.00  0.00    +0.000 A 
ATOM     17  C   UNL     1       2.453   7.385  18.057  0.00  0.00    +0.000 A 
ATOM     18  C   UNL     1       1.871   8.495  18.697  0.00  0.00    +0.000 A 
ATOM     19  C   UNL     1       1.758   9.799  17.959  0.00  0.00    +0.000 C 
ENDBRANCH   1  16
BRANCH   4  20
ATOM     20  N   UNL     1       7.753   6.052  18.459  0.00  0.00    +0.000 N 
ATOM     21  C   UNL     1       8.063   7.438  18.138  0.00  0.00    +0.000 C 
ATOM     22  C   UNL     1       8.243   5.573  19.744  0.00  0.00    +0.000 C 
ENDBRANCH   4  20
TORSDOF 2
ENDMDL
MODEL 7
REMARK VINA RESULT:      -6.9      3.953      5.203
REMARK  Name = 
REMARK  6 active torsions:
REMARK  status: ('A' for Active; 'I' for Inactive)
REMARK    1  A    between atoms: C_1  and  C_2
REMARK    2  A    between atoms: C_5  and  N_6
REMARK    3  A    between atoms: C_9  and  N_10
REMARK    4  A    between atoms: N_10  and  C_11
REMARK    5  A    between atoms: N_10  and  C_12
REMARK    6  A    between atoms: C_18  and  C_19
REMARK                            x       y       z     vdW  Elec       q    Type
REMARK                         _______ _______ _______ _____ _____    ______ ____
ROOT
ATOM      1  N   UNL     1       2.492   5.822  20.346  0.00  0.00    +0.000 N 
ATOM      2  C   UNL     1       3.577   5.069  19.848  0.00  0.00    +0.000 A 
ATOM      3  C   UNL     1       4.710   5.709  19.382  0.00  0.00    +0.000 A 
ATOM      4  C   UNL     1       5.673   4.964  18.744  0.00  0.00    +0.000 A 
ATOM      5  N   UNL     1       5.546   3.629  18.701  0.00  0.00    +0.000 NA
ATOM      6  C   UNL     1       4.474   3.071  19.283  0.00  0.00    +0.000 A 
ATOM      7  N   UNL     1       4.378   1.693  19.236  0.00  0.00    +0.000 N 
ATOM      8  N   UNL     1       3.460   3.737  19.831  0.00  0.00    +0.000 NA
ATOM      9  H   UNL     1       1.722   5.191  20.551  0.00  0.00    +0.000 HD
ATOM     10  H   UNL     1       4.921   1.352  18.454  0.00  0.00    +0.000 HD
ATOM     11  H   UNL     1       3.406   1.423  19.281  0.00  0.00    +0.000 HD
ENDROOT
BRANCH   1  16
ATOM     12  C   UNL     1       0.984  11.056  18.542  0.00  0.00    +0.000 C 
ATOM     13  C   UNL     1       1.317   9.670  19.021  0.00  0.00    +0.000 A 
ATOM     14  C   UNL     1       1.910   8.770  18.132  0.00  0.00    +0.000 A 
ATOM     15  C   UNL     1       2.260   7.487  18.550  0.00  0.00    +0.000 A 
ATOM     16  C   UNL     1       2.069   7.084  19.877  0.00  0.00    +0.000 A 
ATOM     17  C   UNL     1       1.423   7.962  20.750  0.00  0.00    +0.000 A 
ATOM     18  C   UNL     1       1.048   9.257  20.342  0.00  0.00    +0.000 A 
ATOM     19  C   UNL     1       0.379  10.178  21.324  0.00  0.00    +0.000 C 
ENDBRANCH   1  16
BRANCH   4  20
ATOM     20  N   UNL     1       6.701   5.580  18.042  0.00  0.00    +0.000 N 
ATOM     21  C   UNL     1       7.780   6.301  18.703  0.00  0.00    +0.000 C 
ATOM     22  C   UNL     1       6.969   5.145  16.679  0.00  0.00    +0.000 C 
ENDBRANCH   4  20
TORSDOF 2
ENDMDL
MODEL 8
REMARK VINA RESULT:      -6.8      4.172      6.159
REMARK  Name = 
REMARK  6 active torsions:
REMARK  status: ('A' for Active; 'I' for Inactive)
REMARK    1  A    between atoms: C_1  and  C_2
REMARK    2  A    between atoms: C_5  and  N_6
REMARK    3  A    between atoms: C_9  and  N_10
REMARK    4  A    between atoms: N_10  and  C_11
REMARK    5  A    between atoms: N_10  and  C_12
REMARK    6  A    between atoms: C_18  and  C_19
REMARK                            x       y       z     vdW  Elec       q    Type
REMARK                         _______ _______ _______ _____ _____    ______ ____
ROOT
ATOM      1  N   UNL     1       3.060   7.361  18.173  0.00  0.00    +0.000 N 
ATOM      2  C   UNL     1       3.356   5.988  18.313  0.00  0.00    +0.000 A 
ATOM      3  C   UNL     1       2.374   5.105  18.721  0.00  0.00    +0.000 A 
ATOM      4  C   UNL     1       2.732   3.811  19.017  0.00  0.00    +0.000 A 
ATOM      5  N   UNL     1       3.992   3.411  18.786  0.00  0.00    +0.000 NA
ATOM      6  C   UNL     1       4.859   4.298  18.275  0.00  0.00    +0.000 A 
ATOM      7  N   UNL     1       6.145   3.853  18.033  0.00  0.00    +0.000 N 
ATOM      8  N   UNL     1       4.606   5.586  18.057  0.00  0.00    +0.000 NA
ATOM      9  H   UNL     1       3.920   7.861  17.961  0.00  0.00    +0.000 HD
ATOM     10  H   UNL     1       6.333   3.055  18.624  0.00  0.00    +0.000 HD
ATOM     11  H   UNL     1       6.785   4.633  18.087  0.00  0.00    +0.000 HD
ENDROOT
BRANCH   1  16
ATOM     12  C   UNL     1      -0.777  10.252  21.308  0.00  0.00    +0.000 C 
ATOM     13  C   UNL     1       0.264   9.547  20.484  0.00  0.00    +0.000 A 
ATOM     14  C   UNL     1       0.997   8.507  21.063  0.00  0.00    +0.000 A 
ATOM     15  C   UNL     1       1.950   7.812  20.321  0.00  0.00    +0.000 A 
ATOM     16  C   UNL     1       2.164   8.105  18.969  0.00  0.00    +0.000 A 
ATOM     17  C   UNL     1       1.475   9.182  18.406  0.00  0.00    +0.000 A 
ATOM     18  C   UNL     1       0.520   9.907  19.145  0.00  0.00    +0.000 A 
ATOM     19  C   UNL     1      -0.218  11.041  18.490  0.00  0.00    +0.000 C 
ENDBRANCH   1  16
BRANCH   4  20
ATOM     20  N   UNL     1       1.847   2.958  19.662  0.00  0.00    +0.000 N 
ATOM     21  C   UNL     1       1.686   2.942  21.110  0.00  0.00    +0.000 C 
ATOM     22  C   UNL     1       0.749   2.386  18.896  0.00  0.00    +0.000 C 
ENDBRANCH   4  20
TORSDOF 2
ENDMDL
MODEL 9
REMARK VINA RESULT:      -6.8      3.954      5.368
REMARK  Name = 
REMARK  6 active torsions:
REMARK  status: ('A' for Active; 'I' for Inactive)
REMARK    1  A    between atoms: C_1  and  C_2
REMARK    2  A    between atoms: C_5  and  N_6
REMARK    3  A    between atoms: C_9  and  N_10
REMARK    4  A    between atoms: N_10  and  C_11
REMARK    5  A    between atoms: N_10  and  C_12
REMARK    6  A    between atoms: C_18  and  C_19
REMARK                            x       y       z     vdW  Elec       q    Type
REMARK                         _______ _______ _______ _____ _____    ______ ____
ROOT
ATOM      1  N   UNL     1       2.917   6.069  20.144  0.00  0.00    +0.000 N 
ATOM      2  C   UNL     1       3.570   5.165  19.278  0.00  0.00    +0.000 A 
ATOM      3  C   UNL     1       4.227   5.632  18.155  0.00  0.00    +0.000 A 
ATOM      4  C   UNL     1       4.700   4.721  17.241  0.00  0.00    +0.000 A 
ATOM      5  N   UNL     1       4.621   3.411  17.522  0.00  0.00    +0.000 NA
ATOM      6  C   UNL     1       4.076   3.040  18.691  0.00  0.00    +0.000 A 
ATOM      7  N   UNL     1       4.023   1.686  18.959  0.00  0.00    +0.000 N 
ATOM      8  N   UNL     1       3.513   3.862  19.574  0.00  0.00    +0.000 NA
ATOM      9  H   UNL     1       2.415   5.539  20.852  0.00  0.00    +0.000 HD
ATOM     10  H   UNL     1       4.051   1.176  18.086  0.00  0.00    +0.000 HD
ATOM     11  H   UNL     1       3.251   1.498  19.582  0.00  0.00    +0.000 HD
ENDROOT
BRANCH   1  16
ATOM     12  C   UNL     1       0.428  11.034  18.703  0.00  0.00    +0.000 C 
ATOM     13  C   UNL     1       1.022   9.708  19.089  0.00  0.00    +0.000 A 
ATOM     14  C   UNL     1       1.728   8.976  18.129  0.00  0.00    +0.000 A 
ATOM     15  C   UNL     1       2.317   7.757  18.458  0.00  0.00    +0.000 A 
ATOM     16  C   UNL     1       2.257   7.257  19.764  0.00  0.00    +0.000 A 
ATOM     17  C   UNL     1       1.503   7.958  20.709  0.00  0.00    +0.000 A 
ATOM     18  C   UNL     1       0.887   9.184  20.390  0.00  0.00    +0.000 A 
ATOM     19  C   UNL     1       0.108   9.916  21.447  0.00  0.00    +0.000 C 
ENDBRANCH   1  16
BRANCH   4  20
ATOM     20  N   UNL     1       5.140   5.131  15.990  0.00  0.00    +0.000 N 
ATOM     21  C   UNL     1       5.212   6.533  15.603  0.00  0.00    +0.000 C 
ATOM     22  C   UNL     1       5.954   4.213  15.205  0.00  0.00    +0.000 C 
ENDBRANCH   4  20
TORSDOF 2
ENDMDL
