MODEL 1
REMARK VINA RESULT:      -8.9      0.000      0.000
REMARK  Name = 
REMARK  6 active torsions:
REMARK  status: ('A' for Active; 'I' for Inactive)
REMARK    1  A    between atoms: C_2  and  C_3
REMARK    2  A    between atoms: C_4  and  C_5
REMARK    3  A    between atoms: N_12  and  C_13
REMARK    4  A    between atoms: C_15  and  S_16
REMARK    5  A    between atoms: S_16  and  N_19
REMARK    6  A    between atoms: C_27  and  N_28
REMARK                            x       y       z     vdW  Elec       q    Type
REMARK                         _______ _______ _______ _____ _____    ______ ____
ROOT
ATOM      1  C   UNL     1       0.927   9.246  20.294  0.00  0.00    +0.000 A 
ATOM      2  C   UNL     1       1.355   7.922  20.506  0.00  0.00    +0.000 A 
ATOM      3  C   UNL     1       2.120   7.263  19.553  0.00  0.00    +0.000 A 
ATOM      4  C   UNL     1       2.410   7.897  18.348  0.00  0.00    +0.000 A 
ATOM      5  C   UNL     1       2.021   9.229  18.152  0.00  0.00    +0.000 A 
ATOM      6  C   UNL     1       1.329   9.968  19.134  0.00  0.00    +0.000 A 
ENDROOT
BRANCH   6   7
ATOM      7  N   UNL     1       1.013  11.309  18.920  0.00  0.00    +0.000 N 
ATOM      8  C   UNL     1       1.950  12.269  18.330  0.00  0.00    +0.000 C 
ATOM      9  C   UNL     1       1.236  13.574  18.669  0.00  0.00    +0.000 C 
ATOM     10  C   UNL     1      -0.216  13.259  18.329  0.00  0.00    +0.000 C 
ATOM     11  C   UNL     1      -0.337  11.738  18.514  0.00  0.00    +0.000 C 
ENDBRANCH   6   7
BRANCH   1  14
ATOM     12  O   UNL     1       1.077   9.716  23.220  0.00  0.00    +0.000 OA
ATOM     13  C   UNL     1       0.090   9.976  22.540  0.00  0.00    +0.000 C 
ATOM     14  N   UNL     1      -0.029   9.829  21.173  0.00  0.00    +0.000 N 
ATOM     15  H   UNL     1      -0.870  10.142  20.706  0.00  0.00    +0.000 HD
BRANCH  13  16
ATOM     16  C   UNL     1      -1.108  10.591  23.179  0.00  0.00    +0.000 C 
ATOM     17  C   UNL     1      -1.685  11.639  22.579  0.00  0.00    +0.000 C 
BRANCH  17  18
ATOM     18  C   UNL     1      -2.978  12.225  22.971  0.00  0.00    +0.000 A 
ATOM     19  C   UNL     1      -3.476  12.162  24.280  0.00  0.00    +0.000 A 
ATOM     20  C   UNL     1      -4.769  12.608  24.563  0.00  0.00    +0.000 A 
ATOM     21  C   UNL     1      -5.554  13.137  23.545  0.00  0.00    +0.000 A 
ATOM     22  F   UNL     1      -6.812  13.515  23.809  0.00  0.00    +0.000 F 
ATOM     23  C   UNL     1      -5.055  13.270  22.256  0.00  0.00    +0.000 A 
ATOM     24  C   UNL     1      -3.763  12.826  21.973  0.00  0.00    +0.000 A 
ENDBRANCH  17  18
ENDBRANCH  13  16
ENDBRANCH   1  14
BRANCH   3  25
ATOM     25  S   UNL     1       2.702   5.598  19.785  0.00  0.00    +0.000 S 
ATOM     26  O   UNL     1       4.148   5.669  19.695  0.00  0.00    +0.000 OA
ATOM     27  O   UNL     1       2.056   5.095  20.978  0.00  0.00    +0.000 OA
BRANCH  25  28
ATOM     28  N   UNL     1       2.143   4.685  18.457  0.00  0.00    +0.000 NA
ATOM     29  C   UNL     1       1.208   3.549  18.734  0.00  0.00    +0.000 C 
ATOM     30  C   UNL     1       1.960   2.297  19.212  0.00  0.00    +0.000 C 
ATOM     31  O   UNL     1       2.993   1.903  18.296  0.00  0.00    +0.000 OA
ATOM     32  C   UNL     1       3.914   2.969  18.022  0.00  0.00    +0.000 C 
ATOM     33  C   UNL     1       3.197   4.219  17.501  0.00  0.00    +0.000 C 
ENDBRANCH  25  28
ENDBRANCH   3  25
TORSDOF 6
ENDMDL
MODEL 2
REMARK VINA RESULT:      -8.7      1.257      1.564
REMARK  Name = 
REMARK  6 active torsions:
REMARK  status: ('A' for Active; 'I' for Inactive)
REMARK    1  A    between atoms: C_2  and  C_3
REMARK    2  A    between atoms: C_4  and  C_5
REMARK    3  A    between atoms: N_12  and  C_13
REMARK    4  A    between atoms: C_15  and  S_16
REMARK    5  A    between atoms: S_16  and  N_19
REMARK    6  A    between atoms: C_27  and  N_28
REMARK                            x       y       z     vdW  Elec       q    Type
REMARK                         _______ _______ _______ _____ _____    ______ ____
ROOT
ATOM      1  C   UNL     1       1.248   9.248  20.204  0.00  0.00    +0.000 A 
ATOM      2  C   UNL     1       1.739   7.946  20.418  0.00  0.00    +0.000 A 
ATOM      3  C   UNL     1       2.234   7.192  19.363  0.00  0.00    +0.000 A 
ATOM      4  C   UNL     1       2.183   7.705  18.070  0.00  0.00    +0.000 A 
ATOM      5  C   UNL     1       1.735   9.016  17.859  0.00  0.00    +0.000 A 
ATOM      6  C   UNL     1       1.317   9.852  18.916  0.00  0.00    +0.000 A 
ENDROOT
BRANCH   6   7
ATOM      7  N   UNL     1       0.934  11.169  18.668  0.00  0.00    +0.000 N 
ATOM      8  C   UNL     1      -0.427  11.665  18.893  0.00  0.00    +0.000 C 
ATOM      9  C   UNL     1      -0.351  12.990  18.139  0.00  0.00    +0.000 C 
ATOM     10  C   UNL     1       0.999  13.547  18.578  0.00  0.00    +0.000 C 
ATOM     11  C   UNL     1       1.840  12.306  18.917  0.00  0.00    +0.000 C 
ENDBRANCH   6   7
BRANCH   1  14
ATOM     12  O   UNL     1      -0.778   8.215  22.110  0.00  0.00    +0.000 OA
ATOM     13  C   UNL     1      -0.418   9.387  22.070  0.00  0.00    +0.000 C 
ATOM     14  N   UNL     1       0.552   9.922  21.246  0.00  0.00    +0.000 N 
ATOM     15  H   UNL     1       0.817  10.893  21.348  0.00  0.00    +0.000 HD
BRANCH  13  16
ATOM     16  C   UNL     1      -0.986  10.370  23.036  0.00  0.00    +0.000 C 
ATOM     17  C   UNL     1      -1.215  11.619  22.616  0.00  0.00    +0.000 C 
BRANCH  17  18
ATOM     18  C   UNL     1      -1.951  12.641  23.380  0.00  0.00    +0.000 A 
ATOM     19  C   UNL     1      -3.272  12.462  23.813  0.00  0.00    +0.000 A 
ATOM     20  C   UNL     1      -3.966  13.518  24.408  0.00  0.00    +0.000 A 
ATOM     21  C   UNL     1      -3.334  14.743  24.591  0.00  0.00    +0.000 A 
ATOM     22  F   UNL     1      -4.019  15.768  25.113  0.00  0.00    +0.000 F 
ATOM     23  C   UNL     1      -2.005  14.920  24.230  0.00  0.00    +0.000 A 
ATOM     24  C   UNL     1      -1.310  13.865  23.638  0.00  0.00    +0.000 A 
ENDBRANCH  17  18
ENDBRANCH  13  16
ENDBRANCH   1  14
BRANCH   3  25
ATOM     25  S   UNL     1       2.882   5.551  19.588  0.00  0.00    +0.000 S 
ATOM     26  O   UNL     1       4.319   5.667  19.418  0.00  0.00    +0.000 OA
ATOM     27  O   UNL     1       2.319   5.047  20.823  0.00  0.00    +0.000 OA
BRANCH  25  28
ATOM     28  N   UNL     1       2.283   4.597  18.308  0.00  0.00    +0.000 NA
ATOM     29  C   UNL     1       1.296   3.521  18.639  0.00  0.00    +0.000 C 
ATOM     30  C   UNL     1       1.989   2.263  19.184  0.00  0.00    +0.000 C 
ATOM     31  O   UNL     1       3.003   1.775  18.292  0.00  0.00    +0.000 OA
ATOM     32  C   UNL     1       3.973   2.782  17.966  0.00  0.00    +0.000 C 
ATOM     33  C   UNL     1       3.315   4.034  17.380  0.00  0.00    +0.000 C 
ENDBRANCH  25  28
ENDBRANCH   3  25
TORSDOF 6
ENDMDL
MODEL 3
REMARK VINA RESULT:      -8.3      1.157      1.556
REMARK  Name = 
REMARK  6 active torsions:
REMARK  status: ('A' for Active; 'I' for Inactive)
REMARK    1  A    between atoms: C_2  and  C_3
REMARK    2  A    between atoms: C_4  and  C_5
REMARK    3  A    between atoms: N_12  and  C_13
REMARK    4  A    between atoms: C_15  and  S_16
REMARK    5  A    between atoms: S_16  and  N_19
REMARK    6  A    between atoms: C_27  and  N_28
REMARK                            x       y       z     vdW  Elec       q    Type
REMARK                         _______ _______ _______ _____ _____    ______ ____
ROOT
ATOM      1  C   UNL     1       0.902   9.324  20.061  0.00  0.00    +0.000 A 
ATOM      2  C   UNL     1       1.335   7.989  20.172  0.00  0.00    +0.000 A 
ATOM      3  C   UNL     1       2.108   7.409  19.175  0.00  0.00    +0.000 A 
ATOM      4  C   UNL     1       2.402   8.135  18.025  0.00  0.00    +0.000 A 
ATOM      5  C   UNL     1       2.009   9.477  17.930  0.00  0.00    +0.000 A 
ATOM      6  C   UNL     1       1.308  10.135  18.963  0.00  0.00    +0.000 A 
ENDROOT
BRANCH   6   7
ATOM      7  N   UNL     1       0.988  11.487  18.851  0.00  0.00    +0.000 N 
ATOM      8  C   UNL     1      -0.386  11.978  18.713  0.00  0.00    +0.000 C 
ATOM      9  C   UNL     1      -0.109  13.415  18.282  0.00  0.00    +0.000 C 
ATOM     10  C   UNL     1       1.011  13.837  19.226  0.00  0.00    +0.000 C 
ATOM     11  C   UNL     1       1.732  12.529  19.583  0.00  0.00    +0.000 C 
ENDBRANCH   6   7
BRANCH   1  14
ATOM     12  O   UNL     1       1.144   9.855  22.970  0.00  0.00    +0.000 OA
ATOM     13  C   UNL     1       0.107  10.014  22.335  0.00  0.00    +0.000 C 
ATOM     14  N   UNL     1      -0.060   9.834  20.976  0.00  0.00    +0.000 N 
ATOM     15  H   UNL     1      -0.947  10.062  20.546  0.00  0.00    +0.000 HD
BRANCH  13  16
ATOM     16  C   UNL     1      -1.111  10.529  23.021  0.00  0.00    +0.000 C 
ATOM     17  C   UNL     1      -1.653  11.673  22.588  0.00  0.00    +0.000 C 
BRANCH  17  18
ATOM     18  C   UNL     1      -2.956  12.204  23.023  0.00  0.00    +0.000 A 
ATOM     19  C   UNL     1      -3.399  12.136  24.351  0.00  0.00    +0.000 A 
ATOM     20  C   UNL     1      -4.701  12.526  24.679  0.00  0.00    +0.000 A 
ATOM     21  C   UNL     1      -5.548  13.004  23.687  0.00  0.00    +0.000 A 
ATOM     22  F   UNL     1      -6.811  13.326  23.995  0.00  0.00    +0.000 F 
ATOM     23  C   UNL     1      -5.106  13.142  22.378  0.00  0.00    +0.000 A 
ATOM     24  C   UNL     1      -3.806  12.755  22.049  0.00  0.00    +0.000 A 
ENDBRANCH  17  18
ENDBRANCH  13  16
ENDBRANCH   1  14
BRANCH   3  25
ATOM     25  S   UNL     1       2.695   5.733  19.281  0.00  0.00    +0.000 S 
ATOM     26  O   UNL     1       2.385   5.125  18.000  0.00  0.00    +0.000 OA
ATOM     27  O   UNL     1       4.059   5.799  19.760  0.00  0.00    +0.000 OA
BRANCH  25  28
ATOM     28  N   UNL     1       1.756   4.949  20.468  0.00  0.00    +0.000 NA
ATOM     29  C   UNL     1       2.473   4.154  21.516  0.00  0.00    +0.000 C 
ATOM     30  C   UNL     1       2.881   2.767  20.996  0.00  0.00    +0.000 C 
ATOM     31  O   UNL     1       1.763   2.036  20.470  0.00  0.00    +0.000 OA
ATOM     32  C   UNL     1       1.063   2.767  19.454  0.00  0.00    +0.000 C 
ATOM     33  C   UNL     1       0.604   4.140  19.956  0.00  0.00    +0.000 C 
ENDBRANCH  25  28
ENDBRANCH   3  25
TORSDOF 6
ENDMDL
MODEL 4
REMARK VINA RESULT:      -8.2      1.413      1.721
REMARK  Name = 
REMARK  6 active torsions:
REMARK  status: ('A' for Active; 'I' for Inactive)
REMARK    1  A    between atoms: C_2  and  C_3
REMARK    2  A    between atoms: C_4  and  C_5
REMARK    3  A    between atoms: N_12  and  C_13
REMARK    4  A    between atoms: C_15  and  S_16
REMARK    5  A    between atoms: S_16  and  N_19
REMARK    6  A    between atoms: C_27  and  N_28
REMARK                            x       y       z     vdW  Elec       q    Type
REMARK                         _______ _______ _______ _____ _____    ______ ____
ROOT
ATOM      1  C   UNL     1       0.804   9.688  20.034  0.00  0.00    +0.000 A 
ATOM      2  C   UNL     1       1.243   8.351  20.066  0.00  0.00    +0.000 A 
ATOM      3  C   UNL     1       2.024   7.835  19.040  0.00  0.00    +0.000 A 
ATOM      4  C   UNL     1       2.319   8.631  17.937  0.00  0.00    +0.000 A 
ATOM      5  C   UNL     1       1.920   9.974  17.922  0.00  0.00    +0.000 A 
ATOM      6  C   UNL     1       1.211  10.566  18.989  0.00  0.00    +0.000 A 
ENDROOT
BRANCH   6   7
ATOM      7  N   UNL     1       0.885  11.921  18.958  0.00  0.00    +0.000 N 
ATOM      8  C   UNL     1       1.839  12.967  18.578  0.00  0.00    +0.000 C 
ATOM      9  C   UNL     1       1.082  14.200  19.063  0.00  0.00    +0.000 C 
ATOM     10  C   UNL     1      -0.341  13.927  18.588  0.00  0.00    +0.000 C 
ATOM     11  C   UNL     1      -0.446  12.395  18.537  0.00  0.00    +0.000 C 
ENDBRANCH   6   7
BRANCH   1  14
ATOM     12  O   UNL     1       1.003   9.962  22.982  0.00  0.00    +0.000 OA
ATOM     13  C   UNL     1      -0.019  10.196  22.346  0.00  0.00    +0.000 C 
ATOM     14  N   UNL     1      -0.165  10.137  20.974  0.00  0.00    +0.000 N 
ATOM     15  H   UNL     1      -1.039  10.420  20.551  0.00  0.00    +0.000 HD
BRANCH  13  16
ATOM     16  C   UNL     1      -1.239  10.675  23.054  0.00  0.00    +0.000 C 
ATOM     17  C   UNL     1      -1.828  11.798  22.625  0.00  0.00    +0.000 C 
BRANCH  17  18
ATOM     18  C   UNL     1      -3.138  12.288  23.084  0.00  0.00    +0.000 A 
ATOM     19  C   UNL     1      -3.568  12.177  24.413  0.00  0.00    +0.000 A 
ATOM     20  C   UNL     1      -4.875  12.529  24.761  0.00  0.00    +0.000 A 
ATOM     21  C   UNL     1      -5.741  13.013  23.788  0.00  0.00    +0.000 A 
ATOM     22  F   UNL     1      -7.008  13.299  24.114  0.00  0.00    +0.000 F 
ATOM     23  C   UNL     1      -5.314  13.193  22.479  0.00  0.00    +0.000 A 
ATOM     24  C   UNL     1      -4.009  12.844  22.131  0.00  0.00    +0.000 A 
ENDBRANCH  17  18
ENDBRANCH  13  16
ENDBRANCH   1  14
BRANCH   3  25
ATOM     25  S   UNL     1       2.618   6.159  19.047  0.00  0.00    +0.000 S 
ATOM     26  O   UNL     1       2.419   5.675  20.400  0.00  0.00    +0.000 OA
ATOM     27  O   UNL     1       1.997   5.493  17.921  0.00  0.00    +0.000 OA
BRANCH  25  28
ATOM     28  N   UNL     1       4.297   6.224  18.760  0.00  0.00    +0.000 NA
ATOM     29  C   UNL     1       4.760   6.390  17.346  0.00  0.00    +0.000 C 
ATOM     30  C   UNL     1       4.733   5.059  16.579  0.00  0.00    +0.000 C 
ATOM     31  O   UNL     1       5.481   4.033  17.249  0.00  0.00    +0.000 OA
ATOM     32  C   UNL     1       5.051   3.841  18.604  0.00  0.00    +0.000 C 
ATOM     33  C   UNL     1       5.108   5.144  19.408  0.00  0.00    +0.000 C 
ENDBRANCH  25  28
ENDBRANCH   3  25
TORSDOF 6
ENDMDL
MODEL 5
REMARK VINA RESULT:      -8.1      1.487      1.862
REMARK  Name = 
REMARK  6 active torsions:
REMARK  status: ('A' for Active; 'I' for Inactive)
REMARK    1  A    between atoms: C_2  and  C_3
REMARK    2  A    between atoms: C_4  and  C_5
REMARK    3  A    between atoms: N_12  and  C_13
REMARK    4  A    between atoms: C_15  and  S_16
REMARK    5  A    between atoms: S_16  and  N_19
REMARK    6  A    between atoms: C_27  and  N_28
REMARK                            x       y       z     vdW  Elec       q    Type
REMARK                         _______ _______ _______ _____ _____    ______ ____
ROOT
ATOM      1  C   UNL     1       1.383   9.290  19.926  0.00  0.00    +0.000 A 
ATOM      2  C   UNL     1       1.824   7.958  20.040  0.00  0.00    +0.000 A 
ATOM      3  C   UNL     1       2.309   7.274  18.933  0.00  0.00    +0.000 A 
ATOM      4  C   UNL     1       2.294   7.892  17.686  0.00  0.00    +0.000 A 
ATOM      5  C   UNL     1       1.895   9.230  17.576  0.00  0.00    +0.000 A 
ATOM      6  C   UNL     1       1.491   9.993  18.692  0.00  0.00    +0.000 A 
ENDROOT
BRANCH   6   7
ATOM      7  N   UNL     1       1.158  11.339  18.547  0.00  0.00    +0.000 N 
ATOM      8  C   UNL     1      -0.166  11.878  18.876  0.00  0.00    +0.000 C 
ATOM      9  C   UNL     1      -0.067  13.244  18.203  0.00  0.00    +0.000 C 
ATOM     10  C   UNL     1       1.329  13.712  18.601  0.00  0.00    +0.000 C 
ATOM     11  C   UNL     1       2.127  12.417  18.816  0.00  0.00    +0.000 C 
ENDBRANCH   6   7
BRANCH   1  14
ATOM     12  O   UNL     1      -0.679   8.168  21.742  0.00  0.00    +0.000 OA
ATOM     13  C   UNL     1      -0.292   9.331  21.789  0.00  0.00    +0.000 C 
ATOM     14  N   UNL     1       0.694   9.902  21.010  0.00  0.00    +0.000 N 
ATOM     15  H   UNL     1       0.980  10.857  21.184  0.00  0.00    +0.000 HD
BRANCH  13  16
ATOM     16  C   UNL     1      -0.844  10.253  22.821  0.00  0.00    +0.000 C 
ATOM     17  C   UNL     1      -1.170  11.499  22.456  0.00  0.00    +0.000 C 
BRANCH  17  18
ATOM     18  C   UNL     1      -1.905  12.457  23.300  0.00  0.00    +0.000 A 
ATOM     19  C   UNL     1      -3.210  12.223  23.756  0.00  0.00    +0.000 A 
ATOM     20  C   UNL     1      -3.909  13.226  24.431  0.00  0.00    +0.000 A 
ATOM     21  C   UNL     1      -3.298  14.451  24.671  0.00  0.00    +0.000 A 
ATOM     22  F   UNL     1      -3.989  15.428  25.272  0.00  0.00    +0.000 F 
ATOM     23  C   UNL     1      -1.983  14.679  24.287  0.00  0.00    +0.000 A 
ATOM     24  C   UNL     1      -1.283  13.677  23.614  0.00  0.00    +0.000 A 
ENDBRANCH  17  18
ENDBRANCH  13  16
ENDBRANCH   1  14
BRANCH   3  25
ATOM     25  S   UNL     1       2.896   5.599  19.031  0.00  0.00    +0.000 S 
ATOM     26  O   UNL     1       3.525   5.325  17.752  0.00  0.00    +0.000 OA
ATOM     27  O   UNL     1       3.647   5.493  20.265  0.00  0.00    +0.000 OA
BRANCH  25  28
ATOM     28  N   UNL     1       1.524   4.595  19.161  0.00  0.00    +0.000 NA
ATOM     29  C   UNL     1       0.978   4.330  20.530  0.00  0.00    +0.000 C 
ATOM     30  C   UNL     1       1.779   3.242  21.261  0.00  0.00    +0.000 C 
ATOM     31  O   UNL     1       1.866   2.029  20.498  0.00  0.00    +0.000 OA
ATOM     32  C   UNL     1       2.399   2.249  19.184  0.00  0.00    +0.000 C 
ATOM     33  C   UNL     1       1.594   3.300  18.413  0.00  0.00    +0.000 C 
ENDBRANCH  25  28
ENDBRANCH   3  25
TORSDOF 6
ENDMDL
MODEL 6
REMARK VINA RESULT:      -8.1      5.018     10.930
REMARK  Name = 
REMARK  6 active torsions:
REMARK  status: ('A' for Active; 'I' for Inactive)
REMARK    1  A    between atoms: C_2  and  C_3
REMARK    2  A    between atoms: C_4  and  C_5
REMARK    3  A    between atoms: N_12  and  C_13
REMARK    4  A    between atoms: C_15  and  S_16
REMARK    5  A    between atoms: S_16  and  N_19
REMARK    6  A    between atoms: C_27  and  N_28
REMARK                            x       y       z     vdW  Elec       q    Type
REMARK                         _______ _______ _______ _____ _____    ______ ____
ROOT
ATOM      1  C   UNL     1       2.853   6.280  19.075  0.00  0.00    +0.000 A 
ATOM      2  C   UNL     1       2.394   7.539  19.506  0.00  0.00    +0.000 A 
ATOM      3  C   UNL     1       1.480   7.644  20.546  0.00  0.00    +0.000 A 
ATOM      4  C   UNL     1       0.964   6.488  21.123  0.00  0.00    +0.000 A 
ATOM      5  C   UNL     1       1.450   5.234  20.727  0.00  0.00    +0.000 A 
ATOM      6  C   UNL     1       2.451   5.088  19.743  0.00  0.00    +0.000 A 
ENDROOT
BRANCH   6   7
ATOM      7  N   UNL     1       2.948   3.826  19.421  0.00  0.00    +0.000 N 
ATOM      8  C   UNL     1       3.418   2.868  20.426  0.00  0.00    +0.000 C 
ATOM      9  C   UNL     1       4.149   1.878  19.523  0.00  0.00    +0.000 C 
ATOM     10  C   UNL     1       3.178   1.708  18.359  0.00  0.00    +0.000 C 
ATOM     11  C   UNL     1       2.395   3.029  18.310  0.00  0.00    +0.000 C 
ENDBRANCH   6   7
BRANCH   1  14
ATOM     12  O   UNL     1       5.777   5.931  18.712  0.00  0.00    +0.000 OA
ATOM     13  C   UNL     1       4.988   6.060  17.783  0.00  0.00    +0.000 C 
ATOM     14  N   UNL     1       3.616   6.176  17.879  0.00  0.00    +0.000 N 
ATOM     15  H   UNL     1       3.055   6.208  17.037  0.00  0.00    +0.000 HD
BRANCH  13  16
ATOM     16  C   UNL     1       5.484   6.014  16.378  0.00  0.00    +0.000 C 
ATOM     17  C   UNL     1       5.944   4.852  15.900  0.00  0.00    +0.000 C 
BRANCH  17  18
ATOM     18  C   UNL     1       6.277   4.596  14.489  0.00  0.00    +0.000 A 
ATOM     19  C   UNL     1       5.565   3.690  13.691  0.00  0.00    +0.000 A 
ATOM     20  C   UNL     1       6.014   3.383  12.404  0.00  0.00    +0.000 A 
ATOM     21  C   UNL     1       7.157   3.997  11.907  0.00  0.00    +0.000 A 
ATOM     22  F   UNL     1       7.614   3.661  10.694  0.00  0.00    +0.000 F 
ATOM     23  C   UNL     1       7.838   4.948  12.656  0.00  0.00    +0.000 A 
ATOM     24  C   UNL     1       7.390   5.257  13.941  0.00  0.00    +0.000 A 
ENDBRANCH  17  18
ENDBRANCH  13  16
ENDBRANCH   1  14
BRANCH   3  25
ATOM     25  S   UNL     1       0.887   9.212  21.137  0.00  0.00    +0.000 S 
ATOM     26  O   UNL     1      -0.535   9.035  21.368  0.00  0.00    +0.000 OA
ATOM     27  O   UNL     1       1.769   9.612  22.213  0.00  0.00    +0.000 OA
BRANCH  25  28
ATOM     28  N   UNL     1       1.071  10.329  19.862  0.00  0.00    +0.000 NA
ATOM     29  C   UNL     1       1.012  11.788  20.195  0.00  0.00    +0.000 C 
ATOM     30  C   UNL     1      -0.436  12.278  20.346  0.00  0.00    +0.000 C 
ATOM     31  O   UNL     1      -1.231  11.981  19.188  0.00  0.00    +0.000 OA
ATOM     32  C   UNL     1      -1.205  10.586  18.851  0.00  0.00    +0.000 C 
ATOM     33  C   UNL     1       0.225  10.077  18.651  0.00  0.00    +0.000 C 
ENDBRANCH  25  28
ENDBRANCH   3  25
TORSDOF 6
ENDMDL
MODEL 7
REMARK VINA RESULT:      -8.0      0.813      1.419
REMARK  Name = 
REMARK  6 active torsions:
REMARK  status: ('A' for Active; 'I' for Inactive)
REMARK    1  A    between atoms: C_2  and  C_3
REMARK    2  A    between atoms: C_4  and  C_5
REMARK    3  A    between atoms: N_12  and  C_13
REMARK    4  A    between atoms: C_15  and  S_16
REMARK    5  A    between atoms: S_16  and  N_19
REMARK    6  A    between atoms: C_27  and  N_28
REMARK                            x       y       z     vdW  Elec       q    Type
REMARK                         _______ _______ _______ _____ _____    ______ ____
ROOT
ATOM      1  C   UNL     1       1.000   9.339  19.850  0.00  0.00    +0.000 A 
ATOM      2  C   UNL     1       1.438   8.004  19.931  0.00  0.00    +0.000 A 
ATOM      3  C   UNL     1       2.242   7.458  18.940  0.00  0.00    +0.000 A 
ATOM      4  C   UNL     1       2.563   8.221  17.821  0.00  0.00    +0.000 A 
ATOM      5  C   UNL     1       2.165   9.563  17.756  0.00  0.00    +0.000 A 
ATOM      6  C   UNL     1       1.431  10.185  18.788  0.00  0.00    +0.000 A 
ENDROOT
BRANCH   6   7
ATOM      7  N   UNL     1       1.106  11.539  18.709  0.00  0.00    +0.000 N 
ATOM      8  C   UNL     1      -0.274  12.030  18.640  0.00  0.00    +0.000 C 
ATOM      9  C   UNL     1      -0.017  13.473  18.215  0.00  0.00    +0.000 C 
ATOM     10  C   UNL     1       1.144  13.884  19.113  0.00  0.00    +0.000 C 
ATOM     11  C   UNL     1       1.882  12.571  19.419  0.00  0.00    +0.000 C 
ENDBRANCH   6   7
BRANCH   1  14
ATOM     12  O   UNL     1       1.206   9.941  22.748  0.00  0.00    +0.000 OA
ATOM     13  C   UNL     1       0.164  10.032  22.107  0.00  0.00    +0.000 C 
ATOM     14  N   UNL     1       0.010   9.816  20.753  0.00  0.00    +0.000 N 
ATOM     15  H   UNL     1      -0.887   9.988  20.316  0.00  0.00    +0.000 HD
BRANCH  13  16
ATOM     16  C   UNL     1      -1.082  10.495  22.782  0.00  0.00    +0.000 C 
ATOM     17  C   UNL     1      -1.621  11.658  22.398  0.00  0.00    +0.000 C 
BRANCH  17  18
ATOM     18  C   UNL     1      -2.943  12.151  22.820  0.00  0.00    +0.000 A 
ATOM     19  C   UNL     1      -3.849  12.751  21.934  0.00  0.00    +0.000 A 
ATOM     20  C   UNL     1      -5.027  13.327  22.416  0.00  0.00    +0.000 A 
ATOM     21  C   UNL     1      -5.310  13.284  23.776  0.00  0.00    +0.000 A 
ATOM     22  F   UNL     1      -6.413  13.883  24.241  0.00  0.00    +0.000 F 
ATOM     23  C   UNL     1      -4.458  12.635  24.660  0.00  0.00    +0.000 A 
ATOM     24  C   UNL     1      -3.282  12.058  24.180  0.00  0.00    +0.000 A 
ENDBRANCH  17  18
ENDBRANCH  13  16
ENDBRANCH   1  14
BRANCH   3  25
ATOM     25  S   UNL     1       2.836   5.784  19.010  0.00  0.00    +0.000 S 
ATOM     26  O   UNL     1       3.584   5.578  17.784  0.00  0.00    +0.000 OA
ATOM     27  O   UNL     1       3.469   5.621  20.302  0.00  0.00    +0.000 OA
BRANCH  25  28
ATOM     28  N   UNL     1       1.469   4.766  18.962  0.00  0.00    +0.000 NA
ATOM     29  C   UNL     1       1.048   4.098  20.234  0.00  0.00    +0.000 C 
ATOM     30  C   UNL     1       1.899   2.854  20.531  0.00  0.00    +0.000 C 
ATOM     31  O   UNL     1       1.899   1.925  19.436  0.00  0.00    +0.000 OA
ATOM     32  C   UNL     1       2.311   2.533  18.204  0.00  0.00    +0.000 C 
ATOM     33  C   UNL     1       1.452   3.753  17.858  0.00  0.00    +0.000 C 
ENDBRANCH  25  28
ENDBRANCH   3  25
TORSDOF 6
ENDMDL
MODEL 8
REMARK VINA RESULT:      -8.0      0.969      1.363
REMARK  Name = 
REMARK  6 active torsions:
REMARK  status: ('A' for Active; 'I' for Inactive)
REMARK    1  A    between atoms: C_2  and  C_3
REMARK    2  A    between atoms: C_4  and  C_5
REMARK    3  A    between atoms: N_12  and  C_13
REMARK    4  A    between atoms: C_15  and  S_16
REMARK    5  A    between atoms: S_16  and  N_19
REMARK    6  A    between atoms: C_27  and  N_28
REMARK                            x       y       z     vdW  Elec       q    Type
REMARK                         _______ _______ _______ _____ _____    ______ ____
ROOT
ATOM      1  C   UNL     1       0.911   8.830  20.371  0.00  0.00    +0.000 A 
ATOM      2  C   UNL     1       1.132   7.463  20.626  0.00  0.00    +0.000 A 
ATOM      3  C   UNL     1       1.850   6.681  19.731  0.00  0.00    +0.000 A 
ATOM      4  C   UNL     1       2.297   7.240  18.538  0.00  0.00    +0.000 A 
ATOM      5  C   UNL     1       2.116   8.609  18.299  0.00  0.00    +0.000 A 
ATOM      6  C   UNL     1       1.479   9.461  19.227  0.00  0.00    +0.000 A 
ENDROOT
BRANCH   6   7
ATOM      7  N   UNL     1       1.372  10.828  18.976  0.00  0.00    +0.000 N 
ATOM      8  C   UNL     1       2.331  11.570  18.152  0.00  0.00    +0.000 C 
ATOM      9  C   UNL     1       1.941  12.999  18.519  0.00  0.00    +0.000 C 
ATOM     10  C   UNL     1       0.417  12.950  18.478  0.00  0.00    +0.000 C 
ATOM     11  C   UNL     1       0.066  11.488  18.795  0.00  0.00    +0.000 C 
ENDBRANCH   6   7
BRANCH   1  14
ATOM     12  O   UNL     1       1.137   9.658  23.211  0.00  0.00    +0.000 OA
ATOM     13  C   UNL     1       0.150   9.875  22.516  0.00  0.00    +0.000 C 
ATOM     14  N   UNL     1      -0.001   9.562  21.180  0.00  0.00    +0.000 N 
ATOM     15  H   UNL     1      -0.837   9.851  20.689  0.00  0.00    +0.000 HD
BRANCH  13  16
ATOM     16  C   UNL     1      -1.008  10.619  23.088  0.00  0.00    +0.000 C 
ATOM     17  C   UNL     1      -1.369  11.775  22.518  0.00  0.00    +0.000 C 
BRANCH  17  18
ATOM     18  C   UNL     1      -2.600  12.519  22.834  0.00  0.00    +0.000 A 
ATOM     19  C   UNL     1      -2.993  13.670  22.137  0.00  0.00    +0.000 A 
ATOM     20  C   UNL     1      -4.092  14.415  22.571  0.00  0.00    +0.000 A 
ATOM     21  C   UNL     1      -4.811  13.998  23.685  0.00  0.00    +0.000 A 
ATOM     22  F   UNL     1      -5.831  14.742  24.130  0.00  0.00    +0.000 F 
ATOM     23  C   UNL     1      -4.479  12.824  24.349  0.00  0.00    +0.000 A 
ATOM     24  C   UNL     1      -3.382  12.078  23.915  0.00  0.00    +0.000 A 
ENDBRANCH  17  18
ENDBRANCH  13  16
ENDBRANCH   1  14
BRANCH   3  25
ATOM     25  S   UNL     1       2.173   4.957  20.021  0.00  0.00    +0.000 S 
ATOM     26  O   UNL     1       2.805   4.887  21.326  0.00  0.00    +0.000 OA
ATOM     27  O   UNL     1       0.936   4.252  19.757  0.00  0.00    +0.000 OA
BRANCH  25  28
ATOM     28  N   UNL     1       3.320   4.461  18.862  0.00  0.00    +0.000 NA
ATOM     29  C   UNL     1       2.819   3.776  17.628  0.00  0.00    +0.000 C 
ATOM     30  C   UNL     1       2.515   2.292  17.886  0.00  0.00    +0.000 C 
ATOM     31  O   UNL     1       3.644   1.597  18.438  0.00  0.00    +0.000 OA
ATOM     32  C   UNL     1       4.139   2.224  19.630  0.00  0.00    +0.000 C 
ATOM     33  C   UNL     1       4.492   3.695  19.394  0.00  0.00    +0.000 C 
ENDBRANCH  25  28
ENDBRANCH   3  25
TORSDOF 6
ENDMDL
MODEL 9
REMARK VINA RESULT:      -7.9      1.684      2.112
REMARK  Name = 
REMARK  6 active torsions:
REMARK  status: ('A' for Active; 'I' for Inactive)
REMARK    1  A    between atoms: C_2  and  C_3
REMARK    2  A    between atoms: C_4  and  C_5
REMARK    3  A    between atoms: N_12  and  C_13
REMARK    4  A    between atoms: C_15  and  S_16
REMARK    5  A    between atoms: S_16  and  N_19
REMARK    6  A    between atoms: C_27  and  N_28
REMARK                            x       y       z     vdW  Elec       q    Type
REMARK                         _______ _______ _______ _____ _____    ______ ____
ROOT
ATOM      1  C   UNL     1       1.270   9.406  20.211  0.00  0.00    +0.000 A 
ATOM      2  C   UNL     1       1.611   8.046  20.338  0.00  0.00    +0.000 A 
ATOM      3  C   UNL     1       2.105   7.334  19.253  0.00  0.00    +0.000 A 
ATOM      4  C   UNL     1       2.199   7.955  18.011  0.00  0.00    +0.000 A 
ATOM      5  C   UNL     1       1.901   9.319  17.890  0.00  0.00    +0.000 A 
ATOM      6  C   UNL     1       1.492  10.104  18.989  0.00  0.00    +0.000 A 
ENDROOT
BRANCH   6   7
ATOM      7  N   UNL     1       1.262  11.471  18.837  0.00  0.00    +0.000 N 
ATOM      8  C   UNL     1       2.222  12.380  18.204  0.00  0.00    +0.000 C 
ATOM      9  C   UNL     1       1.633  13.722  18.632  0.00  0.00    +0.000 C 
ATOM     10  C   UNL     1       0.140  13.523  18.394  0.00  0.00    +0.000 C 
ATOM     11  C   UNL     1      -0.079  12.009  18.546  0.00  0.00    +0.000 C 
ENDBRANCH   6   7
BRANCH   1  14
ATOM     12  O   UNL     1      -0.774   8.343  22.081  0.00  0.00    +0.000 OA
ATOM     13  C   UNL     1      -0.408   9.514  22.068  0.00  0.00    +0.000 C 
ATOM     14  N   UNL     1       0.570  10.061  21.262  0.00  0.00    +0.000 N 
ATOM     15  H   UNL     1       0.839  11.028  21.386  0.00  0.00    +0.000 HD
BRANCH  13  16
ATOM     16  C   UNL     1      -0.977  10.478  23.051  0.00  0.00    +0.000 C 
ATOM     17  C   UNL     1      -1.254  11.721  22.640  0.00  0.00    +0.000 C 
BRANCH  17  18
ATOM     18  C   UNL     1      -1.998  12.720  23.426  0.00  0.00    +0.000 A 
ATOM     19  C   UNL     1      -3.328  12.534  23.829  0.00  0.00    +0.000 A 
ATOM     20  C   UNL     1      -4.027  13.573  24.448  0.00  0.00    +0.000 A 
ATOM     21  C   UNL     1      -3.392  14.786  24.685  0.00  0.00    +0.000 A 
ATOM     22  F   UNL     1      -4.080  15.797  25.230  0.00  0.00    +0.000 F 
ATOM     23  C   UNL     1      -2.055  14.968  24.355  0.00  0.00    +0.000 A 
ATOM     24  C   UNL     1      -1.355  13.930  23.738  0.00  0.00    +0.000 A 
ENDBRANCH  17  18
ENDBRANCH  13  16
ENDBRANCH   1  14
BRANCH   3  25
ATOM     25  S   UNL     1       2.568   5.621  19.370  0.00  0.00    +0.000 S 
ATOM     26  O   UNL     1       2.279   5.227  20.736  0.00  0.00    +0.000 OA
ATOM     27  O   UNL     1       1.943   4.944  18.254  0.00  0.00    +0.000 OA
BRANCH  25  28
ATOM     28  N   UNL     1       4.258   5.545  19.155  0.00  0.00    +0.000 NA
ATOM     29  C   UNL     1       4.840   6.206  17.943  0.00  0.00    +0.000 C 
ATOM     30  C   UNL     1       4.692   5.328  16.691  0.00  0.00    +0.000 C 
ATOM     31  O   UNL     1       5.248   4.018  16.880  0.00  0.00    +0.000 OA
ATOM     32  C   UNL     1       4.700   3.353  18.027  0.00  0.00    +0.000 C 
ATOM     33  C   UNL     1       4.870   4.186  19.302  0.00  0.00    +0.000 C 
ENDBRANCH  25  28
ENDBRANCH   3  25
TORSDOF 6
ENDMDL
