MODEL 1
REMARK VINA RESULT:      -7.9      0.000      0.000
REMARK  Name = 
REMARK  6 active torsions:
REMARK  status: ('A' for Active; 'I' for Inactive)
REMARK    1  A    between atoms: C_1  and  C_2
REMARK    2  A    between atoms: C_2  and  C_3
REMARK    3  A    between atoms: C_6  and  C_7
REMARK    4  A    between atoms: N_12  and  C_13
REMARK    5  A    between atoms: C_13  and  C_14
REMARK    6  A    between atoms: C_17  and  C_18
REMARK                            x       y       z     vdW  Elec       q    Type
REMARK                         _______ _______ _______ _____ _____    ______ ____
ROOT
ATOM      1  C   UNL     1       5.570   4.198  18.601  0.00  0.00    +0.000 C 
ATOM      2  C   UNL     1       5.766   5.402  19.557  0.00  0.00    +0.000 C 
ATOM      3  O   UNL     1       7.149   5.617  19.882  0.00  0.00    +0.000 OA
ATOM      4  C   UNL     1       7.936   5.766  18.695  0.00  0.00    +0.000 C 
ATOM      5  C   UNL     1       7.806   4.524  17.800  0.00  0.00    +0.000 C 
ATOM      6  N   UNL     1       6.416   4.231  17.366  0.00  0.00    +0.000 NA
ENDROOT
BRANCH   1  10
ATOM      7  C   UNL     1       2.020   3.628  18.905  0.00  0.00    +0.000 A 
ATOM      8  C   UNL     1       2.100   3.338  17.561  0.00  0.00    +0.000 A 
ATOM      9  C   UNL     1       3.449   3.532  17.191  0.00  0.00    +0.000 A 
ATOM     10  C   UNL     1       4.123   3.903  18.337  0.00  0.00    +0.000 A 
ATOM     11  O   UNL     1       3.248   3.977  19.386  0.00  0.00    +0.000 OA
BRANCH   7  13
ATOM     12  C   UNL     1       1.229   2.901  21.132  0.00  0.00    +0.000 C 
ATOM     13  C   UNL     1       0.882   3.654  19.859  0.00  0.00    +0.000 C 
ENDBRANCH   7  13
ENDBRANCH   1  10
BRANCH   6  14
ATOM     14  C   UNL     1       5.929   5.192  16.345  0.00  0.00    +0.000 C 
BRANCH  14  15
ATOM     15  C   UNL     1       6.356   4.868  14.943  0.00  0.00    +0.000 A 
ATOM     16  N   UNL     1       7.367   5.359  14.253  0.00  0.00    +0.000 NA
ATOM     17  N   UNL     1       7.337   4.745  13.019  0.00  0.00    +0.000 NA
ATOM     18  C   UNL     1       6.310   3.924  13.038  0.00  0.00    +0.000 A 
ATOM     19  C   UNL     1       5.807   3.043  11.969  0.00  0.00    +0.000 C 
ATOM     20  O   UNL     1       5.630   3.944  14.227  0.00  0.00    +0.000 OA
ENDBRANCH  14  15
ENDBRANCH   6  14
TORSDOF 4
ENDMDL
MODEL 2
REMARK VINA RESULT:      -7.5      1.642      4.594
REMARK  Name = 
REMARK  6 active torsions:
REMARK  status: ('A' for Active; 'I' for Inactive)
REMARK    1  A    between atoms: C_1  and  C_2
REMARK    2  A    between atoms: C_2  and  C_3
REMARK    3  A    between atoms: C_6  and  C_7
REMARK    4  A    between atoms: N_12  and  C_13
REMARK    5  A    between atoms: C_13  and  C_14
REMARK    6  A    between atoms: C_17  and  C_18
REMARK                            x       y       z     vdW  Elec       q    Type
REMARK                         _______ _______ _______ _____ _____    ______ ____
ROOT
ATOM      1  C   UNL     1       4.775   5.007  18.309  0.00  0.00    +0.000 C 
ATOM      2  C   UNL     1       4.518   3.955  19.417  0.00  0.00    +0.000 C 
ATOM      3  O   UNL     1       3.230   3.331  19.284  0.00  0.00    +0.000 OA
ATOM      4  C   UNL     1       3.071   2.759  17.981  0.00  0.00    +0.000 C 
ATOM      5  C   UNL     1       3.236   3.833  16.894  0.00  0.00    +0.000 C 
ATOM      6  N   UNL     1       4.556   4.517  16.911  0.00  0.00    +0.000 NA
ENDROOT
BRANCH   1  10
ATOM      7  C   UNL     1       7.524   7.337  18.109  0.00  0.00    +0.000 A 
ATOM      8  C   UNL     1       8.125   6.477  19.000  0.00  0.00    +0.000 A 
ATOM      9  C   UNL     1       7.186   5.457  19.266  0.00  0.00    +0.000 A 
ATOM     10  C   UNL     1       6.073   5.736  18.499  0.00  0.00    +0.000 A 
ATOM     11  O   UNL     1       6.270   6.895  17.800  0.00  0.00    +0.000 OA
BRANCH   7  13
ATOM     12  C   UNL     1       8.664   9.495  18.506  0.00  0.00    +0.000 C 
ATOM     13  C   UNL     1       7.970   8.608  17.485  0.00  0.00    +0.000 C 
ENDBRANCH   7  13
ENDBRANCH   1  10
BRANCH   6  14
ATOM     14  C   UNL     1       5.649   3.646  16.416  0.00  0.00    +0.000 C 
BRANCH  14  15
ATOM     15  C   UNL     1       6.382   4.196  15.226  0.00  0.00    +0.000 A 
ATOM     16  N   UNL     1       7.228   5.205  15.171  0.00  0.00    +0.000 NA
ATOM     17  N   UNL     1       7.626   5.315  13.856  0.00  0.00    +0.000 NA
ATOM     18  C   UNL     1       6.994   4.369  13.197  0.00  0.00    +0.000 A 
ATOM     19  C   UNL     1       7.033   4.055  11.757  0.00  0.00    +0.000 C 
ATOM     20  O   UNL     1       6.179   3.612  13.997  0.00  0.00    +0.000 OA
ENDBRANCH  14  15
ENDBRANCH   6  14
TORSDOF 4
ENDMDL
MODEL 3
REMARK VINA RESULT:      -7.5      3.205      4.926
REMARK  Name = 
REMARK  6 active torsions:
REMARK  status: ('A' for Active; 'I' for Inactive)
REMARK    1  A    between atoms: C_1  and  C_2
REMARK    2  A    between atoms: C_2  and  C_3
REMARK    3  A    between atoms: C_6  and  C_7
REMARK    4  A    between atoms: N_12  and  C_13
REMARK    5  A    between atoms: C_13  and  C_14
REMARK    6  A    between atoms: C_17  and  C_18
REMARK                            x       y       z     vdW  Elec       q    Type
REMARK                         _______ _______ _______ _____ _____    ______ ____
ROOT
ATOM      1  C   UNL     1       2.540   4.617  18.160  0.00  0.00    +0.000 C 
ATOM      2  C   UNL     1       1.615   3.672  18.968  0.00  0.00    +0.000 C 
ATOM      3  O   UNL     1       1.689   2.313  18.503  0.00  0.00    +0.000 OA
ATOM      4  C   UNL     1       3.041   1.843  18.510  0.00  0.00    +0.000 C 
ATOM      5  C   UNL     1       3.928   2.737  17.628  0.00  0.00    +0.000 C 
ATOM      6  N   UNL     1       3.962   4.162  18.047  0.00  0.00    +0.000 NA
ENDROOT
BRANCH   1  10
ATOM      7  C   UNL     1       1.862   7.677  19.949  0.00  0.00    +0.000 A 
ATOM      8  C   UNL     1       2.250   8.278  18.771  0.00  0.00    +0.000 A 
ATOM      9  C   UNL     1       2.609   7.235  17.891  0.00  0.00    +0.000 A 
ATOM     10  C   UNL     1       2.393   6.053  18.570  0.00  0.00    +0.000 A 
ATOM     11  O   UNL     1       1.950   6.320  19.836  0.00  0.00    +0.000 OA
BRANCH   7  13
ATOM     12  C   UNL     1       0.449   9.377  21.056  0.00  0.00    +0.000 C 
ATOM     13  C   UNL     1       1.419   8.224  21.255  0.00  0.00    +0.000 C 
ENDBRANCH   7  13
ENDBRANCH   1  10
BRANCH   6  14
ATOM     14  C   UNL     1       4.745   4.367  19.290  0.00  0.00    +0.000 C 
BRANCH  14  15
ATOM     15  C   UNL     1       5.995   5.179  19.102  0.00  0.00    +0.000 A 
ATOM     16  N   UNL     1       7.125   5.125  19.778  0.00  0.00    +0.000 NA
ATOM     17  N   UNL     1       7.963   6.068  19.224  0.00  0.00    +0.000 NA
ATOM     18  C   UNL     1       7.287   6.636  18.249  0.00  0.00    +0.000 A 
ATOM     19  C   UNL     1       7.699   7.727  17.347  0.00  0.00    +0.000 C 
ATOM     20  O   UNL     1       6.022   6.128  18.106  0.00  0.00    +0.000 OA
ENDBRANCH  14  15
ENDBRANCH   6  14
TORSDOF 4
ENDMDL
MODEL 4
REMARK VINA RESULT:      -7.5      2.976      4.171
REMARK  Name = 
REMARK  6 active torsions:
REMARK  status: ('A' for Active; 'I' for Inactive)
REMARK    1  A    between atoms: C_1  and  C_2
REMARK    2  A    between atoms: C_2  and  C_3
REMARK    3  A    between atoms: C_6  and  C_7
REMARK    4  A    between atoms: N_12  and  C_13
REMARK    5  A    between atoms: C_13  and  C_14
REMARK    6  A    between atoms: C_17  and  C_18
REMARK                            x       y       z     vdW  Elec       q    Type
REMARK                         _______ _______ _______ _____ _____    ______ ____
ROOT
ATOM      1  C   UNL     1       2.568   4.663  19.514  0.00  0.00    +0.000 C 
ATOM      2  C   UNL     1       2.393   4.376  21.027  0.00  0.00    +0.000 C 
ATOM      3  O   UNL     1       2.441   2.970  21.321  0.00  0.00    +0.000 OA
ATOM      4  C   UNL     1       3.648   2.384  20.820  0.00  0.00    +0.000 C 
ATOM      5  C   UNL     1       3.762   2.595  19.302  0.00  0.00    +0.000 C 
ATOM      6  N   UNL     1       3.767   4.022  18.886  0.00  0.00    +0.000 NA
ENDROOT
BRANCH   1  10
ATOM      7  C   UNL     1       1.788   8.186  19.576  0.00  0.00    +0.000 A 
ATOM      8  C   UNL     1       2.311   8.174  18.301  0.00  0.00    +0.000 A 
ATOM      9  C   UNL     1       2.732   6.849  18.056  0.00  0.00    +0.000 A 
ATOM     10  C   UNL     1       2.417   6.119  19.184  0.00  0.00    +0.000 A 
ATOM     11  O   UNL     1       1.852   6.937  20.123  0.00  0.00    +0.000 OA
BRANCH   7  13
ATOM     12  C   UNL     1       1.057   8.805  21.855  0.00  0.00    +0.000 C 
ATOM     13  C   UNL     1       1.227   9.271  20.419  0.00  0.00    +0.000 C 
ENDBRANCH   7  13
ENDBRANCH   1  10
BRANCH   6  14
ATOM     14  C   UNL     1       5.041   4.703  19.220  0.00  0.00    +0.000 C 
BRANCH  14  15
ATOM     15  C   UNL     1       6.081   4.625  18.140  0.00  0.00    +0.000 A 
ATOM     16  N   UNL     1       7.390   4.520  18.259  0.00  0.00    +0.000 NA
ATOM     17  N   UNL     1       7.902   4.486  16.980  0.00  0.00    +0.000 NA
ATOM     18  C   UNL     1       6.872   4.575  16.166  0.00  0.00    +0.000 A 
ATOM     19  C   UNL     1       6.854   4.611  14.693  0.00  0.00    +0.000 C 
ATOM     20  O   UNL     1       5.674   4.669  16.826  0.00  0.00    +0.000 OA
ENDBRANCH  14  15
ENDBRANCH   6  14
TORSDOF 4
ENDMDL
MODEL 5
REMARK VINA RESULT:      -7.5      3.182      5.135
REMARK  Name = 
REMARK  6 active torsions:
REMARK  status: ('A' for Active; 'I' for Inactive)
REMARK    1  A    between atoms: C_1  and  C_2
REMARK    2  A    between atoms: C_2  and  C_3
REMARK    3  A    between atoms: C_6  and  C_7
REMARK    4  A    between atoms: N_12  and  C_13
REMARK    5  A    between atoms: C_13  and  C_14
REMARK    6  A    between atoms: C_17  and  C_18
REMARK                            x       y       z     vdW  Elec       q    Type
REMARK                         _______ _______ _______ _____ _____    ______ ____
ROOT
ATOM      1  C   UNL     1       2.495   4.503  18.276  0.00  0.00    +0.000 C 
ATOM      2  C   UNL     1       1.675   3.430  19.036  0.00  0.00    +0.000 C 
ATOM      3  O   UNL     1       1.820   2.123  18.454  0.00  0.00    +0.000 OA
ATOM      4  C   UNL     1       3.201   1.754  18.367  0.00  0.00    +0.000 C 
ATOM      5  C   UNL     1       3.983   2.779  17.531  0.00  0.00    +0.000 C 
ATOM      6  N   UNL     1       3.938   4.163  18.069  0.00  0.00    +0.000 NA
ENDROOT
BRANCH   1  10
ATOM      7  C   UNL     1       2.116   8.071  18.665  0.00  0.00    +0.000 A 
ATOM      8  C   UNL     1       1.955   7.761  19.997  0.00  0.00    +0.000 A 
ATOM      9  C   UNL     1       2.034   6.354  20.091  0.00  0.00    +0.000 A 
ATOM     10  C   UNL     1       2.268   5.886  18.814  0.00  0.00    +0.000 A 
ATOM     11  O   UNL     1       2.305   6.933  17.935  0.00  0.00    +0.000 OA
BRANCH   7  13
ATOM     12  C   UNL     1       1.165  10.353  18.606  0.00  0.00    +0.000 C 
ATOM     13  C   UNL     1       2.090   9.358  17.925  0.00  0.00    +0.000 C 
ENDBRANCH   7  13
ENDBRANCH   1  10
BRANCH   6  14
ATOM     14  C   UNL     1       4.761   4.321  19.293  0.00  0.00    +0.000 C 
BRANCH  14  15
ATOM     15  C   UNL     1       6.001   5.145  19.098  0.00  0.00    +0.000 A 
ATOM     16  N   UNL     1       7.138   5.096  19.762  0.00  0.00    +0.000 NA
ATOM     17  N   UNL     1       7.962   6.052  19.206  0.00  0.00    +0.000 NA
ATOM     18  C   UNL     1       7.270   6.622  18.244  0.00  0.00    +0.000 A 
ATOM     19  C   UNL     1       7.662   7.724  17.346  0.00  0.00    +0.000 C 
ATOM     20  O   UNL     1       6.009   6.103  18.110  0.00  0.00    +0.000 OA
ENDBRANCH  14  15
ENDBRANCH   6  14
TORSDOF 4
ENDMDL
MODEL 6
REMARK VINA RESULT:      -7.5      2.817      4.377
REMARK  Name = 
REMARK  6 active torsions:
REMARK  status: ('A' for Active; 'I' for Inactive)
REMARK    1  A    between atoms: C_1  and  C_2
REMARK    2  A    between atoms: C_2  and  C_3
REMARK    3  A    between atoms: C_6  and  C_7
REMARK    4  A    between atoms: N_12  and  C_13
REMARK    5  A    between atoms: C_13  and  C_14
REMARK    6  A    between atoms: C_17  and  C_18
REMARK                            x       y       z     vdW  Elec       q    Type
REMARK                         _______ _______ _______ _____ _____    ______ ____
ROOT
ATOM      1  C   UNL     1       2.247   4.131  18.739  0.00  0.00    +0.000 C 
ATOM      2  C   UNL     1       1.971   3.161  19.916  0.00  0.00    +0.000 C 
ATOM      3  O   UNL     1       1.980   1.786  19.499  0.00  0.00    +0.000 OA
ATOM      4  C   UNL     1       3.209   1.460  18.839  0.00  0.00    +0.000 C 
ATOM      5  C   UNL     1       3.424   2.368  17.618  0.00  0.00    +0.000 C 
ATOM      6  N   UNL     1       3.475   3.818  17.941  0.00  0.00    +0.000 NA
ENDROOT
BRANCH   1  10
ATOM      7  C   UNL     1       2.133   7.738  18.784  0.00  0.00    +0.000 A 
ATOM      8  C   UNL     1       1.999   7.570  20.145  0.00  0.00    +0.000 A 
ATOM      9  C   UNL     1       1.983   6.177  20.374  0.00  0.00    +0.000 A 
ATOM     10  C   UNL     1       2.138   5.572  19.144  0.00  0.00    +0.000 A 
ATOM     11  O   UNL     1       2.215   6.524  18.165  0.00  0.00    +0.000 OA
BRANCH   7  13
ATOM     12  C   UNL     1       0.881   9.739  18.050  0.00  0.00    +0.000 C 
ATOM     13  C   UNL     1       2.171   8.945  17.922  0.00  0.00    +0.000 C 
ENDBRANCH   7  13
ENDBRANCH   1  10
BRANCH   6  14
ATOM     14  C   UNL     1       4.734   4.200  18.625  0.00  0.00    +0.000 C 
BRANCH  14  15
ATOM     15  C   UNL     1       5.908   4.367  17.703  0.00  0.00    +0.000 A 
ATOM     16  N   UNL     1       7.192   4.402  17.999  0.00  0.00    +0.000 NA
ATOM     17  N   UNL     1       7.867   4.574  16.809  0.00  0.00    +0.000 NA
ATOM     18  C   UNL     1       6.950   4.635  15.869  0.00  0.00    +0.000 A 
ATOM     19  C   UNL     1       7.120   4.837  14.418  0.00  0.00    +0.000 C 
ATOM     20  O   UNL     1       5.674   4.513  16.355  0.00  0.00    +0.000 OA
ENDBRANCH  14  15
ENDBRANCH   6  14
TORSDOF 4
ENDMDL
MODEL 7
REMARK VINA RESULT:      -7.4      2.886      4.721
REMARK  Name = 
REMARK  6 active torsions:
REMARK  status: ('A' for Active; 'I' for Inactive)
REMARK    1  A    between atoms: C_1  and  C_2
REMARK    2  A    between atoms: C_2  and  C_3
REMARK    3  A    between atoms: C_6  and  C_7
REMARK    4  A    between atoms: N_12  and  C_13
REMARK    5  A    between atoms: C_13  and  C_14
REMARK    6  A    between atoms: C_17  and  C_18
REMARK                            x       y       z     vdW  Elec       q    Type
REMARK                         _______ _______ _______ _____ _____    ______ ____
ROOT
ATOM      1  C   UNL     1       2.482   4.120  18.520  0.00  0.00    +0.000 C 
ATOM      2  C   UNL     1       2.150   3.116  19.653  0.00  0.00    +0.000 C 
ATOM      3  O   UNL     1       2.213   1.752  19.205  0.00  0.00    +0.000 OA
ATOM      4  C   UNL     1       3.488   1.466  18.619  0.00  0.00    +0.000 C 
ATOM      5  C   UNL     1       3.763   2.408  17.436  0.00  0.00    +0.000 C 
ATOM      6  N   UNL     1       3.765   3.849  17.796  0.00  0.00    +0.000 NA
ENDROOT
BRANCH   1  10
ATOM      7  C   UNL     1       2.259   7.720  18.636  0.00  0.00    +0.000 A 
ATOM      8  C   UNL     1       2.092   7.519  19.989  0.00  0.00    +0.000 A 
ATOM      9  C   UNL     1       2.112   6.122  20.189  0.00  0.00    +0.000 A 
ATOM     10  C   UNL     1       2.319   5.548  18.951  0.00  0.00    +0.000 A 
ATOM     11  O   UNL     1       2.394   6.523  17.995  0.00  0.00    +0.000 OA
BRANCH   7  13
ATOM     12  C   UNL     1       1.355  10.006  18.370  0.00  0.00    +0.000 C 
ATOM     13  C   UNL     1       2.283   8.946  17.800  0.00  0.00    +0.000 C 
ENDBRANCH   7  13
ENDBRANCH   1  10
BRANCH   6  14
ATOM     14  C   UNL     1       4.970   4.238  18.570  0.00  0.00    +0.000 C 
BRANCH  14  15
ATOM     15  C   UNL     1       5.943   5.089  17.805  0.00  0.00    +0.000 A 
ATOM     16  N   UNL     1       6.536   4.835  16.656  0.00  0.00    +0.000 NA
ATOM     17  N   UNL     1       7.335   5.924  16.376  0.00  0.00    +0.000 NA
ATOM     18  C   UNL     1       7.177   6.766  17.374  0.00  0.00    +0.000 A 
ATOM     19  C   UNL     1       7.817   8.075  17.593  0.00  0.00    +0.000 C 
ATOM     20  O   UNL     1       6.307   6.308  18.329  0.00  0.00    +0.000 OA
ENDBRANCH  14  15
ENDBRANCH   6  14
TORSDOF 4
ENDMDL
MODEL 8
REMARK VINA RESULT:      -7.3      3.291      5.499
REMARK  Name = 
REMARK  6 active torsions:
REMARK  status: ('A' for Active; 'I' for Inactive)
REMARK    1  A    between atoms: C_1  and  C_2
REMARK    2  A    between atoms: C_2  and  C_3
REMARK    3  A    between atoms: C_6  and  C_7
REMARK    4  A    between atoms: N_12  and  C_13
REMARK    5  A    between atoms: C_13  and  C_14
REMARK    6  A    between atoms: C_17  and  C_18
REMARK                            x       y       z     vdW  Elec       q    Type
REMARK                         _______ _______ _______ _____ _____    ______ ____
ROOT
ATOM      1  C   UNL     1       4.641   6.209  17.532  0.00  0.00    +0.000 C 
ATOM      2  C   UNL     1       5.030   6.610  16.087  0.00  0.00    +0.000 C 
ATOM      3  O   UNL     1       6.166   5.871  15.607  0.00  0.00    +0.000 OA
ATOM      4  C   UNL     1       5.938   4.461  15.709  0.00  0.00    +0.000 C 
ATOM      5  C   UNL     1       5.646   4.064  17.165  0.00  0.00    +0.000 C 
ATOM      6  N   UNL     1       4.459   4.739  17.751  0.00  0.00    +0.000 NA
ENDROOT
BRANCH   1  10
ATOM      7  C   UNL     1       2.041   7.637  19.589  0.00  0.00    +0.000 A 
ATOM      8  C   UNL     1       1.826   8.449  18.497  0.00  0.00    +0.000 A 
ATOM      9  C   UNL     1       2.790   8.082  17.532  0.00  0.00    +0.000 A 
ATOM     10  C   UNL     1       3.521   7.047  18.079  0.00  0.00    +0.000 A 
ATOM     11  O   UNL     1       3.076   6.781  19.344  0.00  0.00    +0.000 OA
BRANCH   7  13
ATOM     12  C   UNL     1       0.850   8.917  21.337  0.00  0.00    +0.000 C 
ATOM     13  C   UNL     1       1.396   7.560  20.923  0.00  0.00    +0.000 C 
ENDBRANCH   7  13
ENDBRANCH   1  10
BRANCH   6  14
ATOM     14  C   UNL     1       3.183   4.216  17.203  0.00  0.00    +0.000 C 
BRANCH  14  15
ATOM     15  C   UNL     1       2.289   3.579  18.228  0.00  0.00    +0.000 A 
ATOM     16  N   UNL     1       1.100   3.035  18.062  0.00  0.00    +0.000 NA
ATOM     17  N   UNL     1       0.693   2.592  19.303  0.00  0.00    +0.000 NA
ATOM     18  C   UNL     1       1.658   2.899  20.141  0.00  0.00    +0.000 A 
ATOM     19  C   UNL     1       1.729   2.677  21.597  0.00  0.00    +0.000 C 
ATOM     20  O   UNL     1       2.712   3.533  19.536  0.00  0.00    +0.000 OA
ENDBRANCH  14  15
ENDBRANCH   6  14
TORSDOF 4
ENDMDL
MODEL 9
REMARK VINA RESULT:      -7.2      1.112      1.267
REMARK  Name = 
REMARK  6 active torsions:
REMARK  status: ('A' for Active; 'I' for Inactive)
REMARK    1  A    between atoms: C_1  and  C_2
REMARK    2  A    between atoms: C_2  and  C_3
REMARK    3  A    between atoms: C_6  and  C_7
REMARK    4  A    between atoms: N_12  and  C_13
REMARK    5  A    between atoms: C_13  and  C_14
REMARK    6  A    between atoms: C_17  and  C_18
REMARK                            x       y       z     vdW  Elec       q    Type
REMARK                         _______ _______ _______ _____ _____    ______ ____
ROOT
ATOM      1  C   UNL     1       5.504   4.002  18.614  0.00  0.00    +0.000 C 
ATOM      2  C   UNL     1       5.577   5.316  19.431  0.00  0.00    +0.000 C 
ATOM      3  O   UNL     1       6.930   5.765  19.617  0.00  0.00    +0.000 OA
ATOM      4  C   UNL     1       7.601   5.901  18.360  0.00  0.00    +0.000 C 
ATOM      5  C   UNL     1       7.603   4.564  17.601  0.00  0.00    +0.000 C 
ATOM      6  N   UNL     1       6.247   4.026  17.314  0.00  0.00    +0.000 NA
ENDROOT
BRANCH   1  10
ATOM      7  C   UNL     1       2.049   3.138  19.198  0.00  0.00    +0.000 A 
ATOM      8  C   UNL     1       2.169   2.462  18.004  0.00  0.00    +0.000 A 
ATOM      9  C   UNL     1       3.485   2.692  17.547  0.00  0.00    +0.000 A 
ATOM     10  C   UNL     1       4.105   3.472  18.502  0.00  0.00    +0.000 A 
ATOM     11  O   UNL     1       3.224   3.759  19.508  0.00  0.00    +0.000 OA
BRANCH   7  13
ATOM     12  C   UNL     1       1.277   2.822  21.526  0.00  0.00    +0.000 C 
ATOM     13  C   UNL     1       0.914   3.320  20.137  0.00  0.00    +0.000 C 
ENDBRANCH   7  13
ENDBRANCH   1  10
BRANCH   6  14
ATOM     14  C   UNL     1       5.549   4.791  16.252  0.00  0.00    +0.000 C 
BRANCH  14  15
ATOM     15  C   UNL     1       6.166   4.654  14.890  0.00  0.00    +0.000 A 
ATOM     16  N   UNL     1       5.954   3.727  13.977  0.00  0.00    +0.000 NA
ATOM     17  N   UNL     1       6.757   4.041  12.902  0.00  0.00    +0.000 NA
ATOM     18  C   UNL     1       7.407   5.136  13.232  0.00  0.00    +0.000 A 
ATOM     19  C   UNL     1       8.414   5.885  12.460  0.00  0.00    +0.000 C 
ATOM     20  O   UNL     1       7.088   5.591  14.485  0.00  0.00    +0.000 OA
ENDBRANCH  14  15
ENDBRANCH   6  14
TORSDOF 4
ENDMDL
