MODEL 1
REMARK VINA RESULT:      -7.1      0.000      0.000
REMARK  Name = 
REMARK  7 active torsions:
REMARK  status: ('A' for Active; 'I' for Inactive)
REMARK    1  A    between atoms: C_1  and  C_2
REMARK    2  A    between atoms: C_2  and  C_3
REMARK    3  A    between atoms: C_2  and  C_4
REMARK    4  A    between atoms: C_2  and  O_5
REMARK    5  A    between atoms: O_5  and  C_6
REMARK    6  A    between atoms: C_6  and  C_8
REMARK    7  A    between atoms: C_22  and  O_23
REMARK                            x       y       z     vdW  Elec       q    Type
REMARK                         _______ _______ _______ _____ _____    ______ ____
ROOT
ATOM      1  C   UNL     1       5.407   5.060  15.189  0.00  0.00    +0.000 A 
ATOM      2  N   UNL     1       5.594   6.416  14.988  0.00  0.00    +0.000 NA
ATOM      3  C   UNL     1       4.948   7.011  15.966  0.00  0.00    +0.000 A 
ATOM      4  N   UNL     1       4.387   6.111  16.839  0.00  0.00    +0.000 N 
ATOM      5  C   UNL     1       4.575   4.863  16.294  0.00  0.00    +0.000 A 
ATOM      6  C   UNL     1       3.988   3.626  16.850  0.00  0.00    +0.000 C 
ATOM      7  C   UNL     1       2.479   3.477  16.998  0.00  0.00    +0.000 C 
ATOM      8  C   UNL     1       2.365   2.324  18.021  0.00  0.00    +0.000 C 
ATOM      9  C   UNL     1       3.787   2.127  18.583  0.00  0.00    +0.000 C 
ATOM     10  N   UNL     1       4.483   3.334  18.175  0.00  0.00    +0.000 N 
ATOM     11  C   UNL     1       4.583   4.275  19.197  0.00  0.00    +0.000 C 
ATOM     12  O   UNL     1       5.157   4.025  20.258  0.00  0.00    +0.000 OA
ATOM     13  C   UNL     1       3.763   5.512  19.124  0.00  0.00    +0.000 A 
ATOM     14  C   UNL     1       2.972   5.757  20.260  0.00  0.00    +0.000 A 
ATOM     15  C   UNL     1       2.109   6.842  20.282  0.00  0.00    +0.000 A 
ATOM     16  C   UNL     1       2.065   7.734  19.218  0.00  0.00    +0.000 A 
ATOM     17  C   UNL     1       2.879   7.533  18.101  0.00  0.00    +0.000 A 
ATOM     18  C   UNL     1       3.700   6.396  18.036  0.00  0.00    +0.000 A 
ENDROOT
BRANCH   1  19
ATOM     19  C   UNL     1       5.988   4.006  14.342  0.00  0.00    +0.000 C 
ATOM     20  O   UNL     1       7.162   3.658  14.451  0.00  0.00    +0.000 OA
BRANCH  19  21
ATOM     21  O   UNL     1       5.119   3.470  13.433  0.00  0.00    +0.000 OA
BRANCH  21  23
ATOM     22  C   UNL     1       5.950   1.862  11.748  0.00  0.00    +0.000 C 
ATOM     23  C   UNL     1       5.551   3.314  12.052  0.00  0.00    +0.000 C 
ATOM     24  C   UNL     1       6.674   4.304  11.704  0.00  0.00    +0.000 C 
ATOM     25  C   UNL     1       4.333   3.657  11.179  0.00  0.00    +0.000 C 
ENDBRANCH  21  23
ENDBRANCH  19  21
ENDBRANCH   1  19
BRANCH  15  26
ATOM     26  O   UNL     1       1.265   7.050  21.330  0.00  0.00    +0.000 OA
ATOM     27  H   UNL     1       0.392   6.682  21.112  0.00  0.00    +0.000 HD
ENDBRANCH  15  26
TORSDOF 4
ENDMDL
MODEL 2
REMARK VINA RESULT:      -7.0      2.919      7.581
REMARK  Name = 
REMARK  7 active torsions:
REMARK  status: ('A' for Active; 'I' for Inactive)
REMARK    1  A    between atoms: C_1  and  C_2
REMARK    2  A    between atoms: C_2  and  C_3
REMARK    3  A    between atoms: C_2  and  C_4
REMARK    4  A    between atoms: C_2  and  O_5
REMARK    5  A    between atoms: O_5  and  C_6
REMARK    6  A    between atoms: C_6  and  C_8
REMARK    7  A    between atoms: C_22  and  O_23
REMARK                            x       y       z     vdW  Elec       q    Type
REMARK                         _______ _______ _______ _____ _____    ______ ____
ROOT
ATOM      1  C   UNL     1       1.450   8.121  19.953  0.00  0.00    +0.000 A 
ATOM      2  N   UNL     1       1.959   9.037  19.048  0.00  0.00    +0.000 NA
ATOM      3  C   UNL     1       2.737   8.345  18.245  0.00  0.00    +0.000 A 
ATOM      4  N   UNL     1       2.725   7.004  18.541  0.00  0.00    +0.000 N 
ATOM      5  C   UNL     1       1.997   6.861  19.699  0.00  0.00    +0.000 A 
ATOM      6  C   UNL     1       1.867   5.588  20.437  0.00  0.00    +0.000 C 
ATOM      7  C   UNL     1       3.100   4.866  20.968  0.00  0.00    +0.000 C 
ATOM      8  C   UNL     1       2.564   3.434  21.198  0.00  0.00    +0.000 C 
ATOM      9  C   UNL     1       1.187   3.392  20.506  0.00  0.00    +0.000 C 
ATOM     10  N   UNL     1       1.195   4.573  19.661  0.00  0.00    +0.000 N 
ATOM     11  C   UNL     1       1.487   4.284  18.330  0.00  0.00    +0.000 C 
ATOM     12  O   UNL     1       0.786   3.525  17.660  0.00  0.00    +0.000 OA
ATOM     13  C   UNL     1       2.806   4.685  17.776  0.00  0.00    +0.000 A 
ATOM     14  C   UNL     1       3.529   3.640  17.174  0.00  0.00    +0.000 A 
ATOM     15  C   UNL     1       4.805   3.873  16.684  0.00  0.00    +0.000 A 
ATOM     16  C   UNL     1       5.355   5.148  16.718  0.00  0.00    +0.000 A 
ATOM     17  C   UNL     1       4.632   6.208  17.270  0.00  0.00    +0.000 A 
ATOM     18  C   UNL     1       3.371   5.968  17.837  0.00  0.00    +0.000 A 
ENDROOT
BRANCH   1  19
ATOM     19  C   UNL     1       0.497   8.453  21.025  0.00  0.00    +0.000 C 
ATOM     20  O   UNL     1      -0.449   7.719  21.302  0.00  0.00    +0.000 OA
BRANCH  19  21
ATOM     21  O   UNL     1       0.753   9.636  21.660  0.00  0.00    +0.000 OA
BRANCH  21  23
ATOM     22  C   UNL     1      -0.958  11.137  22.628  0.00  0.00    +0.000 C 
ATOM     23  C   UNL     1      -0.111  10.777  21.398  0.00  0.00    +0.000 C 
ATOM     24  C   UNL     1      -0.977  10.547  20.150  0.00  0.00    +0.000 C 
ATOM     25  C   UNL     1       0.822  11.966  21.111  0.00  0.00    +0.000 C 
ENDBRANCH  21  23
ENDBRANCH  19  21
ENDBRANCH   1  19
BRANCH  15  26
ATOM     26  O   UNL     1       5.563   2.860  16.181  0.00  0.00    +0.000 OA
ATOM     27  H   UNL     1       6.253   3.235  15.608  0.00  0.00    +0.000 HD
ENDBRANCH  15  26
TORSDOF 4
ENDMDL
MODEL 3
REMARK VINA RESULT:      -7.0      2.774      7.414
REMARK  Name = 
REMARK  7 active torsions:
REMARK  status: ('A' for Active; 'I' for Inactive)
REMARK    1  A    between atoms: C_1  and  C_2
REMARK    2  A    between atoms: C_2  and  C_3
REMARK    3  A    between atoms: C_2  and  C_4
REMARK    4  A    between atoms: C_2  and  O_5
REMARK    5  A    between atoms: O_5  and  C_6
REMARK    6  A    between atoms: C_6  and  C_8
REMARK    7  A    between atoms: C_22  and  O_23
REMARK                            x       y       z     vdW  Elec       q    Type
REMARK                         _______ _______ _______ _____ _____    ______ ____
ROOT
ATOM      1  C   UNL     1       1.727   8.312  19.516  0.00  0.00    +0.000 A 
ATOM      2  N   UNL     1       2.247   9.180  18.572  0.00  0.00    +0.000 NA
ATOM      3  C   UNL     1       3.015   8.443  17.800  0.00  0.00    +0.000 A 
ATOM      4  N   UNL     1       2.986   7.117  18.155  0.00  0.00    +0.000 N 
ATOM      5  C   UNL     1       2.257   7.035  19.318  0.00  0.00    +0.000 A 
ATOM      6  C   UNL     1       2.112   5.797  20.112  0.00  0.00    +0.000 C 
ATOM      7  C   UNL     1       3.335   5.084  20.674  0.00  0.00    +0.000 C 
ATOM      8  C   UNL     1       2.781   3.670  20.967  0.00  0.00    +0.000 C 
ATOM      9  C   UNL     1       1.403   3.615  20.278  0.00  0.00    +0.000 C 
ATOM     10  N   UNL     1       1.426   4.757  19.382  0.00  0.00    +0.000 N 
ATOM     11  C   UNL     1       1.714   4.406  18.065  0.00  0.00    +0.000 C 
ATOM     12  O   UNL     1       1.002   3.627  17.429  0.00  0.00    +0.000 OA
ATOM     13  C   UNL     1       3.038   4.765  17.494  0.00  0.00    +0.000 A 
ATOM     14  C   UNL     1       3.747   3.686  16.938  0.00  0.00    +0.000 A 
ATOM     15  C   UNL     1       5.025   3.880  16.439  0.00  0.00    +0.000 A 
ATOM     16  C   UNL     1       5.592   5.148  16.417  0.00  0.00    +0.000 A 
ATOM     17  C   UNL     1       4.883   6.241  16.921  0.00  0.00    +0.000 A 
ATOM     18  C   UNL     1       3.619   6.043  17.498  0.00  0.00    +0.000 A 
ENDROOT
BRANCH   1  19
ATOM     19  C   UNL     1       0.779   8.703  20.572  0.00  0.00    +0.000 C 
ATOM     20  O   UNL     1       0.867   8.268  21.718  0.00  0.00    +0.000 OA
BRANCH  19  21
ATOM     21  O   UNL     1      -0.195   9.569  20.162  0.00  0.00    +0.000 OA
BRANCH  21  23
ATOM     22  C   UNL     1       1.020  11.653  20.711  0.00  0.00    +0.000 C 
ATOM     23  C   UNL     1      -0.298  10.870  20.807  0.00  0.00    +0.000 C 
ATOM     24  C   UNL     1      -0.783  10.736  22.260  0.00  0.00    +0.000 C 
ATOM     25  C   UNL     1      -1.365  11.655  20.026  0.00  0.00    +0.000 C 
ENDBRANCH  21  23
ENDBRANCH  19  21
ENDBRANCH   1  19
BRANCH  15  26
ATOM     26  O   UNL     1       5.770   2.836  15.981  0.00  0.00    +0.000 OA
ATOM     27  H   UNL     1       6.687   3.132  15.855  0.00  0.00    +0.000 HD
ENDBRANCH  15  26
TORSDOF 4
ENDMDL
MODEL 4
REMARK VINA RESULT:      -6.9      2.172      7.171
REMARK  Name = 
REMARK  7 active torsions:
REMARK  status: ('A' for Active; 'I' for Inactive)
REMARK    1  A    between atoms: C_1  and  C_2
REMARK    2  A    between atoms: C_2  and  C_3
REMARK    3  A    between atoms: C_2  and  C_4
REMARK    4  A    between atoms: C_2  and  O_5
REMARK    5  A    between atoms: O_5  and  C_6
REMARK    6  A    between atoms: C_6  and  C_8
REMARK    7  A    between atoms: C_22  and  O_23
REMARK                            x       y       z     vdW  Elec       q    Type
REMARK                         _______ _______ _______ _____ _____    ______ ____
ROOT
ATOM      1  C   UNL     1       2.259   7.471  19.539  0.00  0.00    +0.000 A 
ATOM      2  N   UNL     1       2.382   8.525  18.651  0.00  0.00    +0.000 NA
ATOM      3  C   UNL     1       3.104   8.063  17.654  0.00  0.00    +0.000 A 
ATOM      4  N   UNL     1       3.420   6.736  17.813  0.00  0.00    +0.000 N 
ATOM      5  C   UNL     1       2.984   6.374  19.067  0.00  0.00    +0.000 A 
ATOM      6  C   UNL     1       3.263   5.063  19.688  0.00  0.00    +0.000 C 
ATOM      7  C   UNL     1       4.696   4.594  19.908  0.00  0.00    +0.000 C 
ATOM      8  C   UNL     1       4.514   3.070  20.092  0.00  0.00    +0.000 C 
ATOM      9  C   UNL     1       3.062   2.772  19.666  0.00  0.00    +0.000 C 
ATOM     10  N   UNL     1       2.664   3.973  18.954  0.00  0.00    +0.000 N 
ATOM     11  C   UNL     1       2.734   3.830  17.570  0.00  0.00    +0.000 C 
ATOM     12  O   UNL     1       2.078   2.978  16.970  0.00  0.00    +0.000 OA
ATOM     13  C   UNL     1       3.807   4.536  16.823  0.00  0.00    +0.000 A 
ATOM     14  C   UNL     1       4.587   3.707  15.998  0.00  0.00    +0.000 A 
ATOM     15  C   UNL     1       5.666   4.236  15.306  0.00  0.00    +0.000 A 
ATOM     16  C   UNL     1       5.946   5.596  15.363  0.00  0.00    +0.000 A 
ATOM     17  C   UNL     1       5.152   6.443  16.140  0.00  0.00    +0.000 A 
ATOM     18  C   UNL     1       4.104   5.905  16.905  0.00  0.00    +0.000 A 
ENDROOT
BRANCH   1  19
ATOM     19  C   UNL     1       1.495   7.529  20.796  0.00  0.00    +0.000 C 
ATOM     20  O   UNL     1       0.792   6.593  21.173  0.00  0.00    +0.000 OA
BRANCH  19  21
ATOM     21  O   UNL     1       1.630   8.702  21.484  0.00  0.00    +0.000 OA
BRANCH  21  23
ATOM     22  C   UNL     1      -0.077   9.608  23.029  0.00  0.00    +0.000 C 
ATOM     23  C   UNL     1       0.481   9.588  21.598  0.00  0.00    +0.000 C 
ATOM     24  C   UNL     1      -0.600   9.235  20.563  0.00  0.00    +0.000 C 
ATOM     25  C   UNL     1       0.994  11.001  21.277  0.00  0.00    +0.000 C 
ENDBRANCH  21  23
ENDBRANCH  19  21
ENDBRANCH   1  19
BRANCH  15  26
ATOM     26  O   UNL     1       6.493   3.440  14.574  0.00  0.00    +0.000 OA
ATOM     27  H   UNL     1       6.325   2.511  14.806  0.00  0.00    +0.000 HD
ENDBRANCH  15  26
TORSDOF 4
ENDMDL
MODEL 5
REMARK VINA RESULT:      -6.6      6.072     11.025
REMARK  Name = 
REMARK  7 active torsions:
REMARK  status: ('A' for Active; 'I' for Inactive)
REMARK    1  A    between atoms: C_1  and  C_2
REMARK    2  A    between atoms: C_2  and  C_3
REMARK    3  A    between atoms: C_2  and  C_4
REMARK    4  A    between atoms: C_2  and  O_5
REMARK    5  A    between atoms: O_5  and  C_6
REMARK    6  A    between atoms: C_6  and  C_8
REMARK    7  A    between atoms: C_22  and  O_23
REMARK                            x       y       z     vdW  Elec       q    Type
REMARK                         _______ _______ _______ _____ _____    ______ ____
ROOT
ATOM      1  C   UNL     1      -1.135  11.145  22.583  0.00  0.00    +0.000 A 
ATOM      2  N   UNL     1      -0.413  10.322  23.429  0.00  0.00    +0.000 NA
ATOM      3  C   UNL     1       0.405   9.648  22.651  0.00  0.00    +0.000 A 
ATOM      4  N   UNL     1       0.298  10.025  21.335  0.00  0.00    +0.000 N 
ATOM      5  C   UNL     1      -0.761  10.900  21.260  0.00  0.00    +0.000 A 
ATOM      6  C   UNL     1      -1.304  11.426  19.990  0.00  0.00    +0.000 C 
ATOM      7  C   UNL     1      -1.838  10.482  18.920  0.00  0.00    +0.000 C 
ATOM      8  C   UNL     1      -1.822  11.377  17.660  0.00  0.00    +0.000 C 
ATOM      9  C   UNL     1      -1.012  12.630  18.052  0.00  0.00    +0.000 C 
ATOM     10  N   UNL     1      -0.341  12.230  19.276  0.00  0.00    +0.000 N 
ATOM     11  C   UNL     1       0.986  11.860  19.069  0.00  0.00    +0.000 C 
ATOM     12  O   UNL     1       1.813  12.641  18.596  0.00  0.00    +0.000 OA
ATOM     13  C   UNL     1       1.362  10.426  19.172  0.00  0.00    +0.000 A 
ATOM     14  C   UNL     1       2.035   9.916  18.049  0.00  0.00    +0.000 A 
ATOM     15  C   UNL     1       2.374   8.573  17.995  0.00  0.00    +0.000 A 
ATOM     16  C   UNL     1       2.118   7.734  19.072  0.00  0.00    +0.000 A 
ATOM     17  C   UNL     1       1.492   8.234  20.216  0.00  0.00    +0.000 A 
ATOM     18  C   UNL     1       1.077   9.575  20.251  0.00  0.00    +0.000 A 
ENDROOT
BRANCH   1  19
ATOM     19  C   UNL     1      -2.154  12.109  23.031  0.00  0.00    +0.000 C 
ATOM     20  O   UNL     1      -3.154  11.755  23.654  0.00  0.00    +0.000 OA
BRANCH  19  21
ATOM     21  O   UNL     1      -1.894  13.405  22.687  0.00  0.00    +0.000 OA
BRANCH  21  23
ATOM     22  C   UNL     1      -3.936  13.202  21.305  0.00  0.00    +0.000 C 
ATOM     23  C   UNL     1      -2.886  14.142  21.917  0.00  0.00    +0.000 C 
ATOM     24  C   UNL     1      -2.220  15.030  20.854  0.00  0.00    +0.000 C 
ATOM     25  C   UNL     1      -3.608  15.063  22.914  0.00  0.00    +0.000 C 
ENDBRANCH  21  23
ENDBRANCH  19  21
ENDBRANCH   1  19
BRANCH  15  26
ATOM     26  O   UNL     1       2.943   8.033  16.882  0.00  0.00    +0.000 OA
ATOM     27  H   UNL     1       2.488   8.378  16.095  0.00  0.00    +0.000 HD
ENDBRANCH  15  26
TORSDOF 4
ENDMDL
MODEL 6
REMARK VINA RESULT:      -6.6      6.077     11.167
REMARK  Name = 
REMARK  7 active torsions:
REMARK  status: ('A' for Active; 'I' for Inactive)
REMARK    1  A    between atoms: C_1  and  C_2
REMARK    2  A    between atoms: C_2  and  C_3
REMARK    3  A    between atoms: C_2  and  C_4
REMARK    4  A    between atoms: C_2  and  O_5
REMARK    5  A    between atoms: O_5  and  C_6
REMARK    6  A    between atoms: C_6  and  C_8
REMARK    7  A    between atoms: C_22  and  O_23
REMARK                            x       y       z     vdW  Elec       q    Type
REMARK                         _______ _______ _______ _____ _____    ______ ____
ROOT
ATOM      1  C   UNL     1      -0.901  11.047  22.715  0.00  0.00    +0.000 A 
ATOM      2  N   UNL     1      -0.191  10.155  23.500  0.00  0.00    +0.000 NA
ATOM      3  C   UNL     1       0.579   9.488  22.668  0.00  0.00    +0.000 A 
ATOM      4  N   UNL     1       0.452   9.933  21.375  0.00  0.00    +0.000 N 
ATOM      5  C   UNL     1      -0.572  10.851  21.371  0.00  0.00    +0.000 A 
ATOM      6  C   UNL     1      -1.127  11.460  20.144  0.00  0.00    +0.000 C 
ATOM      7  C   UNL     1      -1.727  10.591  19.046  0.00  0.00    +0.000 C 
ATOM      8  C   UNL     1      -1.708  11.545  17.830  0.00  0.00    +0.000 C 
ATOM      9  C   UNL     1      -0.838  12.744  18.258  0.00  0.00    +0.000 C 
ATOM     10  N   UNL     1      -0.151  12.259  19.442  0.00  0.00    +0.000 N 
ATOM     11  C   UNL     1       1.154  11.848  19.180  0.00  0.00    +0.000 C 
ATOM     12  O   UNL     1       1.999  12.618  18.722  0.00  0.00    +0.000 OA
ATOM     13  C   UNL     1       1.474  10.397  19.204  0.00  0.00    +0.000 A 
ATOM     14  C   UNL     1       2.095   9.916  18.039  0.00  0.00    +0.000 A 
ATOM     15  C   UNL     1       2.378   8.565  17.911  0.00  0.00    +0.000 A 
ATOM     16  C   UNL     1       2.116   7.685  18.954  0.00  0.00    +0.000 A 
ATOM     17  C   UNL     1       1.542   8.153  20.138  0.00  0.00    +0.000 A 
ATOM     18  C   UNL     1       1.182   9.506  20.249  0.00  0.00    +0.000 A 
ENDROOT
BRANCH   1  19
ATOM     19  C   UNL     1      -1.868  12.026  23.237  0.00  0.00    +0.000 C 
ATOM     20  O   UNL     1      -3.078  11.806  23.242  0.00  0.00    +0.000 OA
BRANCH  19  21
ATOM     21  O   UNL     1      -1.305  13.184  23.696  0.00  0.00    +0.000 OA
BRANCH  21  23
ATOM     22  C   UNL     1      -3.128  14.816  24.063  0.00  0.00    +0.000 C 
ATOM     23  C   UNL     1      -1.864  14.457  23.266  0.00  0.00    +0.000 C 
ATOM     24  C   UNL     1      -2.116  14.473  21.750  0.00  0.00    +0.000 C 
ATOM     25  C   UNL     1      -0.799  15.522  23.577  0.00  0.00    +0.000 C 
ENDBRANCH  21  23
ENDBRANCH  19  21
ENDBRANCH   1  19
BRANCH  15  26
ATOM     26  O   UNL     1       2.894   8.058  16.758  0.00  0.00    +0.000 OA
ATOM     27  H   UNL     1       3.385   7.244  16.961  0.00  0.00    +0.000 HD
ENDBRANCH  15  26
TORSDOF 4
ENDMDL
MODEL 7
REMARK VINA RESULT:      -6.5      2.237      6.713
REMARK  Name = 
REMARK  7 active torsions:
REMARK  status: ('A' for Active; 'I' for Inactive)
REMARK    1  A    between atoms: C_1  and  C_2
REMARK    2  A    between atoms: C_2  and  C_3
REMARK    3  A    between atoms: C_2  and  C_4
REMARK    4  A    between atoms: C_2  and  O_5
REMARK    5  A    between atoms: O_5  and  C_6
REMARK    6  A    between atoms: C_6  and  C_8
REMARK    7  A    between atoms: C_22  and  O_23
REMARK                            x       y       z     vdW  Elec       q    Type
REMARK                         _______ _______ _______ _____ _____    ______ ____
ROOT
ATOM      1  C   UNL     1       3.339   4.535  18.334  0.00  0.00    +0.000 A 
ATOM      2  N   UNL     1       2.619   3.656  17.542  0.00  0.00    +0.000 NA
ATOM      3  C   UNL     1       3.285   3.573  16.412  0.00  0.00    +0.000 A 
ATOM      4  N   UNL     1       4.442   4.312  16.436  0.00  0.00    +0.000 N 
ATOM      5  C   UNL     1       4.433   5.022  17.614  0.00  0.00    +0.000 A 
ATOM      6  C   UNL     1       5.432   6.054  17.961  0.00  0.00    +0.000 C 
ATOM      7  C   UNL     1       5.628   7.277  17.074  0.00  0.00    +0.000 C 
ATOM      8  C   UNL     1       7.023   7.777  17.514  0.00  0.00    +0.000 C 
ATOM      9  C   UNL     1       7.615   6.645  18.377  0.00  0.00    +0.000 C 
ATOM     10  N   UNL     1       6.763   5.508  18.076  0.00  0.00    +0.000 N 
ATOM     11  C   UNL     1       7.333   4.634  17.152  0.00  0.00    +0.000 C 
ATOM     12  O   UNL     1       8.405   4.069  17.367  0.00  0.00    +0.000 OA
ATOM     13  C   UNL     1       6.779   4.577  15.774  0.00  0.00    +0.000 A 
ATOM     14  C   UNL     1       7.727   4.768  14.755  0.00  0.00    +0.000 A 
ATOM     15  C   UNL     1       7.321   4.808  13.430  0.00  0.00    +0.000 A 
ATOM     16  C   UNL     1       5.992   4.591  13.089  0.00  0.00    +0.000 A 
ATOM     17  C   UNL     1       5.044   4.352  14.086  0.00  0.00    +0.000 A 
ATOM     18  C   UNL     1       5.430   4.385  15.435  0.00  0.00    +0.000 A 
ENDROOT
BRANCH   1  19
ATOM     19  C   UNL     1       2.974   4.901  19.712  0.00  0.00    +0.000 C 
ATOM     20  O   UNL     1       2.699   6.058  20.025  0.00  0.00    +0.000 OA
BRANCH  19  21
ATOM     21  O   UNL     1       2.981   3.857  20.594  0.00  0.00    +0.000 OA
BRANCH  21  23
ATOM     22  C   UNL     1       1.991   1.727  19.818  0.00  0.00    +0.000 C 
ATOM     23  C   UNL     1       1.812   2.993  20.670  0.00  0.00    +0.000 C 
ATOM     24  C   UNL     1       0.529   3.756  20.306  0.00  0.00    +0.000 C 
ATOM     25  C   UNL     1       1.697   2.554  22.140  0.00  0.00    +0.000 C 
ENDBRANCH  21  23
ENDBRANCH  19  21
ENDBRANCH   1  19
BRANCH  15  26
ATOM     26  O   UNL     1       8.204   5.084  12.430  0.00  0.00    +0.000 OA
ATOM     27  H   UNL     1       9.107   5.060  12.789  0.00  0.00    +0.000 HD
ENDBRANCH  15  26
TORSDOF 4
ENDMDL
MODEL 8
REMARK VINA RESULT:      -6.4      6.164     11.138
REMARK  Name = 
REMARK  7 active torsions:
REMARK  status: ('A' for Active; 'I' for Inactive)
REMARK    1  A    between atoms: C_1  and  C_2
REMARK    2  A    between atoms: C_2  and  C_3
REMARK    3  A    between atoms: C_2  and  C_4
REMARK    4  A    between atoms: C_2  and  O_5
REMARK    5  A    between atoms: O_5  and  C_6
REMARK    6  A    between atoms: C_6  and  C_8
REMARK    7  A    between atoms: C_22  and  O_23
REMARK                            x       y       z     vdW  Elec       q    Type
REMARK                         _______ _______ _______ _____ _____    ______ ____
ROOT
ATOM      1  C   UNL     1      -1.085  11.310  22.589  0.00  0.00    +0.000 A 
ATOM      2  N   UNL     1      -0.412  10.446  23.436  0.00  0.00    +0.000 NA
ATOM      3  C   UNL     1       0.377   9.735  22.660  0.00  0.00    +0.000 A 
ATOM      4  N   UNL     1       0.298  10.124  21.346  0.00  0.00    +0.000 N 
ATOM      5  C   UNL     1      -0.714  11.052  21.267  0.00  0.00    +0.000 A 
ATOM      6  C   UNL     1      -1.220  11.612  19.997  0.00  0.00    +0.000 C 
ATOM      7  C   UNL     1      -1.793  10.702  18.918  0.00  0.00    +0.000 C 
ATOM      8  C   UNL     1      -1.722  11.602  17.663  0.00  0.00    +0.000 C 
ATOM      9  C   UNL     1      -0.852  12.809  18.068  0.00  0.00    +0.000 C 
ATOM     10  N   UNL     1      -0.211  12.369  19.294  0.00  0.00    +0.000 N 
ATOM     11  C   UNL     1       1.097  11.933  19.095  0.00  0.00    +0.000 C 
ATOM     12  O   UNL     1       1.966  12.673  18.632  0.00  0.00    +0.000 OA
ATOM     13  C   UNL     1       1.398  10.481  19.193  0.00  0.00    +0.000 A 
ATOM     14  C   UNL     1       2.052   9.943  18.071  0.00  0.00    +0.000 A 
ATOM     15  C   UNL     1       2.322   8.584  18.012  0.00  0.00    +0.000 A 
ATOM     16  C   UNL     1       2.015   7.754  19.083  0.00  0.00    +0.000 A 
ATOM     17  C   UNL     1       1.408   8.280  20.225  0.00  0.00    +0.000 A 
ATOM     18  C   UNL     1       1.061   9.640  20.265  0.00  0.00    +0.000 A 
ENDROOT
BRANCH   1  19
ATOM     19  C   UNL     1      -2.057  12.322  23.035  0.00  0.00    +0.000 C 
ATOM     20  O   UNL     1      -1.711  13.322  23.661  0.00  0.00    +0.000 OA
BRANCH  19  21
ATOM     21  O   UNL     1      -3.353  12.043  22.704  0.00  0.00    +0.000 OA
BRANCH  21  23
ATOM     22  C   UNL     1      -4.726  14.012  23.304  0.00  0.00    +0.000 C 
ATOM     23  C   UNL     1      -4.191  13.112  22.180  0.00  0.00    +0.000 C 
ATOM     24  C   UNL     1      -5.322  12.554  21.301  0.00  0.00    +0.000 C 
ATOM     25  C   UNL     1      -3.282  13.972  21.286  0.00  0.00    +0.000 C 
ENDBRANCH  21  23
ENDBRANCH  19  21
ENDBRANCH   1  19
BRANCH  15  26
ATOM     26  O   UNL     1       2.871   8.022  16.900  0.00  0.00    +0.000 OA
ATOM     27  H   UNL     1       3.721   7.614  17.137  0.00  0.00    +0.000 HD
ENDBRANCH  15  26
TORSDOF 4
ENDMDL
MODEL 9
REMARK VINA RESULT:      -6.3      1.998      6.635
REMARK  Name = 
REMARK  7 active torsions:
REMARK  status: ('A' for Active; 'I' for Inactive)
REMARK    1  A    between atoms: C_1  and  C_2
REMARK    2  A    between atoms: C_2  and  C_3
REMARK    3  A    between atoms: C_2  and  C_4
REMARK    4  A    between atoms: C_2  and  O_5
REMARK    5  A    between atoms: O_5  and  C_6
REMARK    6  A    between atoms: C_6  and  C_8
REMARK    7  A    between atoms: C_22  and  O_23
REMARK                            x       y       z     vdW  Elec       q    Type
REMARK                         _______ _______ _______ _____ _____    ______ ____
ROOT
ATOM      1  C   UNL     1       3.712   3.591  18.743  0.00  0.00    +0.000 A 
ATOM      2  N   UNL     1       3.107   2.599  17.992  0.00  0.00    +0.000 NA
ATOM      3  C   UNL     1       3.671   2.661  16.805  0.00  0.00    +0.000 A 
ATOM      4  N   UNL     1       4.660   3.612  16.751  0.00  0.00    +0.000 N 
ATOM      5  C   UNL     1       4.621   4.292  17.946  0.00  0.00    +0.000 A 
ATOM      6  C   UNL     1       5.428   5.496  18.234  0.00  0.00    +0.000 C 
ATOM      7  C   UNL     1       5.301   6.744  17.370  0.00  0.00    +0.000 C 
ATOM      8  C   UNL     1       6.606   7.503  17.701  0.00  0.00    +0.000 C 
ATOM      9  C   UNL     1       7.483   6.498  18.476  0.00  0.00    +0.000 C 
ATOM     10  N   UNL     1       6.845   5.220  18.216  0.00  0.00    +0.000 N 
ATOM     11  C   UNL     1       7.486   4.486  17.221  0.00  0.00    +0.000 C 
ATOM     12  O   UNL     1       8.663   4.139  17.326  0.00  0.00    +0.000 OA
ATOM     13  C   UNL     1       6.831   4.337  15.896  0.00  0.00    +0.000 A 
ATOM     14  C   UNL     1       7.627   4.723  14.804  0.00  0.00    +0.000 A 
ATOM     15  C   UNL     1       7.102   4.699  13.521  0.00  0.00    +0.000 A 
ATOM     16  C   UNL     1       5.815   4.230  13.291  0.00  0.00    +0.000 A 
ATOM     17  C   UNL     1       5.026   3.798  14.359  0.00  0.00    +0.000 A 
ATOM     18  C   UNL     1       5.520   3.889  15.670  0.00  0.00    +0.000 A 
ENDROOT
BRANCH   1  19
ATOM     19  C   UNL     1       3.410   3.863  20.158  0.00  0.00    +0.000 C 
ATOM     20  O   UNL     1       3.392   2.969  21.001  0.00  0.00    +0.000 OA
BRANCH  19  21
ATOM     21  O   UNL     1       3.147   5.175  20.436  0.00  0.00    +0.000 OA
BRANCH  21  23
ATOM     22  C   UNL     1       0.730   4.682  20.242  0.00  0.00    +0.000 C 
ATOM     23  C   UNL     1       1.848   5.724  20.077  0.00  0.00    +0.000 C 
ATOM     24  C   UNL     1       1.868   6.327  18.663  0.00  0.00    +0.000 C 
ATOM     25  C   UNL     1       1.573   6.864  21.071  0.00  0.00    +0.000 C 
ENDBRANCH  21  23
ENDBRANCH  19  21
ENDBRANCH   1  19
BRANCH  15  26
ATOM     26  O   UNL     1       7.819   5.155  12.457  0.00  0.00    +0.000 OA
ATOM     27  H   UNL     1       7.324   5.871  12.025  0.00  0.00    +0.000 HD
ENDBRANCH  15  26
TORSDOF 4
ENDMDL
