MODEL 1
REMARK VINA RESULT:      -8.6      0.000      0.000
REMARK  Name = 
REMARK  5 active torsions:
REMARK  status: ('A' for Active; 'I' for Inactive)
REMARK    1  A    between atoms: N_3  and  C_4
REMARK    2  A    between atoms: C_4  and  C_5
REMARK    3  A    between atoms: C_8  and  O_9
REMARK    4  A    between atoms: N_18  and  C_19
REMARK    5  A    between atoms: C_19  and  C_20
REMARK                            x       y       z     vdW  Elec       q    Type
REMARK                         _______ _______ _______ _____ _____    ______ ____
ROOT
ATOM      1  O   UNL     1       4.899   7.392  17.415  0.00  0.00    +0.000 OA
ATOM      2  C   UNL     1       4.299   6.371  17.724  0.00  0.00    +0.000 A 
ATOM      3  N   UNL     1       2.910   6.218  17.864  0.00  0.00    +0.000 N 
ATOM      4  C   UNL     1       2.634   4.894  18.236  0.00  0.00    +0.000 A 
ATOM      5  C   UNL     1       1.427   4.272  18.486  0.00  0.00    +0.000 A 
ATOM      6  C   UNL     1       1.463   2.913  18.813  0.00  0.00    +0.000 A 
ATOM      7  C   UNL     1       2.684   2.217  18.879  0.00  0.00    +0.000 A 
ATOM      8  C   UNL     1       3.899   2.864  18.622  0.00  0.00    +0.000 A 
ATOM      9  C   UNL     1       3.850   4.207  18.307  0.00  0.00    +0.000 A 
ATOM     10  N   UNL     1       4.878   5.121  18.016  0.00  0.00    +0.000 N 
ENDROOT
BRANCH   3  11
ATOM     11  C   UNL     1       1.942   7.273  17.683  0.00  0.00    +0.000 C 
BRANCH  11  12
ATOM     12  C   UNL     1       1.727   8.060  18.953  0.00  0.00    +0.000 A 
ATOM     13  C   UNL     1       1.851   7.430  20.203  0.00  0.00    +0.000 A 
ATOM     14  C   UNL     1       1.537   8.112  21.377  0.00  0.00    +0.000 A 
ATOM     15  C   UNL     1       1.120   9.436  21.305  0.00  0.00    +0.000 A 
ATOM     16  C   UNL     1       1.057  10.098  20.085  0.00  0.00    +0.000 A 
ATOM     17  C   UNL     1       1.359   9.412  18.908  0.00  0.00    +0.000 A 
BRANCH  15  18
ATOM     18  O   UNL     1       0.742  10.119  22.421  0.00  0.00    +0.000 OA
ATOM     19  H   UNL     1       0.193  10.871  22.145  0.00  0.00    +0.000 HD
ENDBRANCH  15  18
ENDBRANCH  11  12
ENDBRANCH   3  11
BRANCH  10  20
ATOM     20  C   UNL     1       6.264   4.817  17.764  0.00  0.00    +0.000 C 
BRANCH  20  21
ATOM     21  C   UNL     1       6.557   4.666  16.312  0.00  0.00    +0.000 A 
ATOM     22  N   UNL     1       7.411   5.388  15.612  0.00  0.00    +0.000 NA
ATOM     23  C   UNL     1       7.284   4.956  14.317  0.00  0.00    +0.000 A 
ATOM     24  C   UNL     1       7.915   5.423  13.156  0.00  0.00    +0.000 A 
ATOM     25  C   UNL     1       7.572   4.846  11.929  0.00  0.00    +0.000 A 
ATOM     26  C   UNL     1       6.636   3.809  11.864  0.00  0.00    +0.000 A 
ATOM     27  C   UNL     1       6.013   3.314  13.017  0.00  0.00    +0.000 A 
ATOM     28  C   UNL     1       6.359   3.923  14.226  0.00  0.00    +0.000 A 
ATOM     29  N   UNL     1       5.936   3.733  15.518  0.00  0.00    +0.000 N 
ATOM     30  H   UNL     1       5.238   3.070  15.826  0.00  0.00    +0.000 HD
ENDBRANCH  20  21
ENDBRANCH  10  20
TORSDOF 5
ENDMDL
MODEL 2
REMARK VINA RESULT:      -8.4      0.669      1.285
REMARK  Name = 
REMARK  5 active torsions:
REMARK  status: ('A' for Active; 'I' for Inactive)
REMARK    1  A    between atoms: N_3  and  C_4
REMARK    2  A    between atoms: C_4  and  C_5
REMARK    3  A    between atoms: C_8  and  O_9
REMARK    4  A    between atoms: N_18  and  C_19
REMARK    5  A    between atoms: C_19  and  C_20
REMARK                            x       y       z     vdW  Elec       q    Type
REMARK                         _______ _______ _______ _____ _____    ______ ____
ROOT
ATOM      1  O   UNL     1       4.678   7.181  17.078  0.00  0.00    +0.000 OA
ATOM      2  C   UNL     1       4.210   6.303  17.792  0.00  0.00    +0.000 A 
ATOM      3  N   UNL     1       2.883   6.196  18.236  0.00  0.00    +0.000 N 
ATOM      4  C   UNL     1       2.763   5.050  19.036  0.00  0.00    +0.000 A 
ATOM      5  C   UNL     1       1.663   4.531  19.691  0.00  0.00    +0.000 A 
ATOM      6  C   UNL     1       1.844   3.340  20.400  0.00  0.00    +0.000 A 
ATOM      7  C   UNL     1       3.098   2.703  20.437  0.00  0.00    +0.000 A 
ATOM      8  C   UNL     1       4.203   3.244  19.767  0.00  0.00    +0.000 A 
ATOM      9  C   UNL     1       4.012   4.423  19.077  0.00  0.00    +0.000 A 
ATOM     10  N   UNL     1       4.910   5.207  18.330  0.00  0.00    +0.000 N 
ENDROOT
BRANCH   3  11
ATOM     11  C   UNL     1       1.833   7.138  17.934  0.00  0.00    +0.000 C 
BRANCH  11  12
ATOM     12  C   UNL     1       1.632   8.130  19.055  0.00  0.00    +0.000 A 
ATOM     13  C   UNL     1       1.700   7.706  20.392  0.00  0.00    +0.000 A 
ATOM     14  C   UNL     1       1.397   8.583  21.433  0.00  0.00    +0.000 A 
ATOM     15  C   UNL     1       1.046   9.895  21.137  0.00  0.00    +0.000 A 
ATOM     16  C   UNL     1       1.040  10.353  19.826  0.00  0.00    +0.000 A 
ATOM     17  C   UNL     1       1.331   9.472  18.783  0.00  0.00    +0.000 A 
BRANCH  15  18
ATOM     18  O   UNL     1       0.680  10.766  22.119  0.00  0.00    +0.000 OA
ATOM     19  H   UNL     1       0.135  10.285  22.762  0.00  0.00    +0.000 HD
ENDBRANCH  15  18
ENDBRANCH  11  12
ENDBRANCH   3  11
BRANCH  10  20
ATOM     20  C   UNL     1       6.243   4.845  17.920  0.00  0.00    +0.000 C 
BRANCH  20  21
ATOM     21  C   UNL     1       6.367   4.710  16.442  0.00  0.00    +0.000 A 
ATOM     22  N   UNL     1       5.702   3.863  15.680  0.00  0.00    +0.000 NA
ATOM     23  C   UNL     1       6.201   4.035  14.416  0.00  0.00    +0.000 A 
ATOM     24  C   UNL     1       5.888   3.349  13.234  0.00  0.00    +0.000 A 
ATOM     25  C   UNL     1       6.584   3.677  12.066  0.00  0.00    +0.000 A 
ATOM     26  C   UNL     1       7.554   4.684  12.071  0.00  0.00    +0.000 A 
ATOM     27  C   UNL     1       7.861   5.396  13.237  0.00  0.00    +0.000 A 
ATOM     28  C   UNL     1       7.167   5.033  14.394  0.00  0.00    +0.000 A 
ATOM     29  N   UNL     1       7.229   5.472  15.692  0.00  0.00    +0.000 N 
ATOM     30  H   UNL     1       7.849   6.184  16.053  0.00  0.00    +0.000 HD
ENDBRANCH  20  21
ENDBRANCH  10  20
TORSDOF 5
ENDMDL
MODEL 3
REMARK VINA RESULT:      -8.1      0.504      1.042
REMARK  Name = 
REMARK  5 active torsions:
REMARK  status: ('A' for Active; 'I' for Inactive)
REMARK    1  A    between atoms: N_3  and  C_4
REMARK    2  A    between atoms: C_4  and  C_5
REMARK    3  A    between atoms: C_8  and  O_9
REMARK    4  A    between atoms: N_18  and  C_19
REMARK    5  A    between atoms: C_19  and  C_20
REMARK                            x       y       z     vdW  Elec       q    Type
REMARK                         _______ _______ _______ _____ _____    ______ ____
ROOT
ATOM      1  O   UNL     1       4.798   7.498  17.219  0.00  0.00    +0.000 OA
ATOM      2  C   UNL     1       4.352   6.508  17.782  0.00  0.00    +0.000 A 
ATOM      3  N   UNL     1       3.008   6.253  18.101  0.00  0.00    +0.000 N 
ATOM      4  C   UNL     1       2.922   5.011  18.748  0.00  0.00    +0.000 A 
ATOM      5  C   UNL     1       1.823   4.339  19.245  0.00  0.00    +0.000 A 
ATOM      6  C   UNL     1       2.047   3.084  19.820  0.00  0.00    +0.000 A 
ATOM      7  C   UNL     1       3.342   2.538  19.884  0.00  0.00    +0.000 A 
ATOM      8  C   UNL     1       4.446   3.234  19.375  0.00  0.00    +0.000 A 
ATOM      9  C   UNL     1       4.212   4.473  18.816  0.00  0.00    +0.000 A 
ATOM     10  N   UNL     1       5.096   5.405  18.243  0.00  0.00    +0.000 N 
ENDROOT
BRANCH   3  11
ATOM     11  C   UNL     1       1.911   7.150  17.828  0.00  0.00    +0.000 C 
BRANCH  11  12
ATOM     12  C   UNL     1       1.562   7.989  19.034  0.00  0.00    +0.000 A 
ATOM     13  C   UNL     1       1.218   9.342  18.875  0.00  0.00    +0.000 A 
ATOM     14  C   UNL     1       1.012  10.159  19.987  0.00  0.00    +0.000 A 
ATOM     15  C   UNL     1       1.127   9.616  21.261  0.00  0.00    +0.000 A 
ATOM     16  C   UNL     1       1.398   8.265  21.438  0.00  0.00    +0.000 A 
ATOM     17  C   UNL     1       1.617   7.450  20.327  0.00  0.00    +0.000 A 
BRANCH  15  18
ATOM     18  O   UNL     1       0.997  10.392  22.373  0.00  0.00    +0.000 OA
ATOM     19  H   UNL     1       0.189  10.121  22.839  0.00  0.00    +0.000 HD
ENDBRANCH  15  18
ENDBRANCH  11  12
ENDBRANCH   3  11
BRANCH  10  20
ATOM     20  C   UNL     1       6.480   5.192  17.903  0.00  0.00    +0.000 C 
BRANCH  20  21
ATOM     21  C   UNL     1       6.671   4.897  16.456  0.00  0.00    +0.000 A 
ATOM     22  N   UNL     1       7.513   5.505  15.642  0.00  0.00    +0.000 NA
ATOM     23  C   UNL     1       7.280   4.969  14.403  0.00  0.00    +0.000 A 
ATOM     24  C   UNL     1       7.858   5.296  13.168  0.00  0.00    +0.000 A 
ATOM     25  C   UNL     1       7.406   4.634  12.022  0.00  0.00    +0.000 A 
ATOM     26  C   UNL     1       6.416   3.651  12.108  0.00  0.00    +0.000 A 
ATOM     27  C   UNL     1       5.845   3.295  13.337  0.00  0.00    +0.000 A 
ATOM     28  C   UNL     1       6.299   3.987  14.462  0.00  0.00    +0.000 A 
ATOM     29  N   UNL     1       5.952   3.935  15.788  0.00  0.00    +0.000 N 
ATOM     30  H   UNL     1       5.242   3.343  16.197  0.00  0.00    +0.000 HD
ENDBRANCH  20  21
ENDBRANCH  10  20
TORSDOF 5
ENDMDL
MODEL 4
REMARK VINA RESULT:      -8.1      2.878      7.299
REMARK  Name = 
REMARK  5 active torsions:
REMARK  status: ('A' for Active; 'I' for Inactive)
REMARK    1  A    between atoms: N_3  and  C_4
REMARK    2  A    between atoms: C_4  and  C_5
REMARK    3  A    between atoms: C_8  and  O_9
REMARK    4  A    between atoms: N_18  and  C_19
REMARK    5  A    between atoms: C_19  and  C_20
REMARK                            x       y       z     vdW  Elec       q    Type
REMARK                         _______ _______ _______ _____ _____    ______ ____
ROOT
ATOM      1  O   UNL     1       1.756   5.477  17.734  0.00  0.00    +0.000 OA
ATOM      2  C   UNL     1       2.974   5.577  17.676  0.00  0.00    +0.000 A 
ATOM      3  N   UNL     1       3.908   4.529  17.691  0.00  0.00    +0.000 N 
ATOM      4  C   UNL     1       5.200   5.070  17.613  0.00  0.00    +0.000 A 
ATOM      5  C   UNL     1       6.430   4.442  17.595  0.00  0.00    +0.000 A 
ATOM      6  C   UNL     1       7.561   5.255  17.478  0.00  0.00    +0.000 A 
ATOM      7  C   UNL     1       7.441   6.654  17.384  0.00  0.00    +0.000 A 
ATOM      8  C   UNL     1       6.185   7.274  17.404  0.00  0.00    +0.000 A 
ATOM      9  C   UNL     1       5.077   6.461  17.525  0.00  0.00    +0.000 A 
ATOM     10  N   UNL     1       3.708   6.775  17.588  0.00  0.00    +0.000 N 
ENDROOT
BRANCH   3  11
ATOM     11  C   UNL     1       3.576   3.129  17.802  0.00  0.00    +0.000 C 
BRANCH  11  12
ATOM     12  C   UNL     1       2.854   2.826  19.094  0.00  0.00    +0.000 A 
ATOM     13  C   UNL     1       1.462   2.636  19.096  0.00  0.00    +0.000 A 
ATOM     14  C   UNL     1       0.767   2.477  20.294  0.00  0.00    +0.000 A 
ATOM     15  C   UNL     1       1.470   2.485  21.494  0.00  0.00    +0.000 A 
ATOM     16  C   UNL     1       2.854   2.602  21.509  0.00  0.00    +0.000 A 
ATOM     17  C   UNL     1       3.548   2.774  20.311  0.00  0.00    +0.000 A 
BRANCH  15  18
ATOM     18  O   UNL     1       0.824   2.397  22.690  0.00  0.00    +0.000 OA
ATOM     19  H   UNL     1       1.405   1.933  23.315  0.00  0.00    +0.000 HD
ENDBRANCH  15  18
ENDBRANCH  11  12
ENDBRANCH   3  11
BRANCH  10  20
ATOM     20  C   UNL     1       3.099   8.054  17.323  0.00  0.00    +0.000 C 
BRANCH  20  21
ATOM     21  C   UNL     1       2.201   8.496  18.425  0.00  0.00    +0.000 A 
ATOM     22  N   UNL     1       1.363   9.514  18.385  0.00  0.00    +0.000 NA
ATOM     23  C   UNL     1       0.821   9.595  19.641  0.00  0.00    +0.000 A 
ATOM     24  C   UNL     1      -0.084  10.530  20.162  0.00  0.00    +0.000 A 
ATOM     25  C   UNL     1      -0.449  10.429  21.508  0.00  0.00    +0.000 A 
ATOM     26  C   UNL     1       0.059   9.403  22.312  0.00  0.00    +0.000 A 
ATOM     27  C   UNL     1       0.945   8.447  21.801  0.00  0.00    +0.000 A 
ATOM     28  C   UNL     1       1.309   8.584  20.460  0.00  0.00    +0.000 A 
ATOM     29  N   UNL     1       2.161   7.875  19.650  0.00  0.00    +0.000 N 
ATOM     30  H   UNL     1       2.717   7.076  19.922  0.00  0.00    +0.000 HD
ENDBRANCH  20  21
ENDBRANCH  10  20
TORSDOF 5
ENDMDL
MODEL 5
REMARK VINA RESULT:      -8.0      0.386      1.477
REMARK  Name = 
REMARK  5 active torsions:
REMARK  status: ('A' for Active; 'I' for Inactive)
REMARK    1  A    between atoms: N_3  and  C_4
REMARK    2  A    between atoms: C_4  and  C_5
REMARK    3  A    between atoms: C_8  and  O_9
REMARK    4  A    between atoms: N_18  and  C_19
REMARK    5  A    between atoms: C_19  and  C_20
REMARK                            x       y       z     vdW  Elec       q    Type
REMARK                         _______ _______ _______ _____ _____    ______ ____
ROOT
ATOM      1  O   UNL     1       4.982   7.372  17.196  0.00  0.00    +0.000 OA
ATOM      2  C   UNL     1       4.344   6.463  17.711  0.00  0.00    +0.000 A 
ATOM      3  N   UNL     1       2.976   6.467  18.028  0.00  0.00    +0.000 N 
ATOM      4  C   UNL     1       2.641   5.235  18.610  0.00  0.00    +0.000 A 
ATOM      5  C   UNL     1       1.428   4.772  19.081  0.00  0.00    +0.000 A 
ATOM      6  C   UNL     1       1.394   3.470  19.588  0.00  0.00    +0.000 A 
ATOM      7  C   UNL     1       2.552   2.672  19.612  0.00  0.00    +0.000 A 
ATOM      8  C   UNL     1       3.774   3.157  19.129  0.00  0.00    +0.000 A 
ATOM      9  C   UNL     1       3.796   4.446  18.638  0.00  0.00    +0.000 A 
ATOM     10  N   UNL     1       4.851   5.210  18.107  0.00  0.00    +0.000 N 
ENDROOT
BRANCH   3  11
ATOM     11  C   UNL     1       2.083   7.579  17.813  0.00  0.00    +0.000 C 
BRANCH  11  12
ATOM     12  C   UNL     1       1.659   8.217  19.114  0.00  0.00    +0.000 A 
ATOM     13  C   UNL     1       1.063   9.489  19.115  0.00  0.00    +0.000 A 
ATOM     14  C   UNL     1       0.778  10.141  20.314  0.00  0.00    +0.000 A 
ATOM     15  C   UNL     1       1.069   9.510  21.517  0.00  0.00    +0.000 A 
ATOM     16  C   UNL     1       1.595   8.224  21.539  0.00  0.00    +0.000 A 
ATOM     17  C   UNL     1       1.893   7.576  20.340  0.00  0.00    +0.000 A 
BRANCH  15  18
ATOM     18  O   UNL     1       0.867  10.136  22.710  0.00  0.00    +0.000 OA
ATOM     19  H   UNL     1       0.481  11.009  22.531  0.00  0.00    +0.000 HD
ENDBRANCH  15  18
ENDBRANCH  11  12
ENDBRANCH   3  11
BRANCH  10  20
ATOM     20  C   UNL     1       6.164   4.741  17.743  0.00  0.00    +0.000 C 
BRANCH  20  21
ATOM     21  C   UNL     1       6.345   4.645  16.269  0.00  0.00    +0.000 A 
ATOM     22  N   UNL     1       5.745   3.788  15.465  0.00  0.00    +0.000 NA
ATOM     23  C   UNL     1       6.280   4.009  14.223  0.00  0.00    +0.000 A 
ATOM     24  C   UNL     1       6.039   3.338  13.017  0.00  0.00    +0.000 A 
ATOM     25  C   UNL     1       6.762   3.721  11.882  0.00  0.00    +0.000 A 
ATOM     26  C   UNL     1       7.687   4.768  11.944  0.00  0.00    +0.000 A 
ATOM     27  C   UNL     1       7.922   5.465  13.136  0.00  0.00    +0.000 A 
ATOM     28  C   UNL     1       7.203   5.047  14.258  0.00  0.00    +0.000 A 
ATOM     29  N   UNL     1       7.200   5.459  15.567  0.00  0.00    +0.000 N 
ATOM     30  H   UNL     1       7.776   6.188  15.964  0.00  0.00    +0.000 HD
ENDBRANCH  20  21
ENDBRANCH  10  20
TORSDOF 5
ENDMDL
MODEL 6
REMARK VINA RESULT:      -7.8      2.952      7.322
REMARK  Name = 
REMARK  5 active torsions:
REMARK  status: ('A' for Active; 'I' for Inactive)
REMARK    1  A    between atoms: N_3  and  C_4
REMARK    2  A    between atoms: C_4  and  C_5
REMARK    3  A    between atoms: C_8  and  O_9
REMARK    4  A    between atoms: N_18  and  C_19
REMARK    5  A    between atoms: C_19  and  C_20
REMARK                            x       y       z     vdW  Elec       q    Type
REMARK                         _______ _______ _______ _____ _____    ______ ____
ROOT
ATOM      1  O   UNL     1       1.813   5.326  17.664  0.00  0.00    +0.000 OA
ATOM      2  C   UNL     1       3.029   5.468  17.657  0.00  0.00    +0.000 A 
ATOM      3  N   UNL     1       3.997   4.455  17.742  0.00  0.00    +0.000 N 
ATOM      4  C   UNL     1       5.272   5.040  17.705  0.00  0.00    +0.000 A 
ATOM      5  C   UNL     1       6.522   4.456  17.758  0.00  0.00    +0.000 A 
ATOM      6  C   UNL     1       7.629   5.305  17.669  0.00  0.00    +0.000 A 
ATOM      7  C   UNL     1       7.465   6.696  17.529  0.00  0.00    +0.000 A 
ATOM      8  C   UNL     1       6.188   7.271  17.477  0.00  0.00    +0.000 A 
ATOM      9  C   UNL     1       5.105   6.422  17.573  0.00  0.00    +0.000 A 
ATOM     10  N   UNL     1       3.724   6.689  17.567  0.00  0.00    +0.000 N 
ENDROOT
BRANCH   3  11
ATOM     11  C   UNL     1       3.708   3.048  17.878  0.00  0.00    +0.000 C 
BRANCH  11  12
ATOM     12  C   UNL     1       2.944   2.753  19.147  0.00  0.00    +0.000 A 
ATOM     13  C   UNL     1       1.556   2.543  19.102  0.00  0.00    +0.000 A 
ATOM     14  C   UNL     1       0.821   2.391  20.277  0.00  0.00    +0.000 A 
ATOM     15  C   UNL     1       1.479   2.426  21.501  0.00  0.00    +0.000 A 
ATOM     16  C   UNL     1       2.860   2.564  21.564  0.00  0.00    +0.000 A 
ATOM     17  C   UNL     1       3.595   2.729  20.389  0.00  0.00    +0.000 A 
BRANCH  15  18
ATOM     18  O   UNL     1       0.792   2.346  22.674  0.00  0.00    +0.000 OA
ATOM     19  H   UNL     1       1.053   1.526  23.123  0.00  0.00    +0.000 HD
ENDBRANCH  15  18
ENDBRANCH  11  12
ENDBRANCH   3  11
BRANCH  10  20
ATOM     20  C   UNL     1       3.084   7.938  17.240  0.00  0.00    +0.000 C 
BRANCH  20  21
ATOM     21  C   UNL     1       2.294   8.488  18.376  0.00  0.00    +0.000 A 
ATOM     22  N   UNL     1       2.159   7.937  19.567  0.00  0.00    +0.000 NA
ATOM     23  C   UNL     1       1.282   8.742  20.248  0.00  0.00    +0.000 A 
ATOM     24  C   UNL     1       0.748   8.589  21.534  0.00  0.00    +0.000 A 
ATOM     25  C   UNL     1      -0.182   9.529  21.988  0.00  0.00    +0.000 A 
ATOM     26  C   UNL     1      -0.554  10.613  21.186  0.00  0.00    +0.000 A 
ATOM     27  C   UNL     1      -0.011  10.793  19.907  0.00  0.00    +0.000 A 
ATOM     28  C   UNL     1       0.899   9.828  19.471  0.00  0.00    +0.000 A 
ATOM     29  N   UNL     1       1.585   9.662  18.294  0.00  0.00    +0.000 N 
ATOM     30  H   UNL     1       1.530  10.259  17.481  0.00  0.00    +0.000 HD
ENDBRANCH  20  21
ENDBRANCH  10  20
TORSDOF 5
ENDMDL
MODEL 7
REMARK VINA RESULT:      -7.8      4.539      8.695
REMARK  Name = 
REMARK  5 active torsions:
REMARK  status: ('A' for Active; 'I' for Inactive)
REMARK    1  A    between atoms: N_3  and  C_4
REMARK    2  A    between atoms: C_4  and  C_5
REMARK    3  A    between atoms: C_8  and  O_9
REMARK    4  A    between atoms: N_18  and  C_19
REMARK    5  A    between atoms: C_19  and  C_20
REMARK                            x       y       z     vdW  Elec       q    Type
REMARK                         _______ _______ _______ _____ _____    ______ ____
ROOT
ATOM      1  O   UNL     1       1.715   9.007  17.418  0.00  0.00    +0.000 OA
ATOM      2  C   UNL     1       1.322   9.171  18.565  0.00  0.00    +0.000 A 
ATOM      3  N   UNL     1       1.745   8.474  19.709  0.00  0.00    +0.000 N 
ATOM      4  C   UNL     1       1.044   8.961  20.822  0.00  0.00    +0.000 A 
ATOM      5  C   UNL     1       1.115   8.593  22.151  0.00  0.00    +0.000 A 
ATOM      6  C   UNL     1       0.303   9.288  23.052  0.00  0.00    +0.000 A 
ATOM      7  C   UNL     1      -0.547  10.319  22.613  0.00  0.00    +0.000 A 
ATOM      8  C   UNL     1      -0.606  10.680  21.261  0.00  0.00    +0.000 A 
ATOM      9  C   UNL     1       0.195   9.982  20.381  0.00  0.00    +0.000 A 
ATOM     10  N   UNL     1       0.348  10.095  18.988  0.00  0.00    +0.000 N 
ENDROOT
BRANCH   3  11
ATOM     11  C   UNL     1       2.720   7.411  19.713  0.00  0.00    +0.000 C 
BRANCH  11  12
ATOM     12  C   UNL     1       2.087   6.070  19.426  0.00  0.00    +0.000 A 
ATOM     13  C   UNL     1       1.538   5.311  20.474  0.00  0.00    +0.000 A 
ATOM     14  C   UNL     1       1.061   4.021  20.243  0.00  0.00    +0.000 A 
ATOM     15  C   UNL     1       1.112   3.497  18.957  0.00  0.00    +0.000 A 
ATOM     16  C   UNL     1       1.588   4.256  17.895  0.00  0.00    +0.000 A 
ATOM     17  C   UNL     1       2.077   5.542  18.127  0.00  0.00    +0.000 A 
BRANCH  15  18
ATOM     18  O   UNL     1       0.717   2.218  18.700  0.00  0.00    +0.000 OA
ATOM     19  H   UNL     1      -0.077   2.035  19.229  0.00  0.00    +0.000 HD
ENDBRANCH  15  18
ENDBRANCH  11  12
ENDBRANCH   3  11
BRANCH  10  20
ATOM     20  C   UNL     1      -0.160  11.146  18.143  0.00  0.00    +0.000 C 
BRANCH  20  21
ATOM     21  C   UNL     1       0.544  12.440  18.359  0.00  0.00    +0.000 A 
ATOM     22  N   UNL     1       0.022  13.531  18.887  0.00  0.00    +0.000 NA
ATOM     23  C   UNL     1       1.002  14.485  18.804  0.00  0.00    +0.000 A 
ATOM     24  C   UNL     1       0.961  15.838  19.168  0.00  0.00    +0.000 A 
ATOM     25  C   UNL     1       2.089  16.629  18.931  0.00  0.00    +0.000 A 
ATOM     26  C   UNL     1       3.243  16.078  18.366  0.00  0.00    +0.000 A 
ATOM     27  C   UNL     1       3.310  14.723  18.019  0.00  0.00    +0.000 A 
ATOM     28  C   UNL     1       2.162  13.961  18.246  0.00  0.00    +0.000 A 
ATOM     29  N   UNL     1       1.855  12.645  18.003  0.00  0.00    +0.000 N 
ATOM     30  H   UNL     1       2.461  11.960  17.574  0.00  0.00    +0.000 HD
ENDBRANCH  20  21
ENDBRANCH  10  20
TORSDOF 5
ENDMDL
MODEL 8
REMARK VINA RESULT:      -7.8      4.568      9.044
REMARK  Name = 
REMARK  5 active torsions:
REMARK  status: ('A' for Active; 'I' for Inactive)
REMARK    1  A    between atoms: N_3  and  C_4
REMARK    2  A    between atoms: C_4  and  C_5
REMARK    3  A    between atoms: C_8  and  O_9
REMARK    4  A    between atoms: N_18  and  C_19
REMARK    5  A    between atoms: C_19  and  C_20
REMARK                            x       y       z     vdW  Elec       q    Type
REMARK                         _______ _______ _______ _____ _____    ______ ____
ROOT
ATOM      1  O   UNL     1       1.344   9.055  17.416  0.00  0.00    +0.000 OA
ATOM      2  C   UNL     1       1.025   9.227  18.585  0.00  0.00    +0.000 A 
ATOM      3  N   UNL     1       1.580   8.600  19.712  0.00  0.00    +0.000 N 
ATOM      4  C   UNL     1       0.929   9.071  20.862  0.00  0.00    +0.000 A 
ATOM      5  C   UNL     1       1.125   8.751  22.191  0.00  0.00    +0.000 A 
ATOM      6  C   UNL     1       0.333   9.416  23.132  0.00  0.00    +0.000 A 
ATOM      7  C   UNL     1      -0.621  10.369  22.731  0.00  0.00    +0.000 A 
ATOM      8  C   UNL     1      -0.805  10.681  21.378  0.00  0.00    +0.000 A 
ATOM      9  C   UNL     1      -0.022  10.014  20.459  0.00  0.00    +0.000 A 
ATOM     10  N   UNL     1       0.020  10.093  19.056  0.00  0.00    +0.000 N 
ENDROOT
BRANCH   3  11
ATOM     11  C   UNL     1       2.628   7.609  19.671  0.00  0.00    +0.000 C 
BRANCH  11  12
ATOM     12  C   UNL     1       2.080   6.223  19.427  0.00  0.00    +0.000 A 
ATOM     13  C   UNL     1       1.558   5.473  20.495  0.00  0.00    +0.000 A 
ATOM     14  C   UNL     1       1.161   4.150  20.307  0.00  0.00    +0.000 A 
ATOM     15  C   UNL     1       1.264   3.581  19.043  0.00  0.00    +0.000 A 
ATOM     16  C   UNL     1       1.713   4.327  17.960  0.00  0.00    +0.000 A 
ATOM     17  C   UNL     1       2.122   5.647  18.149  0.00  0.00    +0.000 A 
BRANCH  15  18
ATOM     18  O   UNL     1       0.948   2.273  18.830  0.00  0.00    +0.000 OA
ATOM     19  H   UNL     1       1.568   1.725  19.339  0.00  0.00    +0.000 HD
ENDBRANCH  15  18
ENDBRANCH  11  12
ENDBRANCH   3  11
BRANCH  10  20
ATOM     20  C   UNL     1      -0.625  11.077  18.224  0.00  0.00    +0.000 C 
BRANCH  20  21
ATOM     21  C   UNL     1      -0.075  12.445  18.431  0.00  0.00    +0.000 A 
ATOM     22  N   UNL     1       1.197  12.755  18.596  0.00  0.00    +0.000 NA
ATOM     23  C   UNL     1       1.219  14.105  18.837  0.00  0.00    +0.000 A 
ATOM     24  C   UNL     1       2.305  14.938  19.136  0.00  0.00    +0.000 A 
ATOM     25  C   UNL     1       2.058  16.290  19.399  0.00  0.00    +0.000 A 
ATOM     26  C   UNL     1       0.759  16.804  19.340  0.00  0.00    +0.000 A 
ATOM     27  C   UNL     1      -0.334  15.990  19.019  0.00  0.00    +0.000 A 
ATOM     28  C   UNL     1      -0.063  14.640  18.783  0.00  0.00    +0.000 A 
ATOM     29  N   UNL     1      -0.866  13.568  18.487  0.00  0.00    +0.000 N 
ATOM     30  H   UNL     1      -1.872  13.583  18.395  0.00  0.00    +0.000 HD
ENDBRANCH  20  21
ENDBRANCH  10  20
TORSDOF 5
ENDMDL
MODEL 9
REMARK VINA RESULT:      -7.7      4.500      8.861
REMARK  Name = 
REMARK  5 active torsions:
REMARK  status: ('A' for Active; 'I' for Inactive)
REMARK    1  A    between atoms: N_3  and  C_4
REMARK    2  A    between atoms: C_4  and  C_5
REMARK    3  A    between atoms: C_8  and  O_9
REMARK    4  A    between atoms: N_18  and  C_19
REMARK    5  A    between atoms: C_19  and  C_20
REMARK                            x       y       z     vdW  Elec       q    Type
REMARK                         _______ _______ _______ _____ _____    ______ ____
ROOT
ATOM      1  O   UNL     1       1.551   8.828  17.333  0.00  0.00    +0.000 OA
ATOM      2  C   UNL     1       1.212   9.018  18.494  0.00  0.00    +0.000 A 
ATOM      3  N   UNL     1       1.741   8.400  19.638  0.00  0.00    +0.000 N 
ATOM      4  C   UNL     1       1.073   8.891  20.770  0.00  0.00    +0.000 A 
ATOM      5  C   UNL     1       1.241   8.587  22.107  0.00  0.00    +0.000 A 
ATOM      6  C   UNL     1       0.438   9.271  23.024  0.00  0.00    +0.000 A 
ATOM      7  C   UNL     1      -0.499  10.227  22.593  0.00  0.00    +0.000 A 
ATOM      8  C   UNL     1      -0.656  10.523  21.233  0.00  0.00    +0.000 A 
ATOM      9  C   UNL     1       0.138   9.837  20.338  0.00  0.00    +0.000 A 
ATOM     10  N   UNL     1       0.206   9.898  18.934  0.00  0.00    +0.000 N 
ENDROOT
BRANCH   3  11
ATOM     11  C   UNL     1       2.781   7.400  19.630  0.00  0.00    +0.000 C 
BRANCH  11  12
ATOM     12  C   UNL     1       2.221   6.011  19.431  0.00  0.00    +0.000 A 
ATOM     13  C   UNL     1       2.211   5.431  18.152  0.00  0.00    +0.000 A 
ATOM     14  C   UNL     1       1.589   4.203  17.933  0.00  0.00    +0.000 A 
ATOM     15  C   UNL     1       0.993   3.542  19.000  0.00  0.00    +0.000 A 
ATOM     16  C   UNL     1       1.052   4.065  20.286  0.00  0.00    +0.000 A 
ATOM     17  C   UNL     1       1.663   5.300  20.504  0.00  0.00    +0.000 A 
BRANCH  15  18
ATOM     18  O   UNL     1       0.319   2.372  18.818  0.00  0.00    +0.000 OA
ATOM     19  H   UNL     1       0.926   1.732  18.413  0.00  0.00    +0.000 HD
ENDBRANCH  15  18
ENDBRANCH  11  12
ENDBRANCH   3  11
BRANCH  10  20
ATOM     20  C   UNL     1      -0.415  10.877  18.078  0.00  0.00    +0.000 C 
BRANCH  20  21
ATOM     21  C   UNL     1       0.073  12.258  18.347  0.00  0.00    +0.000 A 
ATOM     22  N   UNL     1      -0.668  13.289  18.705  0.00  0.00    +0.000 NA
ATOM     23  C   UNL     1       0.187  14.359  18.751  0.00  0.00    +0.000 A 
ATOM     24  C   UNL     1      -0.087  15.706  19.023  0.00  0.00    +0.000 A 
ATOM     25  C   UNL     1       0.962  16.629  18.955  0.00  0.00    +0.000 A 
ATOM     26  C   UNL     1       2.261  16.213  18.646  0.00  0.00    +0.000 A 
ATOM     27  C   UNL     1       2.556  14.867  18.396  0.00  0.00    +0.000 A 
ATOM     28  C   UNL     1       1.487  13.971  18.450  0.00  0.00    +0.000 A 
ATOM     29  N   UNL     1       1.394  12.619  18.230  0.00  0.00    +0.000 N 
ATOM     30  H   UNL     1       2.149  12.005  17.961  0.00  0.00    +0.000 HD
ENDBRANCH  20  21
ENDBRANCH  10  20
TORSDOF 5
ENDMDL
