MODEL 1
REMARK VINA RESULT:      -6.6      0.000      0.000
REMARK  Name = 
REMARK  6 active torsions:
REMARK  status: ('A' for Active; 'I' for Inactive)
REMARK    1  A    between atoms: C_5  and  S_6
REMARK    2  A    between atoms: S_6  and  C_7
REMARK    3  A    between atoms: C_15  and  S_16
REMARK    4  A    between atoms: S_16  and  C_17
REMARK    5  A    between atoms: C_23  and  S_24
REMARK    6  A    between atoms: S_24  and  C_25
REMARK                            x       y       z     vdW  Elec       q    Type
REMARK                         _______ _______ _______ _____ _____    ______ ____
ROOT
ATOM      1  O   UNL     1      -1.457  10.367  17.807  0.00  0.00    +0.000 OA
ATOM      2  C   UNL     1      -2.135  11.268  18.295  0.00  0.00    +0.000 C 
ATOM      3  C   UNL     1      -3.576  11.394  17.952  0.00  0.00    +0.000 C 
ATOM      4 CL   UNL     1      -4.097  10.491  16.564  0.00  0.00    +0.000 Cl
ATOM      5  C   UNL     1      -4.400  12.134  18.703  0.00  0.00    +0.000 C 
ATOM      6  C   UNL     1      -3.841  12.910  19.846  0.00  0.00    +0.000 C 
ATOM      7  O   UNL     1      -4.571  13.281  20.762  0.00  0.00    +0.000 OA
ATOM      8  C   UNL     1      -2.356  13.147  19.888  0.00  0.00    +0.000 C 
ATOM      9  C   UNL     1      -1.552  12.285  19.232  0.00  0.00    +0.000 C 
ENDROOT
BRANCH   5  10
ATOM     10  S   UNL     1      -6.118  12.284  18.431  0.00  0.00    +0.000 S 
BRANCH  10  11
ATOM     11  C   UNL     1      -6.727  10.930  19.431  0.00  0.00    +0.000 A 
ATOM     12  C   UNL     1      -7.408  11.164  20.631  0.00  0.00    +0.000 A 
ATOM     13  C   UNL     1      -7.916  10.100  21.383  0.00  0.00    +0.000 A 
ATOM     14  C   UNL     1      -7.765   8.792  20.929  0.00  0.00    +0.000 A 
ATOM     15  C   UNL     1      -7.112   8.548  19.722  0.00  0.00    +0.000 A 
ATOM     16  C   UNL     1      -6.596   9.612  18.975  0.00  0.00    +0.000 A 
ENDBRANCH  10  11
ENDBRANCH   5  10
BRANCH   8  17
ATOM     17  S   UNL     1      -1.785  14.313  21.063  0.00  0.00    +0.000 S 
BRANCH  17  18
ATOM     18  C   UNL     1      -1.568  15.803  20.095  0.00  0.00    +0.000 A 
ATOM     19  C   UNL     1      -2.270  16.971  20.418  0.00  0.00    +0.000 A 
ATOM     20  C   UNL     1      -2.016  18.174  19.752  0.00  0.00    +0.000 A 
ATOM     21  C   UNL     1      -1.030  18.231  18.772  0.00  0.00    +0.000 A 
ATOM     22  C   UNL     1      -0.312  17.080  18.449  0.00  0.00    +0.000 A 
ATOM     23  C   UNL     1      -0.581  15.870  19.103  0.00  0.00    +0.000 A 
ENDBRANCH  17  18
ENDBRANCH   8  17
BRANCH   9  24
ATOM     24  S   UNL     1       0.130  12.008  19.622  0.00  0.00    +0.000 S 
BRANCH  24  25
ATOM     25  C   UNL     1       0.124  10.731  20.865  0.00  0.00    +0.000 A 
ATOM     26  C   UNL     1      -0.317  11.090  22.146  0.00  0.00    +0.000 A 
ATOM     27  C   UNL     1      -0.550  10.120  23.124  0.00  0.00    +0.000 A 
ATOM     28  C   UNL     1      -0.337   8.775  22.828  0.00  0.00    +0.000 A 
ATOM     29  C   UNL     1       0.102   8.407  21.555  0.00  0.00    +0.000 A 
ATOM     30  C   UNL     1       0.331   9.380  20.573  0.00  0.00    +0.000 A 
ENDBRANCH  24  25
ENDBRANCH   9  24
TORSDOF 6
ENDMDL
MODEL 2
REMARK VINA RESULT:      -6.5      3.540      6.390
REMARK  Name = 
REMARK  6 active torsions:
REMARK  status: ('A' for Active; 'I' for Inactive)
REMARK    1  A    between atoms: C_5  and  S_6
REMARK    2  A    between atoms: S_6  and  C_7
REMARK    3  A    between atoms: C_15  and  S_16
REMARK    4  A    between atoms: S_16  and  C_17
REMARK    5  A    between atoms: C_23  and  S_24
REMARK    6  A    between atoms: S_24  and  C_25
REMARK                            x       y       z     vdW  Elec       q    Type
REMARK                         _______ _______ _______ _____ _____    ______ ____
ROOT
ATOM      1  O   UNL     1       0.903  15.344  22.258  0.00  0.00    +0.000 OA
ATOM      2  C   UNL     1       0.247  14.315  22.119  0.00  0.00    +0.000 C 
ATOM      3  C   UNL     1       0.636  13.310  21.094  0.00  0.00    +0.000 C 
ATOM      4 CL   UNL     1       1.762  13.862  19.895  0.00  0.00    +0.000 Cl
ATOM      5  C   UNL     1       0.160  12.060  21.141  0.00  0.00    +0.000 C 
ATOM      6  C   UNL     1      -0.841  11.703  22.185  0.00  0.00    +0.000 C 
ATOM      7  O   UNL     1      -1.015  10.529  22.506  0.00  0.00    +0.000 OA
ATOM      8  C   UNL     1      -1.564  12.817  22.891  0.00  0.00    +0.000 C 
ATOM      9  C   UNL     1      -0.974  14.029  22.944  0.00  0.00    +0.000 C 
ENDROOT
BRANCH   5  10
ATOM     10  S   UNL     1       0.614  10.788  20.035  0.00  0.00    +0.000 S 
BRANCH  10  11
ATOM     11  C   UNL     1      -0.795  10.797  18.931  0.00  0.00    +0.000 A 
ATOM     12  C   UNL     1      -1.804  11.758  19.052  0.00  0.00    +0.000 A 
ATOM     13  C   UNL     1      -2.879  11.783  18.157  0.00  0.00    +0.000 A 
ATOM     14  C   UNL     1      -2.942  10.856  17.120  0.00  0.00    +0.000 A 
ATOM     15  C   UNL     1      -1.929   9.910  16.972  0.00  0.00    +0.000 A 
ATOM     16  C   UNL     1      -0.859   9.881  17.873  0.00  0.00    +0.000 A 
ENDBRANCH  10  11
ENDBRANCH   5  10
BRANCH   8  17
ATOM     17  S   UNL     1      -2.938  12.357  23.875  0.00  0.00    +0.000 S 
BRANCH  17  18
ATOM     18  C   UNL     1      -4.340  12.740  22.830  0.00  0.00    +0.000 A 
ATOM     19  C   UNL     1      -5.599  12.990  23.390  0.00  0.00    +0.000 A 
ATOM     20  C   UNL     1      -6.670  13.415  22.598  0.00  0.00    +0.000 A 
ATOM     21  C   UNL     1      -6.487  13.625  21.235  0.00  0.00    +0.000 A 
ATOM     22  C   UNL     1      -5.236  13.395  20.665  0.00  0.00    +0.000 A 
ATOM     23  C   UNL     1      -4.167  12.950  21.456  0.00  0.00    +0.000 A 
ENDBRANCH  17  18
ENDBRANCH   8  17
BRANCH   9  24
ATOM     24  S   UNL     1      -1.305  15.240  24.162  0.00  0.00    +0.000 S 
BRANCH  24  25
ATOM     25  C   UNL     1      -2.822  16.023  23.652  0.00  0.00    +0.000 A 
ATOM     26  C   UNL     1      -2.956  16.327  22.289  0.00  0.00    +0.000 A 
ATOM     27  C   UNL     1      -4.179  16.751  21.765  0.00  0.00    +0.000 A 
ATOM     28  C   UNL     1      -5.284  16.881  22.604  0.00  0.00    +0.000 A 
ATOM     29  C   UNL     1      -5.161  16.580  23.961  0.00  0.00    +0.000 A 
ATOM     30  C   UNL     1      -3.935  16.151  24.487  0.00  0.00    +0.000 A 
ENDBRANCH  24  25
ENDBRANCH   9  24
TORSDOF 6
ENDMDL
MODEL 3
REMARK VINA RESULT:      -6.5      5.317      9.259
REMARK  Name = 
REMARK  6 active torsions:
REMARK  status: ('A' for Active; 'I' for Inactive)
REMARK    1  A    between atoms: C_5  and  S_6
REMARK    2  A    between atoms: S_6  and  C_7
REMARK    3  A    between atoms: C_15  and  S_16
REMARK    4  A    between atoms: S_16  and  C_17
REMARK    5  A    between atoms: C_23  and  S_24
REMARK    6  A    between atoms: S_24  and  C_25
REMARK                            x       y       z     vdW  Elec       q    Type
REMARK                         _______ _______ _______ _____ _____    ______ ____
ROOT
ATOM      1  O   UNL     1       2.883   8.286  16.848  0.00  0.00    +0.000 OA
ATOM      2  C   UNL     1       2.580   8.180  18.034  0.00  0.00    +0.000 C 
ATOM      3  C   UNL     1       1.903   9.301  18.739  0.00  0.00    +0.000 C 
ATOM      4 CL   UNL     1       1.952  10.834  17.928  0.00  0.00    +0.000 Cl
ATOM      5  C   UNL     1       1.273   9.101  19.902  0.00  0.00    +0.000 C 
ATOM      6  C   UNL     1       1.333   7.754  20.539  0.00  0.00    +0.000 C 
ATOM      7  O   UNL     1       0.492   7.421  21.371  0.00  0.00    +0.000 OA
ATOM      8  C   UNL     1       2.389   6.791  20.072  0.00  0.00    +0.000 C 
ATOM      9  C   UNL     1       2.892   6.946  18.829  0.00  0.00    +0.000 C 
ENDROOT
BRANCH   5  10
ATOM     10  S   UNL     1       0.384  10.328  20.769  0.00  0.00    +0.000 S 
BRANCH  10  11
ATOM     11  C   UNL     1      -0.936  10.657  19.606  0.00  0.00    +0.000 A 
ATOM     12  C   UNL     1      -1.307   9.712  18.643  0.00  0.00    +0.000 A 
ATOM     13  C   UNL     1      -2.367   9.963  17.766  0.00  0.00    +0.000 A 
ATOM     14  C   UNL     1      -3.080  11.155  17.860  0.00  0.00    +0.000 A 
ATOM     15  C   UNL     1      -2.739  12.093  18.832  0.00  0.00    +0.000 A 
ATOM     16  C   UNL     1      -1.672  11.845  19.703  0.00  0.00    +0.000 A 
ENDBRANCH  10  11
ENDBRANCH   5  10
BRANCH   8  17
ATOM     17  S   UNL     1       2.623   5.355  21.046  0.00  0.00    +0.000 S 
BRANCH  17  18
ATOM     18  C   UNL     1       2.160   4.026  19.940  0.00  0.00    +0.000 A 
ATOM     19  C   UNL     1       3.097   3.055  19.561  0.00  0.00    +0.000 A 
ATOM     20  C   UNL     1       2.718   1.943  18.803  0.00  0.00    +0.000 A 
ATOM     21  C   UNL     1       1.386   1.771  18.439  0.00  0.00    +0.000 A 
ATOM     22  C   UNL     1       0.439   2.720  18.821  0.00  0.00    +0.000 A 
ATOM     23  C   UNL     1       0.823   3.845  19.564  0.00  0.00    +0.000 A 
ENDBRANCH  17  18
ENDBRANCH   8  17
BRANCH   9  24
ATOM     24  S   UNL     1       3.628   5.666  17.892  0.00  0.00    +0.000 S 
BRANCH  24  25
ATOM     25  C   UNL     1       5.384   5.866  18.112  0.00  0.00    +0.000 A 
ATOM     26  C   UNL     1       6.030   6.794  17.283  0.00  0.00    +0.000 A 
ATOM     27  C   UNL     1       7.355   7.167  17.517  0.00  0.00    +0.000 A 
ATOM     28  C   UNL     1       8.053   6.608  18.586  0.00  0.00    +0.000 A 
ATOM     29  C   UNL     1       7.419   5.683  19.418  0.00  0.00    +0.000 A 
ATOM     30  C   UNL     1       6.088   5.312  19.186  0.00  0.00    +0.000 A 
ENDBRANCH  24  25
ENDBRANCH   9  24
TORSDOF 6
ENDMDL
MODEL 4
REMARK VINA RESULT:      -6.4      2.612      4.131
REMARK  Name = 
REMARK  6 active torsions:
REMARK  status: ('A' for Active; 'I' for Inactive)
REMARK    1  A    between atoms: C_5  and  S_6
REMARK    2  A    between atoms: S_6  and  C_7
REMARK    3  A    between atoms: C_15  and  S_16
REMARK    4  A    between atoms: S_16  and  C_17
REMARK    5  A    between atoms: C_23  and  S_24
REMARK    6  A    between atoms: S_24  and  C_25
REMARK                            x       y       z     vdW  Elec       q    Type
REMARK                         _______ _______ _______ _____ _____    ______ ____
ROOT
ATOM      1  O   UNL     1      -2.134  10.956  17.793  0.00  0.00    +0.000 OA
ATOM      2  C   UNL     1      -2.879  11.562  18.560  0.00  0.00    +0.000 C 
ATOM      3  C   UNL     1      -4.316  11.741  18.225  0.00  0.00    +0.000 C 
ATOM      4 CL   UNL     1      -4.746  11.422  16.574  0.00  0.00    +0.000 Cl
ATOM      5  C   UNL     1      -5.203  12.091  19.164  0.00  0.00    +0.000 C 
ATOM      6  C   UNL     1      -4.721  12.390  20.543  0.00  0.00    +0.000 C 
ATOM      7  O   UNL     1      -5.494  12.340  21.497  0.00  0.00    +0.000 OA
ATOM      8  C   UNL     1      -3.256  12.664  20.742  0.00  0.00    +0.000 C 
ATOM      9  C   UNL     1      -2.383  12.164  19.842  0.00  0.00    +0.000 C 
ENDROOT
BRANCH   5  10
ATOM     10  S   UNL     1      -6.920  12.251  18.892  0.00  0.00    +0.000 S 
BRANCH  10  11
ATOM     11  C   UNL     1      -6.986  13.891  18.178  0.00  0.00    +0.000 A 
ATOM     12  C   UNL     1      -6.675  15.025  18.937  0.00  0.00    +0.000 A 
ATOM     13  C   UNL     1      -6.689  16.298  18.358  0.00  0.00    +0.000 A 
ATOM     14  C   UNL     1      -6.996  16.446  17.008  0.00  0.00    +0.000 A 
ATOM     15  C   UNL     1      -7.282  15.322  16.235  0.00  0.00    +0.000 A 
ATOM     16  C   UNL     1      -7.277  14.049  16.817  0.00  0.00    +0.000 A 
ENDBRANCH  10  11
ENDBRANCH   5  10
BRANCH   8  17
ATOM     17  S   UNL     1      -2.787  13.309  22.301  0.00  0.00    +0.000 S 
BRANCH  17  18
ATOM     18  C   UNL     1      -2.494  15.042  21.959  0.00  0.00    +0.000 A 
ATOM     19  C   UNL     1      -1.447  15.725  22.590  0.00  0.00    +0.000 A 
ATOM     20  C   UNL     1      -1.128  17.041  22.237  0.00  0.00    +0.000 A 
ATOM     21  C   UNL     1      -1.836  17.681  21.225  0.00  0.00    +0.000 A 
ATOM     22  C   UNL     1      -2.871  17.008  20.578  0.00  0.00    +0.000 A 
ATOM     23  C   UNL     1      -3.204  15.697  20.945  0.00  0.00    +0.000 A 
ENDBRANCH  17  18
ENDBRANCH   8  17
BRANCH   9  24
ATOM     24  S   UNL     1      -0.697  11.839  20.173  0.00  0.00    +0.000 S 
BRANCH  24  25
ATOM     25  C   UNL     1       0.150  13.377  19.871  0.00  0.00    +0.000 A 
ATOM     26  C   UNL     1      -0.412  14.239  18.917  0.00  0.00    +0.000 A 
ATOM     27  C   UNL     1       0.061  15.543  18.761  0.00  0.00    +0.000 A 
ATOM     28  C   UNL     1       1.109  16.000  19.558  0.00  0.00    +0.000 A 
ATOM     29  C   UNL     1       1.674  15.150  20.511  0.00  0.00    +0.000 A 
ATOM     30  C   UNL     1       1.198  13.843  20.671  0.00  0.00    +0.000 A 
ENDBRANCH  24  25
ENDBRANCH   9  24
TORSDOF 6
ENDMDL
MODEL 5
REMARK VINA RESULT:      -6.4      1.944      3.088
REMARK  Name = 
REMARK  6 active torsions:
REMARK  status: ('A' for Active; 'I' for Inactive)
REMARK    1  A    between atoms: C_5  and  S_6
REMARK    2  A    between atoms: S_6  and  C_7
REMARK    3  A    between atoms: C_15  and  S_16
REMARK    4  A    between atoms: S_16  and  C_17
REMARK    5  A    between atoms: C_23  and  S_24
REMARK    6  A    between atoms: S_24  and  C_25
REMARK                            x       y       z     vdW  Elec       q    Type
REMARK                         _______ _______ _______ _____ _____    ______ ____
ROOT
ATOM      1  O   UNL     1      -1.844  10.487  17.374  0.00  0.00    +0.000 OA
ATOM      2  C   UNL     1      -2.350  11.320  18.122  0.00  0.00    +0.000 C 
ATOM      3  C   UNL     1      -3.829  11.442  18.219  0.00  0.00    +0.000 C 
ATOM      4 CL   UNL     1      -4.729  10.661  16.958  0.00  0.00    +0.000 Cl
ATOM      5  C   UNL     1      -4.399  12.087  19.243  0.00  0.00    +0.000 C 
ATOM      6  C   UNL     1      -3.533  12.766  20.248  0.00  0.00    +0.000 C 
ATOM      7  O   UNL     1      -3.967  13.031  21.367  0.00  0.00    +0.000 OA
ATOM      8  C   UNL     1      -2.098  13.035  19.886  0.00  0.00    +0.000 C 
ATOM      9  C   UNL     1      -1.519  12.259  18.946  0.00  0.00    +0.000 C 
ENDROOT
BRANCH   5  10
ATOM     10  S   UNL     1      -6.123  12.220  19.490  0.00  0.00    +0.000 S 
BRANCH  10  11
ATOM     11  C   UNL     1      -6.470  13.719  18.575  0.00  0.00    +0.000 A 
ATOM     12  C   UNL     1      -6.356  14.977  19.176  0.00  0.00    +0.000 A 
ATOM     13  C   UNL     1      -6.589  16.143  18.440  0.00  0.00    +0.000 A 
ATOM     14  C   UNL     1      -6.919  16.061  17.090  0.00  0.00    +0.000 A 
ATOM     15  C   UNL     1      -7.010  14.814  16.473  0.00  0.00    +0.000 A 
ATOM     16  C   UNL     1      -6.785  13.647  17.213  0.00  0.00    +0.000 A 
ENDBRANCH  10  11
ENDBRANCH   5  10
BRANCH   8  17
ATOM     17  S   UNL     1      -1.209  14.098  20.956  0.00  0.00    +0.000 S 
BRANCH  17  18
ATOM     18  C   UNL     1      -1.321  15.689  20.144  0.00  0.00    +0.000 A 
ATOM     19  C   UNL     1      -0.463  16.010  19.084  0.00  0.00    +0.000 A 
ATOM     20  C   UNL     1      -0.624  17.194  18.358  0.00  0.00    +0.000 A 
ATOM     21  C   UNL     1      -1.667  18.062  18.665  0.00  0.00    +0.000 A 
ATOM     22  C   UNL     1      -2.538  17.750  19.707  0.00  0.00    +0.000 A 
ATOM     23  C   UNL     1      -2.365  16.572  20.447  0.00  0.00    +0.000 A 
ENDBRANCH  17  18
ENDBRANCH   8  17
BRANCH   9  24
ATOM     24  S   UNL     1       0.203  11.988  18.810  0.00  0.00    +0.000 S 
BRANCH  24  25
ATOM     25  C   UNL     1       0.508  10.445  19.647  0.00  0.00    +0.000 A 
ATOM     26  C   UNL     1       1.246   9.476  18.951  0.00  0.00    +0.000 A 
ATOM     27  C   UNL     1       1.706   8.326  19.594  0.00  0.00    +0.000 A 
ATOM     28  C   UNL     1       1.429   8.130  20.945  0.00  0.00    +0.000 A 
ATOM     29  C   UNL     1       0.697   9.088  21.647  0.00  0.00    +0.000 A 
ATOM     30  C   UNL     1       0.237  10.245  21.004  0.00  0.00    +0.000 A 
ENDBRANCH  24  25
ENDBRANCH   9  24
TORSDOF 6
ENDMDL
MODEL 6
REMARK VINA RESULT:      -6.4      1.925      3.017
REMARK  Name = 
REMARK  6 active torsions:
REMARK  status: ('A' for Active; 'I' for Inactive)
REMARK    1  A    between atoms: C_5  and  S_6
REMARK    2  A    between atoms: S_6  and  C_7
REMARK    3  A    between atoms: C_15  and  S_16
REMARK    4  A    between atoms: S_16  and  C_17
REMARK    5  A    between atoms: C_23  and  S_24
REMARK    6  A    between atoms: S_24  and  C_25
REMARK                            x       y       z     vdW  Elec       q    Type
REMARK                         _______ _______ _______ _____ _____    ______ ____
ROOT
ATOM      1  O   UNL     1      -1.866  10.569  17.806  0.00  0.00    +0.000 OA
ATOM      2  C   UNL     1      -2.391  11.470  18.455  0.00  0.00    +0.000 C 
ATOM      3  C   UNL     1      -3.871  11.603  18.494  0.00  0.00    +0.000 C 
ATOM      4 CL   UNL     1      -4.735  10.707  17.284  0.00  0.00    +0.000 Cl
ATOM      5  C   UNL     1      -4.471  12.343  19.433  0.00  0.00    +0.000 C 
ATOM      6  C   UNL     1      -3.633  13.112  20.397  0.00  0.00    +0.000 C 
ATOM      7  O   UNL     1      -4.101  13.483  21.471  0.00  0.00    +0.000 OA
ATOM      8  C   UNL     1      -2.186  13.344  20.057  0.00  0.00    +0.000 C 
ATOM      9  C   UNL     1      -1.582  12.481  19.213  0.00  0.00    +0.000 C 
ENDROOT
BRANCH   5  10
ATOM     10  S   UNL     1      -6.200  12.501  19.613  0.00  0.00    +0.000 S 
BRANCH  10  11
ATOM     11  C   UNL     1      -6.519  13.877  18.513  0.00  0.00    +0.000 A 
ATOM     12  C   UNL     1      -6.892  13.668  17.180  0.00  0.00    +0.000 A 
ATOM     13  C   UNL     1      -7.179  14.749  16.341  0.00  0.00    +0.000 A 
ATOM     14  C   UNL     1      -7.114  16.050  16.834  0.00  0.00    +0.000 A 
ATOM     15  C   UNL     1      -6.769  16.270  18.167  0.00  0.00    +0.000 A 
ATOM     16  C   UNL     1      -6.473  15.188  19.003  0.00  0.00    +0.000 A 
ENDBRANCH  10  11
ENDBRANCH   5  10
BRANCH   8  17
ATOM     17  S   UNL     1      -1.327  14.502  21.049  0.00  0.00    +0.000 S 
BRANCH  17  18
ATOM     18  C   UNL     1      -1.330  15.986  20.048  0.00  0.00    +0.000 A 
ATOM     19  C   UNL     1      -0.412  16.142  19.002  0.00  0.00    +0.000 A 
ATOM     20  C   UNL     1      -0.487  17.236  18.133  0.00  0.00    +0.000 A 
ATOM     21  C   UNL     1      -1.503  18.174  18.281  0.00  0.00    +0.000 A 
ATOM     22  C   UNL     1      -2.434  18.025  19.308  0.00  0.00    +0.000 A 
ATOM     23  C   UNL     1      -2.347  16.939  20.191  0.00  0.00    +0.000 A 
ENDBRANCH  17  18
ENDBRANCH   8  17
BRANCH   9  24
ATOM     24  S   UNL     1       0.143  12.196  19.158  0.00  0.00    +0.000 S 
BRANCH  24  25
ATOM     25  C   UNL     1       0.442  10.875  20.315  0.00  0.00    +0.000 A 
ATOM     26  C   UNL     1      -0.061  11.039  21.614  0.00  0.00    +0.000 A 
ATOM     27  C   UNL     1      -0.054   9.980  22.524  0.00  0.00    +0.000 A 
ATOM     28  C   UNL     1       0.462   8.743  22.144  0.00  0.00    +0.000 A 
ATOM     29  C   UNL     1       0.964   8.570  20.853  0.00  0.00    +0.000 A 
ATOM     30  C   UNL     1       0.955   9.630  19.938  0.00  0.00    +0.000 A 
ENDBRANCH  24  25
ENDBRANCH   9  24
TORSDOF 6
ENDMDL
MODEL 7
REMARK VINA RESULT:      -6.3      0.552      1.044
REMARK  Name = 
REMARK  6 active torsions:
REMARK  status: ('A' for Active; 'I' for Inactive)
REMARK    1  A    between atoms: C_5  and  S_6
REMARK    2  A    between atoms: S_6  and  C_7
REMARK    3  A    between atoms: C_15  and  S_16
REMARK    4  A    between atoms: S_16  and  C_17
REMARK    5  A    between atoms: C_23  and  S_24
REMARK    6  A    between atoms: S_24  and  C_25
REMARK                            x       y       z     vdW  Elec       q    Type
REMARK                         _______ _______ _______ _____ _____    ______ ____
ROOT
ATOM      1  O   UNL     1      -1.698  10.483  17.392  0.00  0.00    +0.000 OA
ATOM      2  C   UNL     1      -2.329  11.314  18.040  0.00  0.00    +0.000 C 
ATOM      3  C   UNL     1      -3.792  11.479  17.828  0.00  0.00    +0.000 C 
ATOM      4 CL   UNL     1      -4.425  10.753  16.385  0.00  0.00    +0.000 Cl
ATOM      5  C   UNL     1      -4.549  12.118  18.727  0.00  0.00    +0.000 C 
ATOM      6  C   UNL     1      -3.896  12.748  19.910  0.00  0.00    +0.000 C 
ATOM      7  O   UNL     1      -4.550  13.001  20.920  0.00  0.00    +0.000 OA
ATOM      8  C   UNL     1      -2.411  12.981  19.866  0.00  0.00    +0.000 C 
ATOM      9  C   UNL     1      -1.667  12.209  19.047  0.00  0.00    +0.000 C 
ENDROOT
BRANCH   5  10
ATOM     10  S   UNL     1      -6.282  12.297  18.612  0.00  0.00    +0.000 S 
BRANCH  10  11
ATOM     11  C   UNL     1      -6.821  10.872  19.551  0.00  0.00    +0.000 A 
ATOM     12  C   UNL     1      -7.457  11.017  20.788  0.00  0.00    +0.000 A 
ATOM     13  C   UNL     1      -7.912   9.899  21.494  0.00  0.00    +0.000 A 
ATOM     14  C   UNL     1      -7.752   8.624  20.957  0.00  0.00    +0.000 A 
ATOM     15  C   UNL     1      -7.143   8.468  19.713  0.00  0.00    +0.000 A 
ATOM     16  C   UNL     1      -6.680   9.587  19.011  0.00  0.00    +0.000 A 
ENDBRANCH  10  11
ENDBRANCH   5  10
BRANCH   8  17
ATOM     17  S   UNL     1      -1.742  13.994  21.127  0.00  0.00    +0.000 S 
BRANCH  17  18
ATOM     18  C   UNL     1      -1.808  15.636  20.418  0.00  0.00    +0.000 A 
ATOM     19  C   UNL     1      -2.827  16.526  20.778  0.00  0.00    +0.000 A 
ATOM     20  C   UNL     1      -2.819  17.852  20.332  0.00  0.00    +0.000 A 
ATOM     21  C   UNL     1      -1.770  18.313  19.541  0.00  0.00    +0.000 A 
ATOM     22  C   UNL     1      -0.741  17.443  19.188  0.00  0.00    +0.000 A 
ATOM     23  C   UNL     1      -0.760  16.109  19.619  0.00  0.00    +0.000 A 
ENDBRANCH  17  18
ENDBRANCH   8  17
BRANCH   9  24
ATOM     24  S   UNL     1       0.038  11.890  19.267  0.00  0.00    +0.000 S 
BRANCH  24  25
ATOM     25  C   UNL     1       0.121  10.513  20.394  0.00  0.00    +0.000 A 
ATOM     26  C   UNL     1       0.939   9.435  20.026  0.00  0.00    +0.000 A 
ATOM     27  C   UNL     1       1.226   8.410  20.929  0.00  0.00    +0.000 A 
ATOM     28  C   UNL     1       0.691   8.450  22.215  0.00  0.00    +0.000 A 
ATOM     29  C   UNL     1      -0.124   9.520  22.592  0.00  0.00    +0.000 A 
ATOM     30  C   UNL     1      -0.409  10.551  21.687  0.00  0.00    +0.000 A 
ENDBRANCH  24  25
ENDBRANCH   9  24
TORSDOF 6
ENDMDL
MODEL 8
REMARK VINA RESULT:      -6.3      5.150      8.690
REMARK  Name = 
REMARK  6 active torsions:
REMARK  status: ('A' for Active; 'I' for Inactive)
REMARK    1  A    between atoms: C_5  and  S_6
REMARK    2  A    between atoms: S_6  and  C_7
REMARK    3  A    between atoms: C_15  and  S_16
REMARK    4  A    between atoms: S_16  and  C_17
REMARK    5  A    between atoms: C_23  and  S_24
REMARK    6  A    between atoms: S_24  and  C_25
REMARK                            x       y       z     vdW  Elec       q    Type
REMARK                         _______ _______ _______ _____ _____    ______ ____
ROOT
ATOM      1  O   UNL     1       1.247   7.879  22.065  0.00  0.00    +0.000 OA
ATOM      2  C   UNL     1       1.393   8.006  20.852  0.00  0.00    +0.000 C 
ATOM      3  C   UNL     1       0.952   9.252  20.169  0.00  0.00    +0.000 C 
ATOM      4 CL   UNL     1      -0.107  10.274  21.088  0.00  0.00    +0.000 Cl
ATOM      5  C   UNL     1       1.390   9.555  18.942  0.00  0.00    +0.000 C 
ATOM      6  C   UNL     1       2.260   8.584  18.220  0.00  0.00    +0.000 C 
ATOM      7  O   UNL     1       2.975   8.957  17.293  0.00  0.00    +0.000 OA
ATOM      8  C   UNL     1       2.303   7.163  18.712  0.00  0.00    +0.000 C 
ATOM      9  C   UNL     1       1.993   6.924  20.003  0.00  0.00    +0.000 C 
ENDROOT
BRANCH   5  10
ATOM     10  S   UNL     1       0.996  11.025  18.087  0.00  0.00    +0.000 S 
BRANCH  10  11
ATOM     11  C   UNL     1      -0.784  10.872  17.976  0.00  0.00    +0.000 A 
ATOM     12  C   UNL     1      -1.380   9.748  17.393  0.00  0.00    +0.000 A 
ATOM     13  C   UNL     1      -2.771   9.619  17.349  0.00  0.00    +0.000 A 
ATOM     14  C   UNL     1      -3.580  10.605  17.907  0.00  0.00    +0.000 A 
ATOM     15  C   UNL     1      -2.999  11.716  18.515  0.00  0.00    +0.000 A 
ATOM     16  C   UNL     1      -1.606  11.849  18.550  0.00  0.00    +0.000 A 
ENDBRANCH  10  11
ENDBRANCH   5  10
BRANCH   8  17
ATOM     17  S   UNL     1       3.082   5.997  17.664  0.00  0.00    +0.000 S 
BRANCH  17  18
ATOM     18  C   UNL     1       4.823   6.233  18.006  0.00  0.00    +0.000 A 
ATOM     19  C   UNL     1       5.457   5.498  19.016  0.00  0.00    +0.000 A 
ATOM     20  C   UNL     1       6.841   5.579  19.207  0.00  0.00    +0.000 A 
ATOM     21  C   UNL     1       7.614   6.375  18.368  0.00  0.00    +0.000 A 
ATOM     22  C   UNL     1       6.999   7.100  17.348  0.00  0.00    +0.000 A 
ATOM     23  C   UNL     1       5.611   7.035  17.169  0.00  0.00    +0.000 A 
ENDBRANCH  17  18
ENDBRANCH   8  17
BRANCH   9  24
ATOM     24  S   UNL     1       2.538   5.531  20.911  0.00  0.00    +0.000 S 
BRANCH  24  25
ATOM     25  C   UNL     1       2.122   4.119  19.907  0.00  0.00    +0.000 A 
ATOM     26  C   UNL     1       3.150   3.203  19.638  0.00  0.00    +0.000 A 
ATOM     27  C   UNL     1       2.876   1.973  19.038  0.00  0.00    +0.000 A 
ATOM     28  C   UNL     1       1.565   1.647  18.695  0.00  0.00    +0.000 A 
ATOM     29  C   UNL     1       0.535   2.551  18.959  0.00  0.00    +0.000 A 
ATOM     30  C   UNL     1       0.809   3.784  19.565  0.00  0.00    +0.000 A 
ENDBRANCH  24  25
ENDBRANCH   9  24
TORSDOF 6
ENDMDL
MODEL 9
REMARK VINA RESULT:      -6.3      2.832      7.396
REMARK  Name = 
REMARK  6 active torsions:
REMARK  status: ('A' for Active; 'I' for Inactive)
REMARK    1  A    between atoms: C_5  and  S_6
REMARK    2  A    between atoms: S_6  and  C_7
REMARK    3  A    between atoms: C_15  and  S_16
REMARK    4  A    between atoms: S_16  and  C_17
REMARK    5  A    between atoms: C_23  and  S_24
REMARK    6  A    between atoms: S_24  and  C_25
REMARK                            x       y       z     vdW  Elec       q    Type
REMARK                         _______ _______ _______ _____ _____    ______ ____
ROOT
ATOM      1  O   UNL     1      -4.724  15.988  20.592  0.00  0.00    +0.000 OA
ATOM      2  C   UNL     1      -3.706  15.477  21.051  0.00  0.00    +0.000 C 
ATOM      3  C   UNL     1      -2.392  16.158  20.903  0.00  0.00    +0.000 C 
ATOM      4 CL   UNL     1      -2.341  17.439  19.734  0.00  0.00    +0.000 Cl
ATOM      5  C   UNL     1      -1.347  15.807  21.661  0.00  0.00    +0.000 C 
ATOM      6  C   UNL     1      -1.484  14.659  22.601  0.00  0.00    +0.000 C 
ATOM      7  O   UNL     1      -0.719  14.542  23.556  0.00  0.00    +0.000 OA
ATOM      8  C   UNL     1      -2.629  13.705  22.400  0.00  0.00    +0.000 C 
ATOM      9  C   UNL     1      -3.726  14.151  21.753  0.00  0.00    +0.000 C 
ENDROOT
BRANCH   5  10
ATOM     10  S   UNL     1       0.212  16.593  21.620  0.00  0.00    +0.000 S 
BRANCH  10  11
ATOM     11  C   UNL     1       1.161  15.389  20.698  0.00  0.00    +0.000 A 
ATOM     12  C   UNL     1       1.061  15.300  19.305  0.00  0.00    +0.000 A 
ATOM     13  C   UNL     1       1.839  14.384  18.590  0.00  0.00    +0.000 A 
ATOM     14  C   UNL     1       2.739  13.561  19.262  0.00  0.00    +0.000 A 
ATOM     15  C   UNL     1       2.868  13.658  20.646  0.00  0.00    +0.000 A 
ATOM     16  C   UNL     1       2.082  14.569  21.362  0.00  0.00    +0.000 A 
ENDBRANCH  10  11
ENDBRANCH   5  10
BRANCH   8  17
ATOM     17  S   UNL     1      -2.576  12.216  23.319  0.00  0.00    +0.000 S 
BRANCH  17  18
ATOM     18  C   UNL     1      -1.215  11.321  22.577  0.00  0.00    +0.000 A 
ATOM     19  C   UNL     1      -0.751  10.129  23.147  0.00  0.00    +0.000 A 
ATOM     20  C   UNL     1       0.223   9.354  22.508  0.00  0.00    +0.000 A 
ATOM     21  C   UNL     1       0.726   9.749  21.272  0.00  0.00    +0.000 A 
ATOM     22  C   UNL     1       0.263  10.926  20.685  0.00  0.00    +0.000 A 
ATOM     23  C   UNL     1      -0.699  11.712  21.334  0.00  0.00    +0.000 A 
ENDBRANCH  17  18
ENDBRANCH   8  17
BRANCH   9  24
ATOM     24  S   UNL     1      -5.327  13.468  21.932  0.00  0.00    +0.000 S 
BRANCH  24  25
ATOM     25  C   UNL     1      -5.523  12.353  20.557  0.00  0.00    +0.000 A 
ATOM     26  C   UNL     1      -6.757  11.698  20.438  0.00  0.00    +0.000 A 
ATOM     27  C   UNL     1      -7.075  10.969  19.290  0.00  0.00    +0.000 A 
ATOM     28  C   UNL     1      -6.155  10.885  18.246  0.00  0.00    +0.000 A 
ATOM     29  C   UNL     1      -4.924  11.534  18.355  0.00  0.00    +0.000 A 
ATOM     30  C   UNL     1      -4.606  12.269  19.505  0.00  0.00    +0.000 A 
ENDBRANCH  24  25
ENDBRANCH   9  24
TORSDOF 6
ENDMDL
