MODEL 1
REMARK VINA RESULT:      -6.4      0.000      0.000
REMARK  Name = 
REMARK  18 active torsions:
REMARK  status: ('A' for Active; 'I' for Inactive)
REMARK    1  A    between atoms: C_1  and  C_2
REMARK    2  A    between atoms: C_2  and  O_4
REMARK    3  A    between atoms: O_4  and  C_5
REMARK    4  A    between atoms: C_6  and  C_7
REMARK    5  A    between atoms: N_9  and  CA_10
REMARK    6  A    between atoms: CA_10  and  C_11
REMARK    7  A    between atoms: CA_10  and  CB_13
REMARK    8  A    between atoms: C_11  and  O_12
REMARK    9  A    between atoms: CB_13  and  CG_14
REMARK   10  A    between atoms: C_21  and  O_22
REMARK   11  A    between atoms: O_22  and  C_23
REMARK   12  A    between atoms: C_23  and  C_24
REMARK   13  A    between atoms: C_26  and  O_27
REMARK   14  A    between atoms: O_27  and  C_28
REMARK   15  A    between atoms: C_28  and  C_29
REMARK   16  A    between atoms: C_31  and  O_32
REMARK   17  A    between atoms: O_32  and  C_33
REMARK   18  A    between atoms: C_33  and  C_34
REMARK                            x       y       z     vdW  Elec       q    Type
REMARK                         _______ _______ _______ _____ _____    ______ ____
ROOT
ATOM      1  C   UNK A   0       0.756  12.254  19.833  0.00  0.00    +0.000 C 
ATOM      2  C   UNK A   0      -0.459  12.711  18.949  0.00  0.00    +0.000 C 
ATOM      3  O   UNK A   0      -1.058  13.844  19.593  0.00  0.00    +0.000 OA
ATOM      4  C   UNK A   0      -1.467  13.672  20.962  0.00  0.00    +0.000 C 
ATOM      5  C   UNK A   0      -0.348  13.198  21.931  0.00  0.00    +0.000 C 
ATOM      6  C   UNK A   0       0.372  11.980  21.307  0.00  0.00    +0.000 C 
ENDROOT
BRANCH   2   7
ATOM      7  C   UNK A   0      -1.496  11.591  18.337  0.00  0.00    +0.000 C 
ATOM      8  O   UNK A   0      -1.218  10.397  18.323  0.00  0.00    +0.000 OA
ATOM      9  N   PHE A   1      -2.743  12.062  17.866  0.00  0.00    +0.000 N 
ATOM     10  H   PHE A   1      -2.869  13.064  17.776  0.00  0.00    +0.000 HD
BRANCH   9  11
ATOM     11  CA  PHE A   1      -3.923  11.220  17.348  0.00  0.00    +0.000 C 
BRANCH  11  12
ATOM     12  C   PHE A   1      -3.785  10.826  15.849  0.00  0.00    +0.000 C 
BRANCH  12  13
ATOM     13  O   PHE A   1      -2.413  10.726  15.458  0.00  0.00    +0.000 OA
ATOM     14  H   PHE A   1      -1.933  10.341  16.217  0.00  0.00    +0.000 HD
ENDBRANCH  12  13
ENDBRANCH  11  12
BRANCH  11  15
ATOM     15  CB  PHE A   1      -5.288  11.977  17.530  0.00  0.00    +0.000 C 
BRANCH  15  16
ATOM     16  CG  PHE A   1      -6.210  11.641  18.707  0.00  0.00    +0.000 A 
ATOM     17  CD1 PHE A   1      -6.661  10.332  18.944  0.00  0.00    +0.000 A 
ATOM     18  CE1 PHE A   1      -7.362   9.997  20.119  0.00  0.00    +0.000 A 
ATOM     19  CZ  PHE A   1      -7.618  10.969  21.088  0.00  0.00    +0.000 A 
ATOM     20  CE2 PHE A   1      -7.218  12.282  20.860  0.00  0.00    +0.000 A 
ATOM     21  CD2 PHE A   1      -6.528  12.617  19.683  0.00  0.00    +0.000 A 
ENDBRANCH  15  16
ENDBRANCH  11  15
ENDBRANCH   9  11
ENDBRANCH   2   7
BRANCH   1  22
ATOM     22  O   UNK A   0       1.760  13.336  19.901  0.00  0.00    +0.000 OA
BRANCH  22  24
ATOM     23  C   UNK A   0       3.031  14.960  18.716  0.00  0.00    +0.000 C 
ATOM     24  C   UNK A   0       2.579  13.531  18.848  0.00  0.00    +0.000 C 
ATOM     25  O   UNK A   0       2.900  12.643  18.062  0.00  0.00    +0.000 OA
ENDBRANCH  22  24
ENDBRANCH   1  22
BRANCH   4  26
ATOM     26  O   UNK A   0      -2.532  12.716  21.070  0.00  0.00    +0.000 OA
BRANCH  26  27
ATOM     27  C   UNK A   0      -3.331  12.833  22.162  0.00  0.00    +0.000 C 
ATOM     28  C   UNK A   0      -4.064  14.133  22.119  0.00  0.00    +0.000 C 
ATOM     29  O   UNK A   0      -3.421  12.021  23.070  0.00  0.00    +0.000 OA
ENDBRANCH  26  27
ENDBRANCH   4  26
BRANCH   5  30
ATOM     30  O   UNK A   0       0.616  14.225  22.306  0.00  0.00    +0.000 OA
BRANCH  30  31
ATOM     31  C   UNK A   0       0.081  15.332  22.902  0.00  0.00    +0.000 C 
ATOM     32  C   UNK A   0       0.312  16.587  22.103  0.00  0.00    +0.000 C 
ATOM     33  O   UNK A   0      -0.522  15.318  23.968  0.00  0.00    +0.000 OA
ENDBRANCH  30  31
ENDBRANCH   5  30
BRANCH   6  34
ATOM     34  O   UNK A   0      -0.478  10.815  21.312  0.00  0.00    +0.000 OA
BRANCH  34  35
ATOM     35  C   UNK A   0      -0.287   9.876  22.275  0.00  0.00    +0.000 C 
ATOM     36  C   UNK A   0      -0.335   8.510  21.661  0.00  0.00    +0.000 C 
ATOM     37  O   UNK A   0      -0.133  10.116  23.466  0.00  0.00    +0.000 OA
ENDBRANCH  34  35
ENDBRANCH   6  34
TORSDOF 14
ENDMDL
MODEL 2
REMARK VINA RESULT:      -6.0      3.277      6.909
REMARK  Name = 
REMARK  18 active torsions:
REMARK  status: ('A' for Active; 'I' for Inactive)
REMARK    1  A    between atoms: C_1  and  C_2
REMARK    2  A    between atoms: C_2  and  O_4
REMARK    3  A    between atoms: O_4  and  C_5
REMARK    4  A    between atoms: C_6  and  C_7
REMARK    5  A    between atoms: N_9  and  CA_10
REMARK    6  A    between atoms: CA_10  and  C_11
REMARK    7  A    between atoms: CA_10  and  CB_13
REMARK    8  A    between atoms: C_11  and  O_12
REMARK    9  A    between atoms: CB_13  and  CG_14
REMARK   10  A    between atoms: C_21  and  O_22
REMARK   11  A    between atoms: O_22  and  C_23
REMARK   12  A    between atoms: C_23  and  C_24
REMARK   13  A    between atoms: C_26  and  O_27
REMARK   14  A    between atoms: O_27  and  C_28
REMARK   15  A    between atoms: C_28  and  C_29
REMARK   16  A    between atoms: C_31  and  O_32
REMARK   17  A    between atoms: O_32  and  C_33
REMARK   18  A    between atoms: C_33  and  C_34
REMARK                            x       y       z     vdW  Elec       q    Type
REMARK                         _______ _______ _______ _____ _____    ______ ____
ROOT
ATOM      1  C   UNK A   0      -0.644  11.729  18.157  0.00  0.00    +0.000 C 
ATOM      2  C   UNK A   0      -0.358  10.212  18.445  0.00  0.00    +0.000 C 
ATOM      3  O   UNK A   0      -1.044   9.867  19.657  0.00  0.00    +0.000 OA
ATOM      4  C   UNK A   0      -0.752  10.665  20.818  0.00  0.00    +0.000 C 
ATOM      5  C   UNK A   0      -0.978  12.193  20.644  0.00  0.00    +0.000 C 
ATOM      6  C   UNK A   0      -0.284  12.657  19.342  0.00  0.00    +0.000 C 
ENDROOT
BRANCH   2   7
ATOM      7  C   UNK A   0       1.167   9.619  18.280  0.00  0.00    +0.000 C 
ATOM      8  O   UNK A   0       2.139  10.360  18.188  0.00  0.00    +0.000 OA
ATOM      9  N   PHE A   1       1.312   8.212  18.292  0.00  0.00    +0.000 N 
ATOM     10  H   PHE A   1       0.472   7.648  18.234  0.00  0.00    +0.000 HD
BRANCH   9  11
ATOM     11  CA  PHE A   1       2.626   7.410  18.261  0.00  0.00    +0.000 C 
BRANCH  11  12
ATOM     12  C   PHE A   1       3.671   7.982  17.259  0.00  0.00    +0.000 C 
BRANCH  12  13
ATOM     13  O   PHE A   1       4.729   7.051  17.018  0.00  0.00    +0.000 OA
ATOM     14  H   PHE A   1       4.310   6.224  16.713  0.00  0.00    +0.000 HD
ENDBRANCH  12  13
ENDBRANCH  11  12
BRANCH  11  15
ATOM     15  CB  PHE A   1       2.367   5.905  17.890  0.00  0.00    +0.000 C 
BRANCH  15  16
ATOM     16  CG  PHE A   1       2.107   4.870  18.990  0.00  0.00    +0.000 A 
ATOM     17  CD1 PHE A   1       2.560   5.058  20.306  0.00  0.00    +0.000 A 
ATOM     18  CE1 PHE A   1       2.172   4.193  21.348  0.00  0.00    +0.000 A 
ATOM     19  CZ  PHE A   1       1.312   3.124  21.093  0.00  0.00    +0.000 A 
ATOM     20  CE2 PHE A   1       0.880   2.890  19.791  0.00  0.00    +0.000 A 
ATOM     21  CD2 PHE A   1       1.276   3.747  18.750  0.00  0.00    +0.000 A 
ENDBRANCH  15  16
ENDBRANCH  11  15
ENDBRANCH   9  11
ENDBRANCH   2   7
BRANCH   1  22
ATOM     22  O   UNK A   0      -2.092  11.933  17.947  0.00  0.00    +0.000 OA
BRANCH  22  24
ATOM     23  C   UNK A   0      -3.817  10.323  17.651  0.00  0.00    +0.000 C 
ATOM     24  C   UNK A   0      -2.732  11.167  17.040  0.00  0.00    +0.000 C 
ATOM     25  O   UNK A   0      -2.443  11.140  15.847  0.00  0.00    +0.000 OA
ENDBRANCH  22  24
ENDBRANCH   1  22
BRANCH   4  26
ATOM     26  O   UNK A   0       0.611  10.500  21.234  0.00  0.00    +0.000 OA
BRANCH  26  27
ATOM     27  C   UNK A   0       0.828   9.610  22.236  0.00  0.00    +0.000 C 
ATOM     28  C   UNK A   0       1.363   8.334  21.677  0.00  0.00    +0.000 C 
ATOM     29  O   UNK A   0       0.590   9.797  23.420  0.00  0.00    +0.000 OA
ENDBRANCH  26  27
ENDBRANCH   4  26
BRANCH   5  30
ATOM     30  O   UNK A   0      -2.374  12.613  20.656  0.00  0.00    +0.000 OA
BRANCH  30  31
ATOM     31  C   UNK A   0      -2.906  12.822  21.897  0.00  0.00    +0.000 C 
ATOM     32  C   UNK A   0      -2.116  13.817  22.705  0.00  0.00    +0.000 C 
ATOM     33  O   UNK A   0      -3.914  12.267  22.317  0.00  0.00    +0.000 OA
ENDBRANCH  30  31
ENDBRANCH   5  30
BRANCH   6  34
ATOM     34  O   UNK A   0       1.151  12.627  19.480  0.00  0.00    +0.000 OA
BRANCH  34  35
ATOM     35  C   UNK A   0       1.867  13.698  19.049  0.00  0.00    +0.000 C 
ATOM     36  C   UNK A   0       1.429  14.925  19.789  0.00  0.00    +0.000 C 
ATOM     37  O   UNK A   0       2.716  13.664  18.168  0.00  0.00    +0.000 OA
ENDBRANCH  34  35
ENDBRANCH   6  34
TORSDOF 14
ENDMDL
MODEL 3
REMARK VINA RESULT:      -6.0      1.902      5.266
REMARK  Name = 
REMARK  18 active torsions:
REMARK  status: ('A' for Active; 'I' for Inactive)
REMARK    1  A    between atoms: C_1  and  C_2
REMARK    2  A    between atoms: C_2  and  O_4
REMARK    3  A    between atoms: O_4  and  C_5
REMARK    4  A    between atoms: C_6  and  C_7
REMARK    5  A    between atoms: N_9  and  CA_10
REMARK    6  A    between atoms: CA_10  and  C_11
REMARK    7  A    between atoms: CA_10  and  CB_13
REMARK    8  A    between atoms: C_11  and  O_12
REMARK    9  A    between atoms: CB_13  and  CG_14
REMARK   10  A    between atoms: C_21  and  O_22
REMARK   11  A    between atoms: O_22  and  C_23
REMARK   12  A    between atoms: C_23  and  C_24
REMARK   13  A    between atoms: C_26  and  O_27
REMARK   14  A    between atoms: O_27  and  C_28
REMARK   15  A    between atoms: C_28  and  C_29
REMARK   16  A    between atoms: C_31  and  O_32
REMARK   17  A    between atoms: O_32  and  C_33
REMARK   18  A    between atoms: C_33  and  C_34
REMARK                            x       y       z     vdW  Elec       q    Type
REMARK                         _______ _______ _______ _____ _____    ______ ____
ROOT
ATOM      1  C   UNK A   0      -1.803  10.766  19.105  0.00  0.00    +0.000 C 
ATOM      2  C   UNK A   0      -1.673  12.325  18.968  0.00  0.00    +0.000 C 
ATOM      3  O   UNK A   0      -0.410  12.598  18.344  0.00  0.00    +0.000 OA
ATOM      4  C   UNK A   0       0.760  12.048  18.977  0.00  0.00    +0.000 C 
ATOM      5  C   UNK A   0       0.734  10.508  19.187  0.00  0.00    +0.000 C 
ATOM      6  C   UNK A   0      -0.609  10.113  19.843  0.00  0.00    +0.000 C 
ENDROOT
BRANCH   2   7
ATOM      7  C   UNK A   0      -2.086  13.297  20.228  0.00  0.00    +0.000 C 
ATOM      8  O   UNK A   0      -1.704  14.459  20.297  0.00  0.00    +0.000 OA
ATOM      9  N   PHE A   1      -2.941  12.744  21.210  0.00  0.00    +0.000 N 
ATOM     10  H   PHE A   1      -3.117  11.747  21.178  0.00  0.00    +0.000 HD
BRANCH   9  11
ATOM     11  CA  PHE A   1      -3.557  13.465  22.423  0.00  0.00    +0.000 C 
BRANCH  11  12
ATOM     12  C   PHE A   1      -3.394  12.676  23.754  0.00  0.00    +0.000 C 
BRANCH  12  13
ATOM     13  O   PHE A   1      -4.638  12.121  24.190  0.00  0.00    +0.000 OA
ATOM     14  H   PHE A   1      -4.421  11.404  24.815  0.00  0.00    +0.000 HD
ENDBRANCH  12  13
ENDBRANCH  11  12
BRANCH  11  15
ATOM     15  CB  PHE A   1      -5.089  13.742  22.204  0.00  0.00    +0.000 C 
BRANCH  15  16
ATOM     16  CG  PHE A   1      -5.809  13.180  20.973  0.00  0.00    +0.000 A 
ATOM     17  CD1 PHE A   1      -5.804  13.853  19.741  0.00  0.00    +0.000 A 
ATOM     18  CE1 PHE A   1      -6.316  13.253  18.573  0.00  0.00    +0.000 A 
ATOM     19  CZ  PHE A   1      -6.837  11.959  18.617  0.00  0.00    +0.000 A 
ATOM     20  CE2 PHE A   1      -6.891  11.285  19.833  0.00  0.00    +0.000 A 
ATOM     21  CD2 PHE A   1      -6.390  11.888  20.999  0.00  0.00    +0.000 A 
ENDBRANCH  15  16
ENDBRANCH  11  15
ENDBRANCH   9  11
ENDBRANCH   2   7
BRANCH   1  22
ATOM     22  O   UNK A   0      -1.801  10.144  17.765  0.00  0.00    +0.000 OA
BRANCH  22  24
ATOM     23  C   UNK A   0      -2.773   9.985  15.600  0.00  0.00    +0.000 C 
ATOM     24  C   UNK A   0      -2.965  10.047  17.091  0.00  0.00    +0.000 C 
ATOM     25  O   UNK A   0      -4.067  10.039  17.633  0.00  0.00    +0.000 OA
ENDBRANCH  22  24
ENDBRANCH   1  22
BRANCH   4  26
ATOM     26  O   UNK A   0       0.974  12.631  20.270  0.00  0.00    +0.000 OA
BRANCH  26  27
ATOM     27  C   UNK A   0       2.123  13.339  20.424  0.00  0.00    +0.000 C 
ATOM     28  C   UNK A   0       2.325  14.242  19.252  0.00  0.00    +0.000 C 
ATOM     29  O   UNK A   0       2.905  13.237  21.358  0.00  0.00    +0.000 OA
ENDBRANCH  26  27
ENDBRANCH   4  26
BRANCH   5  30
ATOM     30  O   UNK A   0       0.966   9.720  17.982  0.00  0.00    +0.000 OA
BRANCH  30  31
ATOM     31  C   UNK A   0       2.016   8.849  18.052  0.00  0.00    +0.000 C 
ATOM     32  C   UNK A   0       2.038   8.070  19.341  0.00  0.00    +0.000 C 
ATOM     33  O   UNK A   0       2.854   8.707  17.170  0.00  0.00    +0.000 OA
ENDBRANCH  30  31
ENDBRANCH   5  30
BRANCH   6  34
ATOM     34  O   UNK A   0      -0.668  10.557  21.214  0.00  0.00    +0.000 OA
BRANCH  34  35
ATOM     35  C   UNK A   0      -0.195   9.732  22.184  0.00  0.00    +0.000 C 
ATOM     36  C   UNK A   0      -0.533   8.313  21.846  0.00  0.00    +0.000 C 
ATOM     37  O   UNK A   0       0.389  10.103  23.195  0.00  0.00    +0.000 OA
ENDBRANCH  34  35
ENDBRANCH   6  34
TORSDOF 14
ENDMDL
MODEL 4
REMARK VINA RESULT:      -6.0      1.974      5.150
REMARK  Name = 
REMARK  18 active torsions:
REMARK  status: ('A' for Active; 'I' for Inactive)
REMARK    1  A    between atoms: C_1  and  C_2
REMARK    2  A    between atoms: C_2  and  O_4
REMARK    3  A    between atoms: O_4  and  C_5
REMARK    4  A    between atoms: C_6  and  C_7
REMARK    5  A    between atoms: N_9  and  CA_10
REMARK    6  A    between atoms: CA_10  and  C_11
REMARK    7  A    between atoms: CA_10  and  CB_13
REMARK    8  A    between atoms: C_11  and  O_12
REMARK    9  A    between atoms: CB_13  and  CG_14
REMARK   10  A    between atoms: C_21  and  O_22
REMARK   11  A    between atoms: O_22  and  C_23
REMARK   12  A    between atoms: C_23  and  C_24
REMARK   13  A    between atoms: C_26  and  O_27
REMARK   14  A    between atoms: O_27  and  C_28
REMARK   15  A    between atoms: C_28  and  C_29
REMARK   16  A    between atoms: C_31  and  O_32
REMARK   17  A    between atoms: O_32  and  C_33
REMARK   18  A    between atoms: C_33  and  C_34
REMARK                            x       y       z     vdW  Elec       q    Type
REMARK                         _______ _______ _______ _____ _____    ______ ____
ROOT
ATOM      1  C   UNK A   0      -1.677  10.802  19.293  0.00  0.00    +0.000 C 
ATOM      2  C   UNK A   0      -1.576  12.360  19.117  0.00  0.00    +0.000 C 
ATOM      3  O   UNK A   0      -0.281  12.648  18.570  0.00  0.00    +0.000 OA
ATOM      4  C   UNK A   0       0.857  12.148  19.294  0.00  0.00    +0.000 C 
ATOM      5  C   UNK A   0       0.855  10.613  19.548  0.00  0.00    +0.000 C 
ATOM      6  C   UNK A   0      -0.519  10.203  20.126  0.00  0.00    +0.000 C 
ENDROOT
BRANCH   2   7
ATOM      7  C   UNK A   0      -2.095  13.356  20.318  0.00  0.00    +0.000 C 
ATOM      8  O   UNK A   0      -1.863  14.559  20.301  0.00  0.00    +0.000 OA
ATOM      9  N   PHE A   1      -2.861  12.768  21.351  0.00  0.00    +0.000 N 
ATOM     10  H   PHE A   1      -2.910  11.757  21.389  0.00  0.00    +0.000 HD
BRANCH   9  11
ATOM     11  CA  PHE A   1      -3.551  13.487  22.525  0.00  0.00    +0.000 C 
BRANCH  11  12
ATOM     12  C   PHE A   1      -3.678  12.600  23.799  0.00  0.00    +0.000 C 
BRANCH  12  13
ATOM     13  O   PHE A   1      -4.830  12.953  24.569  0.00  0.00    +0.000 OA
ATOM     14  H   PHE A   1      -4.606  12.779  25.503  0.00  0.00    +0.000 HD
ENDBRANCH  12  13
ENDBRANCH  11  12
BRANCH  11  15
ATOM     15  CB  PHE A   1      -4.990  13.979  22.127  0.00  0.00    +0.000 C 
BRANCH  15  16
ATOM     16  CG  PHE A   1      -5.726  13.341  20.945  0.00  0.00    +0.000 A 
ATOM     17  CD1 PHE A   1      -6.418  12.126  21.071  0.00  0.00    +0.000 A 
ATOM     18  CE1 PHE A   1      -7.234  11.633  20.034  0.00  0.00    +0.000 A 
ATOM     19  CZ  PHE A   1      -7.380  12.356  18.849  0.00  0.00    +0.000 A 
ATOM     20  CE2 PHE A   1      -6.674  13.543  18.681  0.00  0.00    +0.000 A 
ATOM     21  CD2 PHE A   1      -5.853  14.029  19.712  0.00  0.00    +0.000 A 
ENDBRANCH  15  16
ENDBRANCH  11  15
ENDBRANCH   9  11
ENDBRANCH   2   7
BRANCH   1  22
ATOM     22  O   UNK A   0      -1.571  10.143  17.975  0.00  0.00    +0.000 OA
BRANCH  22  24
ATOM     23  C   UNK A   0      -2.543   9.989  15.809  0.00  0.00    +0.000 C 
ATOM     24  C   UNK A   0      -2.701   9.853  17.299  0.00  0.00    +0.000 C 
ATOM     25  O   UNK A   0      -3.757   9.538  17.842  0.00  0.00    +0.000 OA
ENDBRANCH  22  24
ENDBRANCH   1  22
BRANCH   4  26
ATOM     26  O   UNK A   0       0.971  12.772  20.581  0.00  0.00    +0.000 OA
BRANCH  26  27
ATOM     27  C   UNK A   0       2.022  13.618  20.744  0.00  0.00    +0.000 C 
ATOM     28  C   UNK A   0       1.814  14.850  19.927  0.00  0.00    +0.000 C 
ATOM     29  O   UNK A   0       3.013  13.400  21.424  0.00  0.00    +0.000 OA
ENDBRANCH  26  27
ENDBRANCH   4  26
BRANCH   5  30
ATOM     30  O   UNK A   0       1.185   9.798  18.385  0.00  0.00    +0.000 OA
BRANCH  30  31
ATOM     31  C   UNK A   0       1.909   8.671  18.655  0.00  0.00    +0.000 C 
ATOM     32  C   UNK A   0       2.692   8.188  17.463  0.00  0.00    +0.000 C 
ATOM     33  O   UNK A   0       1.929   8.107  19.742  0.00  0.00    +0.000 OA
ENDBRANCH  30  31
ENDBRANCH   5  30
BRANCH   6  34
ATOM     34  O   UNK A   0      -0.679  10.683  21.476  0.00  0.00    +0.000 OA
BRANCH  34  35
ATOM     35  C   UNK A   0      -0.360   9.853  22.503  0.00  0.00    +0.000 C 
ATOM     36  C   UNK A   0      -0.508   8.429  22.063  0.00  0.00    +0.000 C 
ATOM     37  O   UNK A   0      -0.034  10.220  23.625  0.00  0.00    +0.000 OA
ENDBRANCH  34  35
ENDBRANCH   6  34
TORSDOF 14
ENDMDL
MODEL 5
REMARK VINA RESULT:      -5.9      1.316      1.994
REMARK  Name = 
REMARK  18 active torsions:
REMARK  status: ('A' for Active; 'I' for Inactive)
REMARK    1  A    between atoms: C_1  and  C_2
REMARK    2  A    between atoms: C_2  and  O_4
REMARK    3  A    between atoms: O_4  and  C_5
REMARK    4  A    between atoms: C_6  and  C_7
REMARK    5  A    between atoms: N_9  and  CA_10
REMARK    6  A    between atoms: CA_10  and  C_11
REMARK    7  A    between atoms: CA_10  and  CB_13
REMARK    8  A    between atoms: C_11  and  O_12
REMARK    9  A    between atoms: CB_13  and  CG_14
REMARK   10  A    between atoms: C_21  and  O_22
REMARK   11  A    between atoms: O_22  and  C_23
REMARK   12  A    between atoms: C_23  and  C_24
REMARK   13  A    between atoms: C_26  and  O_27
REMARK   14  A    between atoms: O_27  and  C_28
REMARK   15  A    between atoms: C_28  and  C_29
REMARK   16  A    between atoms: C_31  and  O_32
REMARK   17  A    between atoms: O_32  and  C_33
REMARK   18  A    between atoms: C_33  and  C_34
REMARK                            x       y       z     vdW  Elec       q    Type
REMARK                         _______ _______ _______ _____ _____    ______ ____
ROOT
ATOM      1  C   UNK A   0       0.363  12.557  20.233  0.00  0.00    +0.000 C 
ATOM      2  C   UNK A   0      -0.893  12.923  19.363  0.00  0.00    +0.000 C 
ATOM      3  O   UNK A   0      -1.567  14.008  20.016  0.00  0.00    +0.000 OA
ATOM      4  C   UNK A   0      -1.948  13.805  21.389  0.00  0.00    +0.000 C 
ATOM      5  C   UNK A   0      -0.785  13.414  22.345  0.00  0.00    +0.000 C 
ATOM      6  C   UNK A   0       0.017  12.255  21.711  0.00  0.00    +0.000 C 
ENDROOT
BRANCH   2   7
ATOM      7  C   UNK A   0      -1.850  11.730  18.761  0.00  0.00    +0.000 C 
ATOM      8  O   UNK A   0      -1.453  10.574  18.664  0.00  0.00    +0.000 OA
ATOM      9  N   PHE A   1      -3.169  12.087  18.400  0.00  0.00    +0.000 N 
ATOM     10  H   PHE A   1      -3.403  13.073  18.373  0.00  0.00    +0.000 HD
BRANCH   9  11
ATOM     11  CA  PHE A   1      -4.291  11.150  17.917  0.00  0.00    +0.000 C 
BRANCH  11  12
ATOM     12  C   PHE A   1      -4.414  11.089  16.366  0.00  0.00    +0.000 C 
BRANCH  12  13
ATOM     13  O   PHE A   1      -3.239  11.595  15.727  0.00  0.00    +0.000 OA
ATOM     14  H   PHE A   1      -3.534  12.286  15.105  0.00  0.00    +0.000 HD
ENDBRANCH  12  13
ENDBRANCH  11  12
BRANCH  11  15
ATOM     15  CB  PHE A   1      -5.686  11.579  18.500  0.00  0.00    +0.000 C 
BRANCH  15  16
ATOM     16  CG  PHE A   1      -6.209  13.003  18.286  0.00  0.00    +0.000 A 
ATOM     17  CD1 PHE A   1      -6.172  13.967  19.307  0.00  0.00    +0.000 A 
ATOM     18  CE1 PHE A   1      -6.491  15.316  19.056  0.00  0.00    +0.000 A 
ATOM     19  CZ  PHE A   1      -6.846  15.729  17.771  0.00  0.00    +0.000 A 
ATOM     20  CE2 PHE A   1      -6.930  14.788  16.750  0.00  0.00    +0.000 A 
ATOM     21  CD2 PHE A   1      -6.621  13.441  17.003  0.00  0.00    +0.000 A 
ENDBRANCH  15  16
ENDBRANCH  11  15
ENDBRANCH   9  11
ENDBRANCH   2   7
BRANCH   1  22
ATOM     22  O   UNK A   0       1.284  13.711  20.292  0.00  0.00    +0.000 OA
BRANCH  22  24
ATOM     23  C   UNK A   0       2.638  13.159  18.416  0.00  0.00    +0.000 C 
ATOM     24  C   UNK A   0       1.809  14.183  19.143  0.00  0.00    +0.000 C 
ATOM     25  O   UNK A   0       1.653  15.334  18.746  0.00  0.00    +0.000 OA
ENDBRANCH  22  24
ENDBRANCH   1  22
BRANCH   4  26
ATOM     26  O   UNK A   0      -2.936  12.772  21.507  0.00  0.00    +0.000 OA
BRANCH  26  27
ATOM     27  C   UNK A   0      -3.956  13.017  22.371  0.00  0.00    +0.000 C 
ATOM     28  C   UNK A   0      -4.260  14.478  22.398  0.00  0.00    +0.000 C 
ATOM     29  O   UNK A   0      -4.524  12.181  23.059  0.00  0.00    +0.000 OA
ENDBRANCH  26  27
ENDBRANCH   4  26
BRANCH   5  30
ATOM     30  O   UNK A   0       0.104  14.510  22.711  0.00  0.00    +0.000 OA
BRANCH  30  31
ATOM     31  C   UNK A   0      -0.428  15.424  23.577  0.00  0.00    +0.000 C 
ATOM     32  C   UNK A   0      -0.515  16.804  22.981  0.00  0.00    +0.000 C 
ATOM     33  O   UNK A   0      -0.798  15.161  24.715  0.00  0.00    +0.000 OA
ENDBRANCH  30  31
ENDBRANCH   5  30
BRANCH   6  34
ATOM     34  O   UNK A   0      -0.744  11.029  21.723  0.00  0.00    +0.000 OA
BRANCH  34  35
ATOM     35  C   UNK A   0      -0.263   9.974  22.430  0.00  0.00    +0.000 C 
ATOM     36  C   UNK A   0      -0.250   8.753  21.562  0.00  0.00    +0.000 C 
ATOM     37  O   UNK A   0       0.075  10.013  23.606  0.00  0.00    +0.000 OA
ENDBRANCH  34  35
ENDBRANCH   6  34
TORSDOF 14
ENDMDL
MODEL 6
REMARK VINA RESULT:      -5.8      3.212      6.814
REMARK  Name = 
REMARK  18 active torsions:
REMARK  status: ('A' for Active; 'I' for Inactive)
REMARK    1  A    between atoms: C_1  and  C_2
REMARK    2  A    between atoms: C_2  and  O_4
REMARK    3  A    between atoms: O_4  and  C_5
REMARK    4  A    between atoms: C_6  and  C_7
REMARK    5  A    between atoms: N_9  and  CA_10
REMARK    6  A    between atoms: CA_10  and  C_11
REMARK    7  A    between atoms: CA_10  and  CB_13
REMARK    8  A    between atoms: C_11  and  O_12
REMARK    9  A    between atoms: CB_13  and  CG_14
REMARK   10  A    between atoms: C_21  and  O_22
REMARK   11  A    between atoms: O_22  and  C_23
REMARK   12  A    between atoms: C_23  and  C_24
REMARK   13  A    between atoms: C_26  and  O_27
REMARK   14  A    between atoms: O_27  and  C_28
REMARK   15  A    between atoms: C_28  and  C_29
REMARK   16  A    between atoms: C_31  and  O_32
REMARK   17  A    between atoms: O_32  and  C_33
REMARK   18  A    between atoms: C_33  and  C_34
REMARK                            x       y       z     vdW  Elec       q    Type
REMARK                         _______ _______ _______ _____ _____    ______ ____
ROOT
ATOM      1  C   UNK A   0      -0.708  11.766  18.221  0.00  0.00    +0.000 C 
ATOM      2  C   UNK A   0      -0.439  10.260  18.576  0.00  0.00    +0.000 C 
ATOM      3  O   UNK A   0      -1.108   9.983  19.814  0.00  0.00    +0.000 OA
ATOM      4  C   UNK A   0      -0.784  10.829  20.932  0.00  0.00    +0.000 C 
ATOM      5  C   UNK A   0      -0.991  12.351  20.689  0.00  0.00    +0.000 C 
ATOM      6  C   UNK A   0      -0.314  12.743  19.355  0.00  0.00    +0.000 C 
ENDROOT
BRANCH   2   7
ATOM      7  C   UNK A   0       1.073   9.636  18.412  0.00  0.00    +0.000 C 
ATOM      8  O   UNK A   0       1.966  10.253  17.842  0.00  0.00    +0.000 OA
ATOM      9  N   PHE A   1       1.312   8.372  18.999  0.00  0.00    +0.000 N 
ATOM     10  H   PHE A   1       0.513   7.848  19.338  0.00  0.00    +0.000 HD
BRANCH   9  11
ATOM     11  CA  PHE A   1       2.653   7.620  19.082  0.00  0.00    +0.000 C 
BRANCH  11  12
ATOM     12  C   PHE A   1       3.125   7.054  17.710  0.00  0.00    +0.000 C 
BRANCH  12  13
ATOM     13  O   PHE A   1       3.532   8.099  16.824  0.00  0.00    +0.000 OA
ATOM     14  H   PHE A   1       4.458   7.912  16.577  0.00  0.00    +0.000 HD
ENDBRANCH  12  13
ENDBRANCH  11  12
BRANCH  11  15
ATOM     15  CB  PHE A   1       2.576   6.427  20.102  0.00  0.00    +0.000 C 
BRANCH  15  16
ATOM     16  CG  PHE A   1       1.901   5.110  19.704  0.00  0.00    +0.000 A 
ATOM     17  CD1 PHE A   1       1.911   4.643  18.379  0.00  0.00    +0.000 A 
ATOM     18  CE1 PHE A   1       1.443   3.356  18.049  0.00  0.00    +0.000 A 
ATOM     19  CZ  PHE A   1       0.963   2.505  19.046  0.00  0.00    +0.000 A 
ATOM     20  CE2 PHE A   1       0.903   2.956  20.360  0.00  0.00    +0.000 A 
ATOM     21  CD2 PHE A   1       1.361   4.244  20.687  0.00  0.00    +0.000 A 
ENDBRANCH  15  16
ENDBRANCH  11  15
ENDBRANCH   9  11
ENDBRANCH   2   7
BRANCH   1  22
ATOM     22  O   UNK A   0      -2.157  11.983  18.027  0.00  0.00    +0.000 OA
BRANCH  22  24
ATOM     23  C   UNK A   0      -3.954  10.455  17.721  0.00  0.00    +0.000 C 
ATOM     24  C   UNK A   0      -2.811  11.228  17.121  0.00  0.00    +0.000 C 
ATOM     25  O   UNK A   0      -2.493  11.157  15.937  0.00  0.00    +0.000 OA
ENDBRANCH  22  24
ENDBRANCH   1  22
BRANCH   4  26
ATOM     26  O   UNK A   0       0.584  10.663  21.330  0.00  0.00    +0.000 OA
BRANCH  26  27
ATOM     27  C   UNK A   0       0.807   9.807  22.361  0.00  0.00    +0.000 C 
ATOM     28  C   UNK A   0      -0.421   9.693  23.202  0.00  0.00    +0.000 C 
ATOM     29  O   UNK A   0       1.861   9.236  22.599  0.00  0.00    +0.000 OA
ENDBRANCH  26  27
ENDBRANCH   4  26
BRANCH   5  30
ATOM     30  O   UNK A   0      -2.380  12.793  20.705  0.00  0.00    +0.000 OA
BRANCH  30  31
ATOM     31  C   UNK A   0      -2.974  12.794  21.936  0.00  0.00    +0.000 C 
ATOM     32  C   UNK A   0      -2.142  13.492  22.979  0.00  0.00    +0.000 C 
ATOM     33  O   UNK A   0      -4.063  12.287  22.177  0.00  0.00    +0.000 OA
ENDBRANCH  30  31
ENDBRANCH   5  30
BRANCH   6  34
ATOM     34  O   UNK A   0       1.123  12.697  19.469  0.00  0.00    +0.000 OA
BRANCH  34  35
ATOM     35  C   UNK A   0       1.856  13.636  18.818  0.00  0.00    +0.000 C 
ATOM     36  C   UNK A   0       1.184  14.970  18.937  0.00  0.00    +0.000 C 
ATOM     37  O   UNK A   0       2.890  13.414  18.201  0.00  0.00    +0.000 OA
ENDBRANCH  34  35
ENDBRANCH   6  34
TORSDOF 14
ENDMDL
MODEL 7
REMARK VINA RESULT:      -5.8      3.358      6.278
REMARK  Name = 
REMARK  18 active torsions:
REMARK  status: ('A' for Active; 'I' for Inactive)
REMARK    1  A    between atoms: C_1  and  C_2
REMARK    2  A    between atoms: C_2  and  O_4
REMARK    3  A    between atoms: O_4  and  C_5
REMARK    4  A    between atoms: C_6  and  C_7
REMARK    5  A    between atoms: N_9  and  CA_10
REMARK    6  A    between atoms: CA_10  and  C_11
REMARK    7  A    between atoms: CA_10  and  CB_13
REMARK    8  A    between atoms: C_11  and  O_12
REMARK    9  A    between atoms: CB_13  and  CG_14
REMARK   10  A    between atoms: C_21  and  O_22
REMARK   11  A    between atoms: O_22  and  C_23
REMARK   12  A    between atoms: C_23  and  C_24
REMARK   13  A    between atoms: C_26  and  O_27
REMARK   14  A    between atoms: O_27  and  C_28
REMARK   15  A    between atoms: C_28  and  C_29
REMARK   16  A    between atoms: C_31  and  O_32
REMARK   17  A    between atoms: O_32  and  C_33
REMARK   18  A    between atoms: C_33  and  C_34
REMARK                            x       y       z     vdW  Elec       q    Type
REMARK                         _______ _______ _______ _____ _____    ______ ____
ROOT
ATOM      1  C   UNK A   0       0.959  12.589  20.270  0.00  0.00    +0.000 C 
ATOM      2  C   UNK A   0       0.660  12.005  18.843  0.00  0.00    +0.000 C 
ATOM      3  O   UNK A   0      -0.402  12.783  18.274  0.00  0.00    +0.000 OA
ATOM      4  C   UNK A   0      -1.615  12.885  19.041  0.00  0.00    +0.000 C 
ATOM      5  C   UNK A   0      -1.439  13.433  20.486  0.00  0.00    +0.000 C 
ATOM      6  C   UNK A   0      -0.292  12.661  21.178  0.00  0.00    +0.000 C 
ENDROOT
BRANCH   2   7
ATOM      7  C   UNK A   0       0.567  10.378  18.625  0.00  0.00    +0.000 C 
ATOM      8  O   UNK A   0      -0.090   9.888  17.714  0.00  0.00    +0.000 OA
ATOM      9  N   PHE A   1       1.315   9.569  19.512  0.00  0.00    +0.000 N 
ATOM     10  H   PHE A   1       1.729  10.012  20.324  0.00  0.00    +0.000 HD
BRANCH   9  11
ATOM     11  CA  PHE A   1       1.484   8.040  19.461  0.00  0.00    +0.000 C 
BRANCH  11  12
ATOM     12  C   PHE A   1       1.803   7.411  20.849  0.00  0.00    +0.000 C 
BRANCH  12  13
ATOM     13  O   PHE A   1       1.712   8.381  21.896  0.00  0.00    +0.000 OA
ATOM     14  H   PHE A   1       1.710   9.257  21.467  0.00  0.00    +0.000 HD
ENDBRANCH  12  13
ENDBRANCH  11  12
BRANCH  11  15
ATOM     15  CB  PHE A   1       2.626   7.625  18.463  0.00  0.00    +0.000 C 
BRANCH  15  16
ATOM     16  CG  PHE A   1       2.864   6.148  18.130  0.00  0.00    +0.000 A 
ATOM     17  CD1 PHE A   1       1.810   5.222  18.076  0.00  0.00    +0.000 A 
ATOM     18  CE1 PHE A   1       2.007   3.910  17.602  0.00  0.00    +0.000 A 
ATOM     19  CZ  PHE A   1       3.268   3.502  17.164  0.00  0.00    +0.000 A 
ATOM     20  CE2 PHE A   1       4.339   4.386  17.245  0.00  0.00    +0.000 A 
ATOM     21  CD2 PHE A   1       4.144   5.691  17.727  0.00  0.00    +0.000 A 
ENDBRANCH  15  16
ENDBRANCH  11  15
ENDBRANCH   9  11
ENDBRANCH   2   7
BRANCH   1  22
ATOM     22  O   UNK A   0       1.418  13.989  20.152  0.00  0.00    +0.000 OA
BRANCH  22  24
ATOM     23  C   UNK A   0       2.174  15.306  21.982  0.00  0.00    +0.000 C 
ATOM     24  C   UNK A   0       2.507  14.378  20.846  0.00  0.00    +0.000 C 
ATOM     25  O   UNK A   0       3.651  14.034  20.565  0.00  0.00    +0.000 OA
ENDBRANCH  22  24
ENDBRANCH   1  22
BRANCH   4  26
ATOM     26  O   UNK A   0      -2.262  11.611  19.166  0.00  0.00    +0.000 OA
BRANCH  26  27
ATOM     27  C   UNK A   0      -3.315  11.390  18.337  0.00  0.00    +0.000 C 
ATOM     28  C   UNK A   0      -4.564  11.937  18.945  0.00  0.00    +0.000 C 
ATOM     29  O   UNK A   0      -3.269  10.801  17.267  0.00  0.00    +0.000 OA
ENDBRANCH  26  27
ENDBRANCH   4  26
BRANCH   5  30
ATOM     30  O   UNK A   0      -1.214  14.871  20.574  0.00  0.00    +0.000 OA
BRANCH  30  31
ATOM     31  C   UNK A   0      -2.335  15.622  20.790  0.00  0.00    +0.000 C 
ATOM     32  C   UNK A   0      -3.362  14.901  21.622  0.00  0.00    +0.000 C 
ATOM     33  O   UNK A   0      -2.498  16.757  20.360  0.00  0.00    +0.000 OA
ENDBRANCH  30  31
ENDBRANCH   5  30
BRANCH   6  34
ATOM     34  O   UNK A   0      -0.681  11.303  21.467  0.00  0.00    +0.000 OA
BRANCH  34  35
ATOM     35  C   UNK A   0      -0.830  10.933  22.766  0.00  0.00    +0.000 C 
ATOM     36  C   UNK A   0      -2.073  11.555  23.326  0.00  0.00    +0.000 C 
ATOM     37  O   UNK A   0      -0.047  10.226  23.387  0.00  0.00    +0.000 OA
ENDBRANCH  34  35
ENDBRANCH   6  34
TORSDOF 14
ENDMDL
MODEL 8
REMARK VINA RESULT:      -5.8      3.379      6.308
REMARK  Name = 
REMARK  18 active torsions:
REMARK  status: ('A' for Active; 'I' for Inactive)
REMARK    1  A    between atoms: C_1  and  C_2
REMARK    2  A    between atoms: C_2  and  O_4
REMARK    3  A    between atoms: O_4  and  C_5
REMARK    4  A    between atoms: C_6  and  C_7
REMARK    5  A    between atoms: N_9  and  CA_10
REMARK    6  A    between atoms: CA_10  and  C_11
REMARK    7  A    between atoms: CA_10  and  CB_13
REMARK    8  A    between atoms: C_11  and  O_12
REMARK    9  A    between atoms: CB_13  and  CG_14
REMARK   10  A    between atoms: C_21  and  O_22
REMARK   11  A    between atoms: O_22  and  C_23
REMARK   12  A    between atoms: C_23  and  C_24
REMARK   13  A    between atoms: C_26  and  O_27
REMARK   14  A    between atoms: O_27  and  C_28
REMARK   15  A    between atoms: C_28  and  C_29
REMARK   16  A    between atoms: C_31  and  O_32
REMARK   17  A    between atoms: O_32  and  C_33
REMARK   18  A    between atoms: C_33  and  C_34
REMARK                            x       y       z     vdW  Elec       q    Type
REMARK                         _______ _______ _______ _____ _____    ______ ____
ROOT
ATOM      1  C   UNK A   0       1.092  11.492  20.353  0.00  0.00    +0.000 C 
ATOM      2  C   UNK A   0       1.131  11.178  18.814  0.00  0.00    +0.000 C 
ATOM      3  O   UNK A   0       0.001  11.826  18.213  0.00  0.00    +0.000 OA
ATOM      4  C   UNK A   0      -1.293  11.512  18.759  0.00  0.00    +0.000 C 
ATOM      5  C   UNK A   0      -1.444  11.763  20.286  0.00  0.00    +0.000 C 
ATOM      6  C   UNK A   0      -0.251  11.112  21.022  0.00  0.00    +0.000 C 
ENDROOT
BRANCH   2   7
ATOM      7  C   UNK A   0       1.453   9.651  18.296  0.00  0.00    +0.000 C 
ATOM      8  O   UNK A   0       1.045   9.238  17.217  0.00  0.00    +0.000 OA
ATOM      9  N   PHE A   1       2.261   8.848  19.134  0.00  0.00    +0.000 N 
ATOM     10  H   PHE A   1       2.458   9.186  20.069  0.00  0.00    +0.000 HD
BRANCH   9  11
ATOM     11  CA  PHE A   1       2.793   7.433  18.838  0.00  0.00    +0.000 C 
BRANCH  11  12
ATOM     12  C   PHE A   1       3.626   7.353  17.525  0.00  0.00    +0.000 C 
BRANCH  12  13
ATOM     13  O   PHE A   1       4.840   6.624  17.720  0.00  0.00    +0.000 OA
ATOM     14  H   PHE A   1       5.123   6.790  18.639  0.00  0.00    +0.000 HD
ENDBRANCH  12  13
ENDBRANCH  11  12
BRANCH  11  15
ATOM     15  CB  PHE A   1       1.620   6.392  18.737  0.00  0.00    +0.000 C 
BRANCH  15  16
ATOM     16  CG  PHE A   1       1.737   5.026  19.423  0.00  0.00    +0.000 A 
ATOM     17  CD1 PHE A   1       2.115   4.903  20.769  0.00  0.00    +0.000 A 
ATOM     18  CE1 PHE A   1       2.053   3.666  21.441  0.00  0.00    +0.000 A 
ATOM     19  CZ  PHE A   1       1.601   2.526  20.775  0.00  0.00    +0.000 A 
ATOM     20  CE2 PHE A   1       1.259   2.610  19.429  0.00  0.00    +0.000 A 
ATOM     21  CD2 PHE A   1       1.330   3.842  18.758  0.00  0.00    +0.000 A 
ENDBRANCH  15  16
ENDBRANCH  11  15
ENDBRANCH   9  11
ENDBRANCH   2   7
BRANCH   1  22
ATOM     22  O   UNK A   0       1.220  12.948  20.569  0.00  0.00    +0.000 OA
BRANCH  22  24
ATOM     23  C   UNK A   0       2.832  14.193  19.341  0.00  0.00    +0.000 C 
ATOM     24  C   UNK A   0       2.452  13.493  20.618  0.00  0.00    +0.000 C 
ATOM     25  O   UNK A   0       3.198  13.404  21.589  0.00  0.00    +0.000 OA
ENDBRANCH  22  24
ENDBRANCH   1  22
BRANCH   4  26
ATOM     26  O   UNK A   0      -1.632  10.136  18.538  0.00  0.00    +0.000 OA
BRANCH  26  27
ATOM     27  C   UNK A   0      -2.460   9.885  17.491  0.00  0.00    +0.000 C 
ATOM     28  C   UNK A   0      -3.877  10.128  17.893  0.00  0.00    +0.000 C 
ATOM     29  O   UNK A   0      -2.116   9.483  16.389  0.00  0.00    +0.000 OA
ENDBRANCH  26  27
ENDBRANCH   4  26
BRANCH   5  30
ATOM     30  O   UNK A   0      -1.577  13.164  20.669  0.00  0.00    +0.000 OA
BRANCH  30  31
ATOM     31  C   UNK A   0      -2.200  13.382  21.865  0.00  0.00    +0.000 C 
ATOM     32  C   UNK A   0      -1.539  14.467  22.673  0.00  0.00    +0.000 C 
ATOM     33  O   UNK A   0      -3.189  12.769  22.249  0.00  0.00    +0.000 OA
ENDBRANCH  30  31
ENDBRANCH   5  30
BRANCH   6  34
ATOM     34  O   UNK A   0      -0.344   9.673  20.991  0.00  0.00    +0.000 OA
BRANCH  34  35
ATOM     35  C   UNK A   0       0.274   8.961  21.968  0.00  0.00    +0.000 C 
ATOM     36  C   UNK A   0      -0.176   9.454  23.310  0.00  0.00    +0.000 C 
ATOM     37  O   UNK A   0       1.097   8.075  21.776  0.00  0.00    +0.000 OA
ENDBRANCH  34  35
ENDBRANCH   6  34
TORSDOF 14
ENDMDL
MODEL 9
REMARK VINA RESULT:      -5.8      2.166      5.589
REMARK  Name = 
REMARK  18 active torsions:
REMARK  status: ('A' for Active; 'I' for Inactive)
REMARK    1  A    between atoms: C_1  and  C_2
REMARK    2  A    between atoms: C_2  and  O_4
REMARK    3  A    between atoms: O_4  and  C_5
REMARK    4  A    between atoms: C_6  and  C_7
REMARK    5  A    between atoms: N_9  and  CA_10
REMARK    6  A    between atoms: CA_10  and  C_11
REMARK    7  A    between atoms: CA_10  and  CB_13
REMARK    8  A    between atoms: C_11  and  O_12
REMARK    9  A    between atoms: CB_13  and  CG_14
REMARK   10  A    between atoms: C_21  and  O_22
REMARK   11  A    between atoms: O_22  and  C_23
REMARK   12  A    between atoms: C_23  and  C_24
REMARK   13  A    between atoms: C_26  and  O_27
REMARK   14  A    between atoms: O_27  and  C_28
REMARK   15  A    between atoms: C_28  and  C_29
REMARK   16  A    between atoms: C_31  and  O_32
REMARK   17  A    between atoms: O_32  and  C_33
REMARK   18  A    between atoms: C_33  and  C_34
REMARK                            x       y       z     vdW  Elec       q    Type
REMARK                         _______ _______ _______ _____ _____    ______ ____
ROOT
ATOM      1  C   UNK A   0      -1.354  10.617  19.066  0.00  0.00    +0.000 C 
ATOM      2  C   UNK A   0      -1.121  12.155  18.846  0.00  0.00    +0.000 C 
ATOM      3  O   UNK A   0       0.112  12.306  18.130  0.00  0.00    +0.000 OA
ATOM      4  C   UNK A   0       1.280  11.697  18.710  0.00  0.00    +0.000 C 
ATOM      5  C   UNK A   0       1.158  10.173  18.993  0.00  0.00    +0.000 C 
ATOM      6  C   UNK A   0      -0.163   9.909  19.753  0.00  0.00    +0.000 C 
ENDROOT
BRANCH   2   7
ATOM      7  C   UNK A   0      -1.376  13.208  20.084  0.00  0.00    +0.000 C 
ATOM      8  O   UNK A   0      -1.074  14.392  19.993  0.00  0.00    +0.000 OA
ATOM      9  N   PHE A   1      -2.002  12.694  21.243  0.00  0.00    +0.000 N 
ATOM     10  H   PHE A   1      -2.108  11.689  21.319  0.00  0.00    +0.000 HD
BRANCH   9  11
ATOM     11  CA  PHE A   1      -2.446  13.481  22.490  0.00  0.00    +0.000 C 
BRANCH  11  12
ATOM     12  C   PHE A   1      -1.263  13.867  23.426  0.00  0.00    +0.000 C 
BRANCH  12  13
ATOM     13  O   PHE A   1      -0.569  15.021  22.944  0.00  0.00    +0.000 OA
ATOM     14  H   PHE A   1      -0.279  14.814  22.036  0.00  0.00    +0.000 HD
ENDBRANCH  12  13
ENDBRANCH  11  12
BRANCH  11  15
ATOM     15  CB  PHE A   1      -3.493  12.669  23.335  0.00  0.00    +0.000 C 
BRANCH  15  16
ATOM     16  CG  PHE A   1      -4.994  12.840  23.080  0.00  0.00    +0.000 A 
ATOM     17  CD1 PHE A   1      -5.520  12.923  21.781  0.00  0.00    +0.000 A 
ATOM     18  CE1 PHE A   1      -6.909  12.906  21.547  0.00  0.00    +0.000 A 
ATOM     19  CZ  PHE A   1      -7.801  12.797  22.615  0.00  0.00    +0.000 A 
ATOM     20  CE2 PHE A   1      -7.309  12.755  23.915  0.00  0.00    +0.000 A 
ATOM     21  CD2 PHE A   1      -5.924  12.782  24.148  0.00  0.00    +0.000 A 
ENDBRANCH  15  16
ENDBRANCH  11  15
ENDBRANCH   9  11
ENDBRANCH   2   7
BRANCH   1  22
ATOM     22  O   UNK A   0      -1.489   9.941  17.759  0.00  0.00    +0.000 OA
BRANCH  22  24
ATOM     23  C   UNK A   0      -2.674  10.243  15.719  0.00  0.00    +0.000 C 
ATOM     24  C   UNK A   0      -2.705   9.882  17.179  0.00  0.00    +0.000 C 
ATOM     25  O   UNK A   0      -3.734   9.592  17.783  0.00  0.00    +0.000 OA
ENDBRANCH  22  24
ENDBRANCH   1  22
BRANCH   4  26
ATOM     26  O   UNK A   0       1.624  12.316  19.957  0.00  0.00    +0.000 OA
BRANCH  26  27
ATOM     27  C   UNK A   0       2.444  13.397  19.883  0.00  0.00    +0.000 C 
ATOM     28  C   UNK A   0       2.379  14.173  21.156  0.00  0.00    +0.000 C 
ATOM     29  O   UNK A   0       3.112  13.719  18.912  0.00  0.00    +0.000 OA
ENDBRANCH  26  27
ENDBRANCH   4  26
BRANCH   5  30
ATOM     30  O   UNK A   0       1.248   9.319  17.815  0.00  0.00    +0.000 OA
BRANCH  30  31
ATOM     31  C   UNK A   0       2.343   8.503  17.774  0.00  0.00    +0.000 C 
ATOM     32  C   UNK A   0       2.141   7.224  18.543  0.00  0.00    +0.000 C 
ATOM     33  O   UNK A   0       3.380   8.769  17.179  0.00  0.00    +0.000 OA
ENDBRANCH  30  31
ENDBRANCH   5  30
BRANCH   6  34
ATOM     34  O   UNK A   0      -0.095  10.413  21.103  0.00  0.00    +0.000 OA
BRANCH  34  35
ATOM     35  C   UNK A   0       0.207   9.547  22.105  0.00  0.00    +0.000 C 
ATOM     36  C   UNK A   0      -0.636   9.854  23.305  0.00  0.00    +0.000 C 
ATOM     37  O   UNK A   0       1.062   8.673  22.042  0.00  0.00    +0.000 OA
ENDBRANCH  34  35
ENDBRANCH   6  34
TORSDOF 14
ENDMDL
