MODEL 1
REMARK VINA RESULT:      -7.5      0.000      0.000
REMARK  Name = 
REMARK  10 active torsions:
REMARK  status: ('A' for Active; 'I' for Inactive)
REMARK    1  A    between atoms: C_1  and  O_2
REMARK    2  A    between atoms: O_2  and  C_3
REMARK    3  A    between atoms: C_5  and  O_6
REMARK    4  A    between atoms: O_6  and  C_7
REMARK    5  A    between atoms: C_12  and  C_13
REMARK    6  A    between atoms: C_13  and  C_14
REMARK    7  A    between atoms: C_14  and  O_15
REMARK    8  A    between atoms: C_14  and  C_16
REMARK    9  A    between atoms: C_16  and  C_17
REMARK   10  A    between atoms: C_17  and  C_18
REMARK                            x       y       z     vdW  Elec       q    Type
REMARK                         _______ _______ _______ _____ _____    ______ ____
ROOT
ATOM      1  C   UNL     1       6.490   4.449  14.661  0.00  0.00    +0.000 A 
ATOM      2  C   UNL     1       7.198   5.320  15.480  0.00  0.00    +0.000 A 
ATOM      3  C   UNL     1       6.967   5.417  16.872  0.00  0.00    +0.000 A 
ATOM      4  C   UNL     1       5.973   4.603  17.453  0.00  0.00    +0.000 A 
ATOM      5  C   UNL     1       5.606   4.568  18.906  0.00  0.00    +0.000 A 
ATOM      6  O   UNL     1       5.951   5.394  19.738  0.00  0.00    +0.000 OA
ATOM      7  O   UNL     1       4.850   3.511  19.330  0.00  0.00    +0.000 OA
ATOM      8  C   UNL     1       4.010   2.811  18.452  0.00  0.00    +0.000 A 
ATOM      9  C   UNL     1       4.168   2.889  17.130  0.00  0.00    +0.000 A 
ATOM     10  C   UNL     1       5.239   3.733  16.606  0.00  0.00    +0.000 A 
ATOM     11  C   UNL     1       5.491   3.674  15.224  0.00  0.00    +0.000 A 
ENDROOT
BRANCH   1  13
ATOM     12  C   UNL     1       5.775   3.408  12.665  0.00  0.00    +0.000 C 
ATOM     13  O   UNL     1       6.667   4.312  13.313  0.00  0.00    +0.000 OA
ENDBRANCH   1  13
BRANCH   3  14
ATOM     14  O   UNL     1       7.844   6.338  17.368  0.00  0.00    +0.000 OA
ATOM     15  C   UNL     1       7.533   7.700  17.570  0.00  0.00    +0.000 C 
ENDBRANCH   3  14
BRANCH   8  16
ATOM     16  C   UNL     1       2.897   2.075  19.152  0.00  0.00    +0.000 C 
BRANCH  16  17
ATOM     17  C   UNL     1       1.541   2.770  18.890  0.00  0.00    +0.000 C 
BRANCH  17  18
ATOM     18  O   UNL     1       0.656   1.878  18.206  0.00  0.00    +0.000 OA
ATOM     19  H   UNL     1       0.805   1.961  17.248  0.00  0.00    +0.000 HD
ENDBRANCH  17  18
BRANCH  17  20
ATOM     20  C   UNL     1       0.881   3.230  20.184  0.00  0.00    +0.000 C 
BRANCH  20  21
ATOM     21  C   UNL     1       1.787   4.014  21.118  0.00  0.00    +0.000 C 
ATOM     22  C   UNL     1       2.201   5.423  20.780  0.00  0.00    +0.000 C 
ATOM     23  O   UNL     1       2.232   3.467  22.134  0.00  0.00    +0.000 OA
ENDBRANCH  20  21
ENDBRANCH  17  20
ENDBRANCH  16  17
ENDBRANCH   8  16
TORSDOF 7
ENDMDL
MODEL 2
REMARK VINA RESULT:      -7.2      2.242      6.760
REMARK  Name = 
REMARK  10 active torsions:
REMARK  status: ('A' for Active; 'I' for Inactive)
REMARK    1  A    between atoms: C_1  and  O_2
REMARK    2  A    between atoms: O_2  and  C_3
REMARK    3  A    between atoms: C_5  and  O_6
REMARK    4  A    between atoms: O_6  and  C_7
REMARK    5  A    between atoms: C_12  and  C_13
REMARK    6  A    between atoms: C_13  and  C_14
REMARK    7  A    between atoms: C_14  and  O_15
REMARK    8  A    between atoms: C_14  and  C_16
REMARK    9  A    between atoms: C_16  and  C_17
REMARK   10  A    between atoms: C_17  and  C_18
REMARK                            x       y       z     vdW  Elec       q    Type
REMARK                         _______ _______ _______ _____ _____    ______ ____
ROOT
ATOM      1  C   UNL     1       1.735   7.057  20.499  0.00  0.00    +0.000 A 
ATOM      2  C   UNL     1       1.315   5.757  20.745  0.00  0.00    +0.000 A 
ATOM      3  C   UNL     1       1.725   4.658  19.954  0.00  0.00    +0.000 A 
ATOM      4  C   UNL     1       2.589   4.892  18.865  0.00  0.00    +0.000 A 
ATOM      5  C   UNL     1       3.130   3.849  17.933  0.00  0.00    +0.000 A 
ATOM      6  O   UNL     1       2.717   2.701  17.849  0.00  0.00    +0.000 OA
ATOM      7  O   UNL     1       4.184   4.210  17.141  0.00  0.00    +0.000 OA
ATOM      8  C   UNL     1       4.411   5.547  16.788  0.00  0.00    +0.000 A 
ATOM      9  C   UNL     1       3.858   6.550  17.472  0.00  0.00    +0.000 A 
ATOM     10  C   UNL     1       2.995   6.226  18.605  0.00  0.00    +0.000 A 
ATOM     11  C   UNL     1       2.556   7.292  19.409  0.00  0.00    +0.000 A 
ENDROOT
BRANCH   1  13
ATOM     12  C   UNL     1      -0.029   8.333  21.414  0.00  0.00    +0.000 C 
ATOM     13  O   UNL     1       1.373   8.156  21.224  0.00  0.00    +0.000 OA
ENDBRANCH   1  13
BRANCH   3  14
ATOM     14  O   UNL     1       1.154   3.537  20.484  0.00  0.00    +0.000 OA
ATOM     15  C   UNL     1       1.677   2.824  21.583  0.00  0.00    +0.000 C 
ENDBRANCH   3  14
BRANCH   8  16
ATOM     16  C   UNL     1       5.236   5.701  15.536  0.00  0.00    +0.000 C 
BRANCH  16  17
ATOM     17  C   UNL     1       6.700   5.280  15.798  0.00  0.00    +0.000 C 
BRANCH  17  18
ATOM     18  O   UNL     1       7.494   5.512  14.631  0.00  0.00    +0.000 OA
ATOM     19  H   UNL     1       7.303   6.404  14.294  0.00  0.00    +0.000 HD
ENDBRANCH  17  18
BRANCH  17  20
ATOM     20  C   UNL     1       7.305   6.040  16.972  0.00  0.00    +0.000 C 
BRANCH  20  21
ATOM     21  C   UNL     1       7.766   5.167  18.126  0.00  0.00    +0.000 C 
ATOM     22  C   UNL     1       7.568   5.613  19.552  0.00  0.00    +0.000 C 
ATOM     23  O   UNL     1       8.360   4.109  17.889  0.00  0.00    +0.000 OA
ENDBRANCH  20  21
ENDBRANCH  17  20
ENDBRANCH  16  17
ENDBRANCH   8  16
TORSDOF 7
ENDMDL
MODEL 3
REMARK VINA RESULT:      -7.2      2.124      6.748
REMARK  Name = 
REMARK  10 active torsions:
REMARK  status: ('A' for Active; 'I' for Inactive)
REMARK    1  A    between atoms: C_1  and  O_2
REMARK    2  A    between atoms: O_2  and  C_3
REMARK    3  A    between atoms: C_5  and  O_6
REMARK    4  A    between atoms: O_6  and  C_7
REMARK    5  A    between atoms: C_12  and  C_13
REMARK    6  A    between atoms: C_13  and  C_14
REMARK    7  A    between atoms: C_14  and  O_15
REMARK    8  A    between atoms: C_14  and  C_16
REMARK    9  A    between atoms: C_16  and  C_17
REMARK   10  A    between atoms: C_17  and  C_18
REMARK                            x       y       z     vdW  Elec       q    Type
REMARK                         _______ _______ _______ _____ _____    ______ ____
ROOT
ATOM      1  C   UNL     1       1.788   4.045  19.278  0.00  0.00    +0.000 A 
ATOM      2  C   UNL     1       1.882   5.418  19.464  0.00  0.00    +0.000 A 
ATOM      3  C   UNL     1       2.802   6.225  18.756  0.00  0.00    +0.000 A 
ATOM      4  C   UNL     1       3.668   5.611  17.828  0.00  0.00    +0.000 A 
ATOM      5  C   UNL     1       4.691   6.311  16.986  0.00  0.00    +0.000 A 
ATOM      6  O   UNL     1       5.072   7.460  17.154  0.00  0.00    +0.000 OA
ATOM      7  O   UNL     1       5.213   5.612  15.933  0.00  0.00    +0.000 OA
ATOM      8  C   UNL     1       5.248   4.210  15.929  0.00  0.00    +0.000 A 
ATOM      9  C   UNL     1       4.472   3.494  16.745  0.00  0.00    +0.000 A 
ATOM     10  C   UNL     1       3.583   4.205  17.660  0.00  0.00    +0.000 A 
ATOM     11  C   UNL     1       2.661   3.436  18.392  0.00  0.00    +0.000 A 
ENDROOT
BRANCH   1  13
ATOM     12  C   UNL     1       1.319   2.826  21.246  0.00  0.00    +0.000 C 
ATOM     13  O   UNL     1       0.923   3.215  19.933  0.00  0.00    +0.000 OA
ENDBRANCH   1  13
BRANCH   3  14
ATOM     14  O   UNL     1       2.609   7.515  19.159  0.00  0.00    +0.000 OA
ATOM     15  C   UNL     1       1.985   8.507  18.373  0.00  0.00    +0.000 C 
ENDBRANCH   3  14
BRANCH   8  16
ATOM     16  C   UNL     1       6.293   3.643  15.003  0.00  0.00    +0.000 C 
BRANCH  16  17
ATOM     17  C   UNL     1       6.542   4.601  13.817  0.00  0.00    +0.000 C 
BRANCH  17  18
ATOM     18  O   UNL     1       7.641   5.469  14.108  0.00  0.00    +0.000 OA
ATOM     19  H   UNL     1       7.548   5.799  15.018  0.00  0.00    +0.000 HD
ENDBRANCH  17  18
BRANCH  17  20
ATOM     20  C   UNL     1       6.836   3.842  12.528  0.00  0.00    +0.000 C 
BRANCH  20  21
ATOM     21  C   UNL     1       5.670   3.034  11.984  0.00  0.00    +0.000 C 
ATOM     22  C   UNL     1       5.893   1.664  11.399  0.00  0.00    +0.000 C 
ATOM     23  O   UNL     1       4.538   3.533  11.972  0.00  0.00    +0.000 OA
ENDBRANCH  20  21
ENDBRANCH  17  20
ENDBRANCH  16  17
ENDBRANCH   8  16
TORSDOF 7
ENDMDL
MODEL 4
REMARK VINA RESULT:      -7.1      1.011      1.078
REMARK  Name = 
REMARK  10 active torsions:
REMARK  status: ('A' for Active; 'I' for Inactive)
REMARK    1  A    between atoms: C_1  and  O_2
REMARK    2  A    between atoms: O_2  and  C_3
REMARK    3  A    between atoms: C_5  and  O_6
REMARK    4  A    between atoms: O_6  and  C_7
REMARK    5  A    between atoms: C_12  and  C_13
REMARK    6  A    between atoms: C_13  and  C_14
REMARK    7  A    between atoms: C_14  and  O_15
REMARK    8  A    between atoms: C_14  and  C_16
REMARK    9  A    between atoms: C_16  and  C_17
REMARK   10  A    between atoms: C_17  and  C_18
REMARK                            x       y       z     vdW  Elec       q    Type
REMARK                         _______ _______ _______ _____ _____    ______ ____
ROOT
ATOM      1  C   UNL     1       6.541   4.594  14.665  0.00  0.00    +0.000 A 
ATOM      2  C   UNL     1       7.332   5.080  15.698  0.00  0.00    +0.000 A 
ATOM      3  C   UNL     1       6.872   5.181  17.032  0.00  0.00    +0.000 A 
ATOM      4  C   UNL     1       5.553   4.780  17.325  0.00  0.00    +0.000 A 
ATOM      5  C   UNL     1       4.908   4.808  18.678  0.00  0.00    +0.000 A 
ATOM      6  O   UNL     1       5.351   5.392  19.656  0.00  0.00    +0.000 OA
ATOM      7  O   UNL     1       3.748   4.099  18.828  0.00  0.00    +0.000 OA
ATOM      8  C   UNL     1       2.911   3.824  17.738  0.00  0.00    +0.000 A 
ATOM      9  C   UNL     1       3.355   3.908  16.483  0.00  0.00    +0.000 A 
ATOM     10  C   UNL     1       4.743   4.306  16.262  0.00  0.00    +0.000 A 
ATOM     11  C   UNL     1       5.235   4.231  14.947  0.00  0.00    +0.000 A 
ENDROOT
BRANCH   1  13
ATOM     12  C   UNL     1       6.224   3.498  12.597  0.00  0.00    +0.000 C 
ATOM     13  O   UNL     1       6.929   4.474  13.361  0.00  0.00    +0.000 OA
ENDBRANCH   1  13
BRANCH   3  14
ATOM     14  O   UNL     1       7.902   5.669  17.783  0.00  0.00    +0.000 OA
ATOM     15  C   UNL     1       7.954   6.979  18.303  0.00  0.00    +0.000 C 
ENDBRANCH   3  14
BRANCH   8  16
ATOM     16  C   UNL     1       1.488   3.533  18.139  0.00  0.00    +0.000 C 
BRANCH  16  17
ATOM     17  C   UNL     1       1.418   2.246  18.992  0.00  0.00    +0.000 C 
BRANCH  17  18
ATOM     18  O   UNL     1       2.700   1.614  19.035  0.00  0.00    +0.000 OA
ATOM     19  H   UNL     1       3.108   1.673  18.154  0.00  0.00    +0.000 HD
ENDBRANCH  17  18
BRANCH  17  20
ATOM     20  C   UNL     1       0.959   2.537  20.417  0.00  0.00    +0.000 C 
BRANCH  20  21
ATOM     21  C   UNL     1       2.016   3.161  21.312  0.00  0.00    +0.000 C 
ATOM     22  C   UNL     1       2.161   4.658  21.398  0.00  0.00    +0.000 C 
ATOM     23  O   UNL     1       2.799   2.429  21.929  0.00  0.00    +0.000 OA
ENDBRANCH  20  21
ENDBRANCH  17  20
ENDBRANCH  16  17
ENDBRANCH   8  16
TORSDOF 7
ENDMDL
MODEL 5
REMARK VINA RESULT:      -7.0      2.149      6.536
REMARK  Name = 
REMARK  10 active torsions:
REMARK  status: ('A' for Active; 'I' for Inactive)
REMARK    1  A    between atoms: C_1  and  O_2
REMARK    2  A    between atoms: O_2  and  C_3
REMARK    3  A    between atoms: C_5  and  O_6
REMARK    4  A    between atoms: O_6  and  C_7
REMARK    5  A    between atoms: C_12  and  C_13
REMARK    6  A    between atoms: C_13  and  C_14
REMARK    7  A    between atoms: C_14  and  O_15
REMARK    8  A    between atoms: C_14  and  C_16
REMARK    9  A    between atoms: C_16  and  C_17
REMARK   10  A    between atoms: C_17  and  C_18
REMARK                            x       y       z     vdW  Elec       q    Type
REMARK                         _______ _______ _______ _____ _____    ______ ____
ROOT
ATOM      1  C   UNL     1       2.235   7.273  19.398  0.00  0.00    +0.000 A 
ATOM      2  C   UNL     1       1.971   6.199  20.237  0.00  0.00    +0.000 A 
ATOM      3  C   UNL     1       2.789   5.046  20.285  0.00  0.00    +0.000 A 
ATOM      4  C   UNL     1       3.915   4.979  19.439  0.00  0.00    +0.000 A 
ATOM      5  C   UNL     1       4.892   3.844  19.367  0.00  0.00    +0.000 A 
ATOM      6  O   UNL     1       4.720   2.737  19.855  0.00  0.00    +0.000 OA
ATOM      7  O   UNL     1       6.077   4.084  18.729  0.00  0.00    +0.000 OA
ATOM      8  C   UNL     1       6.191   5.076  17.744  0.00  0.00    +0.000 A 
ATOM      9  C   UNL     1       5.291   6.054  17.637  0.00  0.00    +0.000 A 
ATOM     10  C   UNL     1       4.165   6.070  18.568  0.00  0.00    +0.000 A 
ATOM     11  C   UNL     1       3.321   7.194  18.543  0.00  0.00    +0.000 A 
ENDROOT
BRANCH   1  13
ATOM     12  C   UNL     1       1.579   9.113  18.070  0.00  0.00    +0.000 C 
ATOM     13  O   UNL     1       1.483   8.410  19.306  0.00  0.00    +0.000 OA
ENDBRANCH   1  13
BRANCH   3  14
ATOM     14  O   UNL     1       2.261   4.210  21.226  0.00  0.00    +0.000 OA
ATOM     15  C   UNL     1       1.323   3.193  20.947  0.00  0.00    +0.000 C 
ENDBRANCH   3  14
BRANCH   8  16
ATOM     16  C   UNL     1       7.347   4.852  16.804  0.00  0.00    +0.000 C 
BRANCH  16  17
ATOM     17  C   UNL     1       6.910   3.976  15.608  0.00  0.00    +0.000 C 
BRANCH  17  18
ATOM     18  O   UNL     1       5.746   3.219  15.953  0.00  0.00    +0.000 OA
ATOM     19  H   UNL     1       5.125   3.797  16.429  0.00  0.00    +0.000 HD
ENDBRANCH  17  18
BRANCH  17  20
ATOM     20  C   UNL     1       6.609   4.816  14.372  0.00  0.00    +0.000 C 
BRANCH  20  21
ATOM     21  C   UNL     1       6.139   4.025  13.163  0.00  0.00    +0.000 C 
ATOM     22  C   UNL     1       7.084   3.729  12.027  0.00  0.00    +0.000 C 
ATOM     23  O   UNL     1       4.956   3.673  13.089  0.00  0.00    +0.000 OA
ENDBRANCH  20  21
ENDBRANCH  17  20
ENDBRANCH  16  17
ENDBRANCH   8  16
TORSDOF 7
ENDMDL
MODEL 6
REMARK VINA RESULT:      -7.0      1.128      1.274
REMARK  Name = 
REMARK  10 active torsions:
REMARK  status: ('A' for Active; 'I' for Inactive)
REMARK    1  A    between atoms: C_1  and  O_2
REMARK    2  A    between atoms: O_2  and  C_3
REMARK    3  A    between atoms: C_5  and  O_6
REMARK    4  A    between atoms: O_6  and  C_7
REMARK    5  A    between atoms: C_12  and  C_13
REMARK    6  A    between atoms: C_13  and  C_14
REMARK    7  A    between atoms: C_14  and  O_15
REMARK    8  A    between atoms: C_14  and  C_16
REMARK    9  A    between atoms: C_16  and  C_17
REMARK   10  A    between atoms: C_17  and  C_18
REMARK                            x       y       z     vdW  Elec       q    Type
REMARK                         _______ _______ _______ _____ _____    ______ ____
ROOT
ATOM      1  C   UNL     1       6.385   4.425  14.694  0.00  0.00    +0.000 A 
ATOM      2  C   UNL     1       7.187   5.240  15.484  0.00  0.00    +0.000 A 
ATOM      3  C   UNL     1       6.981   5.398  16.874  0.00  0.00    +0.000 A 
ATOM      4  C   UNL     1       5.913   4.709  17.484  0.00  0.00    +0.000 A 
ATOM      5  C   UNL     1       5.558   4.752  18.940  0.00  0.00    +0.000 A 
ATOM      6  O   UNL     1       5.995   5.560  19.746  0.00  0.00    +0.000 OA
ATOM      7  O   UNL     1       4.701   3.791  19.399  0.00  0.00    +0.000 OA
ATOM      8  C   UNL     1       3.785   3.158  18.547  0.00  0.00    +0.000 A 
ATOM      9  C   UNL     1       3.938   3.183  17.222  0.00  0.00    +0.000 A 
ATOM     10  C   UNL     1       5.085   3.897  16.667  0.00  0.00    +0.000 A 
ATOM     11  C   UNL     1       5.317   3.774  15.286  0.00  0.00    +0.000 A 
ENDROOT
BRANCH   1  13
ATOM     12  C   UNL     1       5.540   3.420  12.732  0.00  0.00    +0.000 C 
ATOM     13  O   UNL     1       6.533   4.234  13.350  0.00  0.00    +0.000 OA
ENDBRANCH   1  13
BRANCH   3  14
ATOM     14  O   UNL     1       7.953   6.238  17.337  0.00  0.00    +0.000 OA
ATOM     15  C   UNL     1       7.757   7.610  17.600  0.00  0.00    +0.000 C 
ENDBRANCH   3  14
BRANCH   8  16
ATOM     16  C   UNL     1       2.608   2.561  19.275  0.00  0.00    +0.000 C 
BRANCH  16  17
ATOM     17  C   UNL     1       1.555   3.650  19.584  0.00  0.00    +0.000 C 
BRANCH  17  18
ATOM     18  O   UNL     1       0.360   3.048  20.089  0.00  0.00    +0.000 OA
ATOM     19  H   UNL     1      -0.268   3.751  20.330  0.00  0.00    +0.000 HD
ENDBRANCH  17  18
BRANCH  17  20
ATOM     20  C   UNL     1       2.070   4.663  20.599  0.00  0.00    +0.000 C 
BRANCH  20  21
ATOM     21  C   UNL     1       1.960   6.114  20.163  0.00  0.00    +0.000 C 
ATOM     22  C   UNL     1       2.568   6.572  18.863  0.00  0.00    +0.000 C 
ATOM     23  O   UNL     1       1.415   6.934  20.912  0.00  0.00    +0.000 OA
ENDBRANCH  20  21
ENDBRANCH  17  20
ENDBRANCH  16  17
ENDBRANCH   8  16
TORSDOF 7
ENDMDL
MODEL 7
REMARK VINA RESULT:      -6.9      2.123      6.719
REMARK  Name = 
REMARK  10 active torsions:
REMARK  status: ('A' for Active; 'I' for Inactive)
REMARK    1  A    between atoms: C_1  and  O_2
REMARK    2  A    between atoms: O_2  and  C_3
REMARK    3  A    between atoms: C_5  and  O_6
REMARK    4  A    between atoms: O_6  and  C_7
REMARK    5  A    between atoms: C_12  and  C_13
REMARK    6  A    between atoms: C_13  and  C_14
REMARK    7  A    between atoms: C_14  and  O_15
REMARK    8  A    between atoms: C_14  and  C_16
REMARK    9  A    between atoms: C_16  and  C_17
REMARK   10  A    between atoms: C_17  and  C_18
REMARK                            x       y       z     vdW  Elec       q    Type
REMARK                         _______ _______ _______ _____ _____    ______ ____
ROOT
ATOM      1  C   UNL     1       1.594   7.097  20.472  0.00  0.00    +0.000 A 
ATOM      2  C   UNL     1       1.602   5.892  21.161  0.00  0.00    +0.000 A 
ATOM      3  C   UNL     1       2.370   4.778  20.746  0.00  0.00    +0.000 A 
ATOM      4  C   UNL     1       3.152   4.893  19.578  0.00  0.00    +0.000 A 
ATOM      5  C   UNL     1       4.031   3.823  19.003  0.00  0.00    +0.000 A 
ATOM      6  O   UNL     1       4.010   2.646  19.329  0.00  0.00    +0.000 OA
ATOM      7  O   UNL     1       4.942   4.209  18.060  0.00  0.00    +0.000 OA
ATOM      8  C   UNL     1       4.744   5.351  17.272  0.00  0.00    +0.000 A 
ATOM      9  C   UNL     1       3.876   6.299  17.629  0.00  0.00    +0.000 A 
ATOM     10  C   UNL     1       3.121   6.120  18.867  0.00  0.00    +0.000 A 
ATOM     11  C   UNL     1       2.336   7.199  19.308  0.00  0.00    +0.000 A 
ENDROOT
BRANCH   1  13
ATOM     12  C   UNL     1       0.994   9.320  19.943  0.00  0.00    +0.000 C 
ATOM     13  O   UNL     1       0.874   8.204  20.823  0.00  0.00    +0.000 OA
ENDBRANCH   1  13
BRANCH   3  14
ATOM     14  O   UNL     1       2.167   3.781  21.655  0.00  0.00    +0.000 OA
ATOM     15  C   UNL     1       1.334   2.664  21.434  0.00  0.00    +0.000 C 
ENDBRANCH   3  14
BRANCH   8  16
ATOM     16  C   UNL     1       5.521   5.327  15.981  0.00  0.00    +0.000 C 
BRANCH  16  17
ATOM     17  C   UNL     1       7.019   5.602  16.246  0.00  0.00    +0.000 C 
BRANCH  17  18
ATOM     18  O   UNL     1       7.756   5.529  15.023  0.00  0.00    +0.000 OA
ATOM     19  H   UNL     1       8.257   6.355  14.908  0.00  0.00    +0.000 HD
ENDBRANCH  17  18
BRANCH  17  20
ATOM     20  C   UNL     1       7.239   6.971  16.879  0.00  0.00    +0.000 C 
BRANCH  20  21
ATOM     21  C   UNL     1       7.916   6.943  18.239  0.00  0.00    +0.000 C 
ATOM     22  C   UNL     1       7.823   5.722  19.116  0.00  0.00    +0.000 C 
ATOM     23  O   UNL     1       8.498   7.954  18.649  0.00  0.00    +0.000 OA
ENDBRANCH  20  21
ENDBRANCH  17  20
ENDBRANCH  16  17
ENDBRANCH   8  16
TORSDOF 7
ENDMDL
MODEL 8
REMARK VINA RESULT:      -6.8      1.977      6.838
REMARK  Name = 
REMARK  10 active torsions:
REMARK  status: ('A' for Active; 'I' for Inactive)
REMARK    1  A    between atoms: C_1  and  O_2
REMARK    2  A    between atoms: O_2  and  C_3
REMARK    3  A    between atoms: C_5  and  O_6
REMARK    4  A    between atoms: O_6  and  C_7
REMARK    5  A    between atoms: C_12  and  C_13
REMARK    6  A    between atoms: C_13  and  C_14
REMARK    7  A    between atoms: C_14  and  O_15
REMARK    8  A    between atoms: C_14  and  C_16
REMARK    9  A    between atoms: C_16  and  C_17
REMARK   10  A    between atoms: C_17  and  C_18
REMARK                            x       y       z     vdW  Elec       q    Type
REMARK                         _______ _______ _______ _____ _____    ______ ____
ROOT
ATOM      1  C   UNL     1       3.053   3.656  20.320  0.00  0.00    +0.000 A 
ATOM      2  C   UNL     1       2.337   4.845  20.269  0.00  0.00    +0.000 A 
ATOM      3  C   UNL     1       2.641   5.882  19.357  0.00  0.00    +0.000 A 
ATOM      4  C   UNL     1       3.722   5.708  18.468  0.00  0.00    +0.000 A 
ATOM      5  C   UNL     1       4.174   6.694  17.433  0.00  0.00    +0.000 A 
ATOM      6  O   UNL     1       3.822   7.863  17.375  0.00  0.00    +0.000 OA
ATOM      7  O   UNL     1       5.025   6.233  16.467  0.00  0.00    +0.000 OA
ATOM      8  C   UNL     1       5.858   5.128  16.690  0.00  0.00    +0.000 A 
ATOM      9  C   UNL     1       5.618   4.266  17.679  0.00  0.00    +0.000 A 
ATOM     10  C   UNL     1       4.463   4.501  18.541  0.00  0.00    +0.000 A 
ATOM     11  C   UNL     1       4.135   3.498  19.470  0.00  0.00    +0.000 A 
ENDROOT
BRANCH   1  13
ATOM     12  C   UNL     1       1.488   2.565  21.712  0.00  0.00    +0.000 C 
ATOM     13  O   UNL     1       2.809   2.621  21.177  0.00  0.00    +0.000 OA
ENDBRANCH   1  13
BRANCH   3  14
ATOM     14  O   UNL     1       1.734   6.882  19.559  0.00  0.00    +0.000 OA
ATOM     15  C   UNL     1       1.739   7.745  20.675  0.00  0.00    +0.000 C 
ENDBRANCH   3  14
BRANCH   8  16
ATOM     16  C   UNL     1       7.059   5.094  15.779  0.00  0.00    +0.000 C 
BRANCH  16  17
ATOM     17  C   UNL     1       6.614   5.048  14.300  0.00  0.00    +0.000 C 
BRANCH  17  18
ATOM     18  O   UNL     1       7.713   5.376  13.446  0.00  0.00    +0.000 OA
ATOM     19  H   UNL     1       7.436   6.078  12.832  0.00  0.00    +0.000 HD
ENDBRANCH  17  18
BRANCH  17  20
ATOM     20  C   UNL     1       6.075   3.676  13.913  0.00  0.00    +0.000 C 
BRANCH  20  21
ATOM     21  C   UNL     1       5.981   3.426  12.417  0.00  0.00    +0.000 C 
ATOM     22  C   UNL     1       4.639   3.335  11.738  0.00  0.00    +0.000 C 
ATOM     23  O   UNL     1       7.016   3.239  11.766  0.00  0.00    +0.000 OA
ENDBRANCH  20  21
ENDBRANCH  17  20
ENDBRANCH  16  17
ENDBRANCH   8  16
TORSDOF 7
ENDMDL
MODEL 9
REMARK VINA RESULT:      -6.8      0.930      1.769
REMARK  Name = 
REMARK  10 active torsions:
REMARK  status: ('A' for Active; 'I' for Inactive)
REMARK    1  A    between atoms: C_1  and  O_2
REMARK    2  A    between atoms: O_2  and  C_3
REMARK    3  A    between atoms: C_5  and  O_6
REMARK    4  A    between atoms: O_6  and  C_7
REMARK    5  A    between atoms: C_12  and  C_13
REMARK    6  A    between atoms: C_13  and  C_14
REMARK    7  A    between atoms: C_14  and  O_15
REMARK    8  A    between atoms: C_14  and  C_16
REMARK    9  A    between atoms: C_16  and  C_17
REMARK   10  A    between atoms: C_17  and  C_18
REMARK                            x       y       z     vdW  Elec       q    Type
REMARK                         _______ _______ _______ _____ _____    ______ ____
ROOT
ATOM      1  C   UNL     1       5.723   4.343  14.717  0.00  0.00    +0.000 A 
ATOM      2  C   UNL     1       6.643   5.245  15.237  0.00  0.00    +0.000 A 
ATOM      3  C   UNL     1       6.796   5.464  16.626  0.00  0.00    +0.000 A 
ATOM      4  C   UNL     1       5.977   4.745  17.521  0.00  0.00    +0.000 A 
ATOM      5  C   UNL     1       6.013   4.844  19.016  0.00  0.00    +0.000 A 
ATOM      6  O   UNL     1       6.586   5.719  19.649  0.00  0.00    +0.000 OA
ATOM      7  O   UNL     1       5.376   3.859  19.719  0.00  0.00    +0.000 OA
ATOM      8  C   UNL     1       4.317   3.129  19.162  0.00  0.00    +0.000 A 
ATOM      9  C   UNL     1       4.116   3.093  17.844  0.00  0.00    +0.000 A 
ATOM     10  C   UNL     1       5.025   3.843  16.981  0.00  0.00    +0.000 A 
ATOM     11  C   UNL     1       4.896   3.662  15.593  0.00  0.00    +0.000 A 
ENDROOT
BRANCH   1  13
ATOM     12  C   UNL     1       6.705   3.792  12.641  0.00  0.00    +0.000 C 
ATOM     13  O   UNL     1       5.529   4.090  13.389  0.00  0.00    +0.000 OA
ENDBRANCH   1  13
BRANCH   3  14
ATOM     14  O   UNL     1       7.793   6.384  16.786  0.00  0.00    +0.000 OA
ATOM     15  C   UNL     1       7.593   7.694  17.269  0.00  0.00    +0.000 C 
ENDBRANCH   3  14
BRANCH   8  16
ATOM     16  C   UNL     1       3.417   2.502  20.196  0.00  0.00    +0.000 C 
BRANCH  16  17
ATOM     17  C   UNL     1       2.523   3.576  20.856  0.00  0.00    +0.000 C 
BRANCH  17  18
ATOM     18  O   UNL     1       2.994   4.884  20.518  0.00  0.00    +0.000 OA
ATOM     19  H   UNL     1       3.536   4.824  19.713  0.00  0.00    +0.000 HD
ENDBRANCH  17  18
BRANCH  17  20
ATOM     20  C   UNL     1       1.067   3.444  20.425  0.00  0.00    +0.000 C 
BRANCH  20  21
ATOM     21  C   UNL     1       0.862   3.207  18.939  0.00  0.00    +0.000 C 
ATOM     22  C   UNL     1       1.158   4.297  17.941  0.00  0.00    +0.000 C 
ATOM     23  O   UNL     1       0.394   2.130  18.554  0.00  0.00    +0.000 OA
ENDBRANCH  20  21
ENDBRANCH  17  20
ENDBRANCH  16  17
ENDBRANCH   8  16
TORSDOF 7
ENDMDL
