MODEL 1
REMARK VINA RESULT:      -8.4      0.000      0.000
REMARK  Name = 
REMARK  8 active torsions:
REMARK  status: ('A' for Active; 'I' for Inactive)
REMARK    1  A    between atoms: C_1  and  C_2
REMARK    2  A    between atoms: C_2  and  C_3
REMARK    3  A    between atoms: C_8  and  C_9
REMARK    4  A    between atoms: C_10  and  C_11
REMARK    5  A    between atoms: C_14  and  S_15
REMARK    6  A    between atoms: S_15  and  C_16
REMARK    7  A    between atoms: C_16  and  C_17
REMARK    8  A    between atoms: C_22  and  C_23
REMARK                            x       y       z     vdW  Elec       q    Type
REMARK                         _______ _______ _______ _____ _____    ______ ____
ROOT
ATOM      1  C   UNL     1       2.238   4.847  20.697  0.00  0.00    +0.000 A 
ATOM      2  C   UNL     1       1.463   5.886  21.221  0.00  0.00    +0.000 A 
ATOM      3  C   UNL     1       1.374   7.112  20.563  0.00  0.00    +0.000 A 
ATOM      4  C   UNL     1       0.664   8.171  21.140  0.00  0.00    +0.000 A 
ATOM      5  C   UNL     1       0.653   9.418  20.531  0.00  0.00    +0.000 A 
ATOM      6  C   UNL     1       1.331   9.620  19.324  0.00  0.00    +0.000 A 
ATOM      7  C   UNL     1       1.335  11.001  18.730  0.00  0.00    +0.000 C 
ATOM      8  C   UNL     1       1.996   8.527  18.712  0.00  0.00    +0.000 A 
ATOM      9  C   UNL     1       2.694   8.676  17.379  0.00  0.00    +0.000 C 
ATOM     10  C   UNL     1       2.046   7.266  19.336  0.00  0.00    +0.000 A 
ATOM     11  N   UNL     1       2.748   6.240  18.796  0.00  0.00    +0.000 NA
ATOM     12  C   UNL     1       2.856   5.065  19.462  0.00  0.00    +0.000 A 
ENDROOT
BRANCH   1  14
ATOM     13  C   UNL     1       1.282   2.657  21.395  0.00  0.00    +0.000 C 
ATOM     14  C   UNL     1       2.448   3.626  21.556  0.00  0.00    +0.000 C 
ENDBRANCH   1  14
BRANCH  12  15
ATOM     15  S   UNL     1       3.898   3.810  18.705  0.00  0.00    +0.000 S 
BRANCH  15  16
ATOM     16  C   UNL     1       5.561   4.479  19.049  0.00  0.00    +0.000 C 
BRANCH  16  17
ATOM     17  C   UNL     1       6.182   5.110  17.807  0.00  0.00    +0.000 C 
ATOM     18  O   UNL     1       6.864   6.126  17.913  0.00  0.00    +0.000 OA
ATOM     19  N   UNL     1       5.972   4.388  16.646  0.00  0.00    +0.000 N 
ATOM     20  C   UNL     1       6.573   4.663  15.427  0.00  0.00    +0.000 A 
ATOM     21  C   UNL     1       6.220   4.030  14.210  0.00  0.00    +0.000 A 
ATOM     22  C   UNL     1       7.067   4.571  13.272  0.00  0.00    +0.000 A 
ATOM     23  C   UNL     1       7.266   4.392  11.822  0.00  0.00    +0.000 C 
ATOM     24  O   UNL     1       7.884   5.465  13.885  0.00  0.00    +0.000 OA
ATOM     25  N   UNL     1       7.574   5.526  15.229  0.00  0.00    +0.000 NA
ATOM     26  H   UNL     1       5.271   3.661  16.658  0.00  0.00    +0.000 HD
ENDBRANCH  16  17
ENDBRANCH  15  16
ENDBRANCH  12  15
TORSDOF 4
ENDMDL
MODEL 2
REMARK VINA RESULT:      -8.1      2.186      3.039
REMARK  Name = 
REMARK  8 active torsions:
REMARK  status: ('A' for Active; 'I' for Inactive)
REMARK    1  A    between atoms: C_1  and  C_2
REMARK    2  A    between atoms: C_2  and  C_3
REMARK    3  A    between atoms: C_8  and  C_9
REMARK    4  A    between atoms: C_10  and  C_11
REMARK    5  A    between atoms: C_14  and  S_15
REMARK    6  A    between atoms: S_15  and  C_16
REMARK    7  A    between atoms: C_16  and  C_17
REMARK    8  A    between atoms: C_22  and  C_23
REMARK                            x       y       z     vdW  Elec       q    Type
REMARK                         _______ _______ _______ _____ _____    ______ ____
ROOT
ATOM      1  C   UNL     1       2.512   4.058  20.265  0.00  0.00    +0.000 A 
ATOM      2  C   UNL     1       1.852   5.119  20.892  0.00  0.00    +0.000 A 
ATOM      3  C   UNL     1       1.782   6.373  20.286  0.00  0.00    +0.000 A 
ATOM      4  C   UNL     1       1.193   7.449  20.960  0.00  0.00    +0.000 A 
ATOM      5  C   UNL     1       1.206   8.717  20.397  0.00  0.00    +0.000 A 
ATOM      6  C   UNL     1       1.785   8.925  19.141  0.00  0.00    +0.000 A 
ATOM      7  C   UNL     1       1.822  10.326  18.595  0.00  0.00    +0.000 C 
ATOM      8  C   UNL     1       2.325   7.820  18.435  0.00  0.00    +0.000 A 
ATOM      9  C   UNL     1       2.911   7.979  17.051  0.00  0.00    +0.000 C 
ATOM     10  C   UNL     1       2.352   6.534  19.010  0.00  0.00    +0.000 A 
ATOM     11  N   UNL     1       2.938   5.492  18.374  0.00  0.00    +0.000 NA
ATOM     12  C   UNL     1       3.031   4.287  18.987  0.00  0.00    +0.000 A 
ENDROOT
BRANCH   1  14
ATOM     13  C   UNL     1       1.498   2.501  21.922  0.00  0.00    +0.000 C 
ATOM     14  C   UNL     1       2.721   2.794  21.060  0.00  0.00    +0.000 C 
ENDBRANCH   1  14
BRANCH  12  15
ATOM     15  S   UNL     1       3.923   3.003  18.098  0.00  0.00    +0.000 S 
BRANCH  15  16
ATOM     16  C   UNL     1       5.005   4.007  17.024  0.00  0.00    +0.000 C 
BRANCH  16  17
ATOM     17  C   UNL     1       5.970   4.862  17.840  0.00  0.00    +0.000 C 
ATOM     18  O   UNL     1       6.569   4.370  18.793  0.00  0.00    +0.000 OA
ATOM     19  N   UNL     1       6.142   6.141  17.345  0.00  0.00    +0.000 N 
ATOM     20  C   UNL     1       7.087   7.045  17.807  0.00  0.00    +0.000 A 
ATOM     21  C   UNL     1       7.139   8.406  17.414  0.00  0.00    +0.000 A 
ATOM     22  C   UNL     1       8.226   8.924  18.079  0.00  0.00    +0.000 A 
ATOM     23  C   UNL     1       8.867  10.249  18.152  0.00  0.00    +0.000 C 
ATOM     24  O   UNL     1       8.798   7.937  18.816  0.00  0.00    +0.000 OA
ATOM     25  N   UNL     1       8.086   6.767  18.650  0.00  0.00    +0.000 NA
ATOM     26  H   UNL     1       5.484   6.478  16.656  0.00  0.00    +0.000 HD
ENDBRANCH  16  17
ENDBRANCH  15  16
ENDBRANCH  12  15
TORSDOF 4
ENDMDL
MODEL 3
REMARK VINA RESULT:      -7.9      1.197      1.317
REMARK  Name = 
REMARK  8 active torsions:
REMARK  status: ('A' for Active; 'I' for Inactive)
REMARK    1  A    between atoms: C_1  and  C_2
REMARK    2  A    between atoms: C_2  and  C_3
REMARK    3  A    between atoms: C_8  and  C_9
REMARK    4  A    between atoms: C_10  and  C_11
REMARK    5  A    between atoms: C_14  and  S_15
REMARK    6  A    between atoms: S_15  and  C_16
REMARK    7  A    between atoms: C_16  and  C_17
REMARK    8  A    between atoms: C_22  and  C_23
REMARK                            x       y       z     vdW  Elec       q    Type
REMARK                         _______ _______ _______ _____ _____    ______ ____
ROOT
ATOM      1  C   UNL     1       2.105   5.773  20.212  0.00  0.00    +0.000 A 
ATOM      2  C   UNL     1       1.350   6.591  21.059  0.00  0.00    +0.000 A 
ATOM      3  C   UNL     1       1.103   7.923  20.732  0.00  0.00    +0.000 A 
ATOM      4  C   UNL     1       0.419   8.753  21.627  0.00  0.00    +0.000 A 
ATOM      5  C   UNL     1       0.256  10.102  21.343  0.00  0.00    +0.000 A 
ATOM      6  C   UNL     1       0.751  10.636  20.148  0.00  0.00    +0.000 A 
ATOM      7  C   UNL     1       0.596  12.112  19.908  0.00  0.00    +0.000 C 
ATOM      8  C   UNL     1       1.388   9.777  19.216  0.00  0.00    +0.000 A 
ATOM      9  C   UNL     1       1.889  10.291  17.886  0.00  0.00    +0.000 C 
ATOM     10  C   UNL     1       1.593   8.415  19.508  0.00  0.00    +0.000 A 
ATOM     11  N   UNL     1       2.272   7.608  18.657  0.00  0.00    +0.000 NA
ATOM     12  C   UNL     1       2.536   6.324  19.002  0.00  0.00    +0.000 A 
ENDROOT
BRANCH   1  14
ATOM     13  C   UNL     1       1.261   3.541  20.921  0.00  0.00    +0.000 C 
ATOM     14  C   UNL     1       2.498   4.409  20.720  0.00  0.00    +0.000 C 
ENDBRANCH   1  14
BRANCH  12  15
ATOM     15  S   UNL     1       3.535   5.375  17.847  0.00  0.00    +0.000 S 
BRANCH  15  16
ATOM     16  C   UNL     1       5.148   6.214  18.005  0.00  0.00    +0.000 C 
BRANCH  16  17
ATOM     17  C   UNL     1       5.908   6.227  16.682  0.00  0.00    +0.000 C 
ATOM     18  O   UNL     1       6.764   7.083  16.475  0.00  0.00    +0.000 OA
ATOM     19  N   UNL     1       5.596   5.170  15.846  0.00  0.00    +0.000 N 
ATOM     20  C   UNL     1       6.269   4.870  14.671  0.00  0.00    +0.000 A 
ATOM     21  C   UNL     1       5.835   3.896  13.737  0.00  0.00    +0.000 A 
ATOM     22  C   UNL     1       6.792   3.903  12.749  0.00  0.00    +0.000 A 
ATOM     23  C   UNL     1       6.990   3.168  11.488  0.00  0.00    +0.000 C 
ATOM     24  O   UNL     1       7.745   4.814  13.072  0.00  0.00    +0.000 OA
ATOM     25  N   UNL     1       7.418   5.420  14.267  0.00  0.00    +0.000 NA
ATOM     26  H   UNL     1       4.771   4.625  16.055  0.00  0.00    +0.000 HD
ENDBRANCH  16  17
ENDBRANCH  15  16
ENDBRANCH  12  15
TORSDOF 4
ENDMDL
MODEL 4
REMARK VINA RESULT:      -7.9      3.836      6.376
REMARK  Name = 
REMARK  8 active torsions:
REMARK  status: ('A' for Active; 'I' for Inactive)
REMARK    1  A    between atoms: C_1  and  C_2
REMARK    2  A    between atoms: C_2  and  C_3
REMARK    3  A    between atoms: C_8  and  C_9
REMARK    4  A    between atoms: C_10  and  C_11
REMARK    5  A    between atoms: C_14  and  S_15
REMARK    6  A    between atoms: S_15  and  C_16
REMARK    7  A    between atoms: C_16  and  C_17
REMARK    8  A    between atoms: C_22  and  C_23
REMARK                            x       y       z     vdW  Elec       q    Type
REMARK                         _______ _______ _______ _____ _____    ______ ____
ROOT
ATOM      1  C   UNL     1       5.235   4.839  16.367  0.00  0.00    +0.000 A 
ATOM      2  C   UNL     1       3.843   4.697  16.360  0.00  0.00    +0.000 A 
ATOM      3  C   UNL     1       3.173   4.187  17.470  0.00  0.00    +0.000 A 
ATOM      4  C   UNL     1       1.791   3.970  17.421  0.00  0.00    +0.000 A 
ATOM      5  C   UNL     1       1.138   3.376  18.492  0.00  0.00    +0.000 A 
ATOM      6  C   UNL     1       1.852   3.012  19.638  0.00  0.00    +0.000 A 
ATOM      7  C   UNL     1       1.111   2.322  20.751  0.00  0.00    +0.000 C 
ATOM      8  C   UNL     1       3.241   3.290  19.708  0.00  0.00    +0.000 A 
ATOM      9  C   UNL     1       4.048   2.969  20.946  0.00  0.00    +0.000 C 
ATOM     10  C   UNL     1       3.923   3.859  18.615  0.00  0.00    +0.000 A 
ATOM     11  N   UNL     1       5.263   4.053  18.645  0.00  0.00    +0.000 NA
ATOM     12  C   UNL     1       5.909   4.516  17.548  0.00  0.00    +0.000 A 
ENDROOT
BRANCH   1  14
ATOM     13  C   UNL     1       6.202   3.953  14.251  0.00  0.00    +0.000 C 
ATOM     14  C   UNL     1       5.909   5.206  15.069  0.00  0.00    +0.000 C 
ENDBRANCH   1  14
BRANCH  12  15
ATOM     15  S   UNL     1       7.699   4.634  17.664  0.00  0.00    +0.000 S 
BRANCH  15  16
ATOM     16  C   UNL     1       7.885   5.972  18.891  0.00  0.00    +0.000 C 
BRANCH  16  17
ATOM     17  C   UNL     1       8.064   7.330  18.221  0.00  0.00    +0.000 C 
ATOM     18  O   UNL     1       7.596   7.528  17.103  0.00  0.00    +0.000 OA
ATOM     19  N   UNL     1       8.693   8.270  19.017  0.00  0.00    +0.000 N 
ATOM     20  C   UNL     1       8.820   9.614  18.699  0.00  0.00    +0.000 A 
ATOM     21  C   UNL     1       9.613  10.530  19.435  0.00  0.00    +0.000 A 
ATOM     22  C   UNL     1       9.436  11.738  18.802  0.00  0.00    +0.000 A 
ATOM     23  C   UNL     1       9.945  13.105  19.009  0.00  0.00    +0.000 C 
ATOM     24  O   UNL     1       8.583  11.564  17.760  0.00  0.00    +0.000 OA
ATOM     25  N   UNL     1       8.202  10.239  17.693  0.00  0.00    +0.000 NA
ATOM     26  H   UNL     1       9.168   7.948  19.849  0.00  0.00    +0.000 HD
ENDBRANCH  16  17
ENDBRANCH  15  16
ENDBRANCH  12  15
TORSDOF 4
ENDMDL
MODEL 5
REMARK VINA RESULT:      -7.7      2.693      3.778
REMARK  Name = 
REMARK  8 active torsions:
REMARK  status: ('A' for Active; 'I' for Inactive)
REMARK    1  A    between atoms: C_1  and  C_2
REMARK    2  A    between atoms: C_2  and  C_3
REMARK    3  A    between atoms: C_8  and  C_9
REMARK    4  A    between atoms: C_10  and  C_11
REMARK    5  A    between atoms: C_14  and  S_15
REMARK    6  A    between atoms: S_15  and  C_16
REMARK    7  A    between atoms: C_16  and  C_17
REMARK    8  A    between atoms: C_22  and  C_23
REMARK                            x       y       z     vdW  Elec       q    Type
REMARK                         _______ _______ _______ _____ _____    ______ ____
ROOT
ATOM      1  C   UNL     1       3.313   3.648  18.784  0.00  0.00    +0.000 A 
ATOM      2  C   UNL     1       2.507   4.168  19.803  0.00  0.00    +0.000 A 
ATOM      3  C   UNL     1       2.154   5.516  19.815  0.00  0.00    +0.000 A 
ATOM      4  C   UNL     1       1.419   6.042  20.883  0.00  0.00    +0.000 A 
ATOM      5  C   UNL     1       1.148   7.402  20.943  0.00  0.00    +0.000 A 
ATOM      6  C   UNL     1       1.586   8.253  19.923  0.00  0.00    +0.000 A 
ATOM      7  C   UNL     1       1.315   9.727  20.057  0.00  0.00    +0.000 C 
ATOM      8  C   UNL     1       2.277   7.706  18.812  0.00  0.00    +0.000 A 
ATOM      9  C   UNL     1       2.721   8.572  17.655  0.00  0.00    +0.000 C 
ATOM     10  C   UNL     1       2.590   6.334  18.756  0.00  0.00    +0.000 A 
ATOM     11  N   UNL     1       3.320   5.820  17.737  0.00  0.00    +0.000 NA
ATOM     12  C   UNL     1       3.686   4.515  17.753  0.00  0.00    +0.000 A 
ENDROOT
BRANCH   1  14
ATOM     13  C   UNL     1       4.599   2.093  20.241  0.00  0.00    +0.000 C 
ATOM     14  C   UNL     1       3.817   2.236  18.940  0.00  0.00    +0.000 C 
ENDBRANCH   1  14
BRANCH  12  15
ATOM     15  S   UNL     1       4.742   3.964  16.406  0.00  0.00    +0.000 S 
BRANCH  15  16
ATOM     16  C   UNL     1       6.395   4.366  17.067  0.00  0.00    +0.000 C 
BRANCH  16  17
ATOM     17  C   UNL     1       6.752   5.832  16.837  0.00  0.00    +0.000 C 
ATOM     18  O   UNL     1       6.290   6.429  15.868  0.00  0.00    +0.000 OA
ATOM     19  N   UNL     1       7.528   6.384  17.839  0.00  0.00    +0.000 N 
ATOM     20  C   UNL     1       7.839   7.731  17.943  0.00  0.00    +0.000 A 
ATOM     21  C   UNL     1       8.773   8.259  18.869  0.00  0.00    +0.000 A 
ATOM     22  C   UNL     1       8.756   9.617  18.653  0.00  0.00    +0.000 A 
ATOM     23  C   UNL     1       9.462  10.772  19.235  0.00  0.00    +0.000 C 
ATOM     24  O   UNL     1       7.863   9.891  17.668  0.00  0.00    +0.000 OA
ATOM     25  N   UNL     1       7.294   8.716  17.222  0.00  0.00    +0.000 NA
ATOM     26  H   UNL     1       7.971   5.759  18.498  0.00  0.00    +0.000 HD
ENDBRANCH  16  17
ENDBRANCH  15  16
ENDBRANCH  12  15
TORSDOF 4
ENDMDL
MODEL 6
REMARK VINA RESULT:      -7.7      1.916      2.778
REMARK  Name = 
REMARK  8 active torsions:
REMARK  status: ('A' for Active; 'I' for Inactive)
REMARK    1  A    between atoms: C_1  and  C_2
REMARK    2  A    between atoms: C_2  and  C_3
REMARK    3  A    between atoms: C_8  and  C_9
REMARK    4  A    between atoms: C_10  and  C_11
REMARK    5  A    between atoms: C_14  and  S_15
REMARK    6  A    between atoms: S_15  and  C_16
REMARK    7  A    between atoms: C_16  and  C_17
REMARK    8  A    between atoms: C_22  and  C_23
REMARK                            x       y       z     vdW  Elec       q    Type
REMARK                         _______ _______ _______ _____ _____    ______ ____
ROOT
ATOM      1  C   UNL     1       2.540   4.237  20.668  0.00  0.00    +0.000 A 
ATOM      2  C   UNL     1       1.736   5.305  21.077  0.00  0.00    +0.000 A 
ATOM      3  C   UNL     1       1.710   6.496  20.354  0.00  0.00    +0.000 A 
ATOM      4  C   UNL     1       0.967   7.587  20.821  0.00  0.00    +0.000 A 
ATOM      5  C   UNL     1       1.015   8.802  20.152  0.00  0.00    +0.000 A 
ATOM      6  C   UNL     1       1.785   8.939  18.993  0.00  0.00    +0.000 A 
ATOM      7  C   UNL     1       1.848  10.289  18.332  0.00  0.00    +0.000 C 
ATOM      8  C   UNL     1       2.486   7.813  18.489  0.00  0.00    +0.000 A 
ATOM      9  C   UNL     1       3.287   7.891  17.209  0.00  0.00    +0.000 C 
ATOM     10  C   UNL     1       2.476   6.585  19.178  0.00  0.00    +0.000 A 
ATOM     11  N   UNL     1       3.209   5.530  18.746  0.00  0.00    +0.000 NA
ATOM     12  C   UNL     1       3.254   4.389  19.475  0.00  0.00    +0.000 A 
ENDROOT
BRANCH   1  14
ATOM     13  C   UNL     1       1.308   2.427  21.852  0.00  0.00    +0.000 C 
ATOM     14  C   UNL     1       2.672   3.060  21.600  0.00  0.00    +0.000 C 
ENDBRANCH   1  14
BRANCH  12  15
ATOM     15  S   UNL     1       4.340   3.092  18.865  0.00  0.00    +0.000 S 
BRANCH  15  16
ATOM     16  C   UNL     1       4.262   3.386  17.066  0.00  0.00    +0.000 C 
BRANCH  16  17
ATOM     17  C   UNL     1       5.172   4.536  16.643  0.00  0.00    +0.000 C 
ATOM     18  O   UNL     1       5.171   4.921  15.477  0.00  0.00    +0.000 OA
ATOM     19  N   UNL     1       5.874   5.108  17.688  0.00  0.00    +0.000 N 
ATOM     20  C   UNL     1       6.630   6.266  17.588  0.00  0.00    +0.000 A 
ATOM     21  C   UNL     1       7.482   6.746  18.614  0.00  0.00    +0.000 A 
ATOM     22  C   UNL     1       8.011   7.914  18.117  0.00  0.00    +0.000 A 
ATOM     23  C   UNL     1       8.956   8.926  18.621  0.00  0.00    +0.000 C 
ATOM     24  O   UNL     1       7.502   8.130  16.877  0.00  0.00    +0.000 OA
ATOM     25  N   UNL     1       6.644   7.101  16.545  0.00  0.00    +0.000 NA
ATOM     26  H   UNL     1       5.912   4.610  18.566  0.00  0.00    +0.000 HD
ENDBRANCH  16  17
ENDBRANCH  15  16
ENDBRANCH  12  15
TORSDOF 4
ENDMDL
MODEL 7
REMARK VINA RESULT:      -7.6      3.350      5.679
REMARK  Name = 
REMARK  8 active torsions:
REMARK  status: ('A' for Active; 'I' for Inactive)
REMARK    1  A    between atoms: C_1  and  C_2
REMARK    2  A    between atoms: C_2  and  C_3
REMARK    3  A    between atoms: C_8  and  C_9
REMARK    4  A    between atoms: C_10  and  C_11
REMARK    5  A    between atoms: C_14  and  S_15
REMARK    6  A    between atoms: S_15  and  C_16
REMARK    7  A    between atoms: C_16  and  C_17
REMARK    8  A    between atoms: C_22  and  C_23
REMARK                            x       y       z     vdW  Elec       q    Type
REMARK                         _______ _______ _______ _____ _____    ______ ____
ROOT
ATOM      1  C   UNL     1       3.190   7.272  18.004  0.00  0.00    +0.000 A 
ATOM      2  C   UNL     1       2.385   6.976  19.109  0.00  0.00    +0.000 A 
ATOM      3  C   UNL     1       2.471   5.738  19.742  0.00  0.00    +0.000 A 
ATOM      4  C   UNL     1       1.603   5.423  20.793  0.00  0.00    +0.000 A 
ATOM      5  C   UNL     1       1.624   4.157  21.362  0.00  0.00    +0.000 A 
ATOM      6  C   UNL     1       2.532   3.195  20.906  0.00  0.00    +0.000 A 
ATOM      7  C   UNL     1       2.483   1.821  21.517  0.00  0.00    +0.000 C 
ATOM      8  C   UNL     1       3.452   3.540  19.884  0.00  0.00    +0.000 A 
ATOM      9  C   UNL     1       4.491   2.556  19.395  0.00  0.00    +0.000 C 
ATOM     10  C   UNL     1       3.417   4.808  19.272  0.00  0.00    +0.000 A 
ATOM     11  N   UNL     1       4.239   5.115  18.241  0.00  0.00    +0.000 NA
ATOM     12  C   UNL     1       4.123   6.309  17.610  0.00  0.00    +0.000 A 
ENDROOT
BRANCH   1  14
ATOM     13  C   UNL     1       1.787   9.328  17.931  0.00  0.00    +0.000 C 
ATOM     14  C   UNL     1       2.905   8.547  17.249  0.00  0.00    +0.000 C 
ENDBRANCH   1  14
BRANCH  12  15
ATOM     15  S   UNL     1       5.191   6.569  16.187  0.00  0.00    +0.000 S 
BRANCH  15  16
ATOM     16  C   UNL     1       6.775   5.914  16.812  0.00  0.00    +0.000 C 
BRANCH  16  17
ATOM     17  C   UNL     1       7.421   6.865  17.815  0.00  0.00    +0.000 C 
ATOM     18  O   UNL     1       7.847   6.432  18.883  0.00  0.00    +0.000 OA
ATOM     19  N   UNL     1       7.542   8.164  17.358  0.00  0.00    +0.000 N 
ATOM     20  C   UNL     1       8.241   9.168  18.011  0.00  0.00    +0.000 A 
ATOM     21  C   UNL     1       8.214  10.532  17.626  0.00  0.00    +0.000 A 
ATOM     22  C   UNL     1       9.053  11.166  18.513  0.00  0.00    +0.000 A 
ATOM     23  C   UNL     1       9.494  12.557  18.714  0.00  0.00    +0.000 C 
ATOM     24  O   UNL     1       9.561  10.243  19.369  0.00  0.00    +0.000 OA
ATOM     25  N   UNL     1       9.052   8.998  19.059  0.00  0.00    +0.000 NA
ATOM     26  H   UNL     1       7.019   8.431  16.535  0.00  0.00    +0.000 HD
ENDBRANCH  16  17
ENDBRANCH  15  16
ENDBRANCH  12  15
TORSDOF 4
ENDMDL
MODEL 8
REMARK VINA RESULT:      -7.6      4.116      6.540
REMARK  Name = 
REMARK  8 active torsions:
REMARK  status: ('A' for Active; 'I' for Inactive)
REMARK    1  A    between atoms: C_1  and  C_2
REMARK    2  A    between atoms: C_2  and  C_3
REMARK    3  A    between atoms: C_8  and  C_9
REMARK    4  A    between atoms: C_10  and  C_11
REMARK    5  A    between atoms: C_14  and  S_15
REMARK    6  A    between atoms: S_15  and  C_16
REMARK    7  A    between atoms: C_16  and  C_17
REMARK    8  A    between atoms: C_22  and  C_23
REMARK                            x       y       z     vdW  Elec       q    Type
REMARK                         _______ _______ _______ _____ _____    ______ ____
ROOT
ATOM      1  C   UNL     1       5.062   4.935  16.171  0.00  0.00    +0.000 A 
ATOM      2  C   UNL     1       4.370   3.733  16.348  0.00  0.00    +0.000 A 
ATOM      3  C   UNL     1       3.500   3.563  17.423  0.00  0.00    +0.000 A 
ATOM      4  C   UNL     1       2.877   2.327  17.637  0.00  0.00    +0.000 A 
ATOM      5  C   UNL     1       2.085   2.129  18.759  0.00  0.00    +0.000 A 
ATOM      6  C   UNL     1       1.882   3.169  19.672  0.00  0.00    +0.000 A 
ATOM      7  C   UNL     1       1.060   2.891  20.900  0.00  0.00    +0.000 C 
ATOM      8  C   UNL     1       2.464   4.437  19.418  0.00  0.00    +0.000 A 
ATOM      9  C   UNL     1       2.230   5.611  20.342  0.00  0.00    +0.000 C 
ATOM     10  C   UNL     1       3.300   4.643  18.303  0.00  0.00    +0.000 A 
ATOM     11  N   UNL     1       3.924   5.828  18.099  0.00  0.00    +0.000 NA
ATOM     12  C   UNL     1       4.794   5.971  17.071  0.00  0.00    +0.000 A 
ENDROOT
BRANCH   1  14
ATOM     13  C   UNL     1       5.994   3.786  14.169  0.00  0.00    +0.000 C 
ATOM     14  C   UNL     1       6.131   4.980  15.108  0.00  0.00    +0.000 C 
ENDBRANCH   1  14
BRANCH  12  15
ATOM     15  S   UNL     1       5.645   7.551  16.957  0.00  0.00    +0.000 S 
BRANCH  15  16
ATOM     16  C   UNL     1       7.371   7.043  17.259  0.00  0.00    +0.000 C 
BRANCH  16  17
ATOM     17  C   UNL     1       8.099   8.033  18.164  0.00  0.00    +0.000 C 
ATOM     18  O   UNL     1       8.694   7.629  19.159  0.00  0.00    +0.000 OA
ATOM     19  N   UNL     1       8.082   9.335  17.699  0.00  0.00    +0.000 N 
ATOM     20  C   UNL     1       8.810  10.379  18.250  0.00  0.00    +0.000 A 
ATOM     21  C   UNL     1       8.653  11.737  17.878  0.00  0.00    +0.000 A 
ATOM     22  C   UNL     1       9.573  12.420  18.639  0.00  0.00    +0.000 A 
ATOM     23  C   UNL     1       9.961  13.835  18.781  0.00  0.00    +0.000 C 
ATOM     24  O   UNL     1      10.247  11.530  19.412  0.00  0.00    +0.000 OA
ATOM     25  N   UNL     1       9.769  10.258  19.173  0.00  0.00    +0.000 NA
ATOM     26  H   UNL     1       7.434   9.568  16.959  0.00  0.00    +0.000 HD
ENDBRANCH  16  17
ENDBRANCH  15  16
ENDBRANCH  12  15
TORSDOF 4
ENDMDL
MODEL 9
REMARK VINA RESULT:      -7.6      4.455      6.713
REMARK  Name = 
REMARK  8 active torsions:
REMARK  status: ('A' for Active; 'I' for Inactive)
REMARK    1  A    between atoms: C_1  and  C_2
REMARK    2  A    between atoms: C_2  and  C_3
REMARK    3  A    between atoms: C_8  and  C_9
REMARK    4  A    between atoms: C_10  and  C_11
REMARK    5  A    between atoms: C_14  and  S_15
REMARK    6  A    between atoms: S_15  and  C_16
REMARK    7  A    between atoms: C_16  and  C_17
REMARK    8  A    between atoms: C_22  and  C_23
REMARK                            x       y       z     vdW  Elec       q    Type
REMARK                         _______ _______ _______ _____ _____    ______ ____
ROOT
ATOM      1  C   UNL     1       5.873   4.799  16.459  0.00  0.00    +0.000 A 
ATOM      2  C   UNL     1       4.653   4.167  16.195  0.00  0.00    +0.000 A 
ATOM      3  C   UNL     1       3.656   4.109  17.167  0.00  0.00    +0.000 A 
ATOM      4  C   UNL     1       2.473   3.401  16.921  0.00  0.00    +0.000 A 
ATOM      5  C   UNL     1       1.521   3.264  17.921  0.00  0.00    +0.000 A 
ATOM      6  C   UNL     1       1.723   3.852  19.173  0.00  0.00    +0.000 A 
ATOM      7  C   UNL     1       0.688   3.632  20.241  0.00  0.00    +0.000 C 
ATOM      8  C   UNL     1       2.894   4.621  19.397  0.00  0.00    +0.000 A 
ATOM      9  C   UNL     1       3.135   5.326  20.712  0.00  0.00    +0.000 C 
ATOM     10  C   UNL     1       3.886   4.738  18.404  0.00  0.00    +0.000 A 
ATOM     11  N   UNL     1       5.043   5.403  18.640  0.00  0.00    +0.000 NA
ATOM     12  C   UNL     1       6.019   5.424  17.701  0.00  0.00    +0.000 A 
ENDROOT
BRANCH   1  14
ATOM     13  C   UNL     1       6.442   3.983  14.177  0.00  0.00    +0.000 C 
ATOM     14  C   UNL     1       6.974   4.652  15.439  0.00  0.00    +0.000 C 
ENDBRANCH   1  14
BRANCH  12  15
ATOM     15  S   UNL     1       7.552   6.244  18.159  0.00  0.00    +0.000 S 
BRANCH  15  16
ATOM     16  C   UNL     1       7.273   7.915  17.482  0.00  0.00    +0.000 C 
BRANCH  16  17
ATOM     17  C   UNL     1       8.166   8.952  18.157  0.00  0.00    +0.000 C 
ATOM     18  O   UNL     1       8.950   8.605  19.037  0.00  0.00    +0.000 OA
ATOM     19  N   UNL     1       8.054  10.222  17.621  0.00  0.00    +0.000 N 
ATOM     20  C   UNL     1       8.877  11.290  17.947  0.00  0.00    +0.000 A 
ATOM     21  C   UNL     1       8.646  12.624  17.527  0.00  0.00    +0.000 A 
ATOM     22  C   UNL     1       9.699  13.343  18.043  0.00  0.00    +0.000 A 
ATOM     23  C   UNL     1      10.105  14.759  18.012  0.00  0.00    +0.000 C 
ATOM     24  O   UNL     1      10.516  12.497  18.721  0.00  0.00    +0.000 OA
ATOM     25  N   UNL     1      10.002  11.217  18.665  0.00  0.00    +0.000 NA
ATOM     26  H   UNL     1       7.271  10.415  17.013  0.00  0.00    +0.000 HD
ENDBRANCH  16  17
ENDBRANCH  15  16
ENDBRANCH  12  15
TORSDOF 4
ENDMDL
