MODEL 1
REMARK VINA RESULT:      -9.7      0.000      0.000
REMARK  Name = 
REMARK  4 active torsions:
REMARK  status: ('A' for Active; 'I' for Inactive)
REMARK    1  A    between atoms: N_3  and  C_4
REMARK    2  A    between atoms: C_9  and  C_10
REMARK    3  A    between atoms: C_13  and  C_14
REMARK    4  A    between atoms: N_22  and  C_23
REMARK                            x       y       z     vdW  Elec       q    Type
REMARK                         _______ _______ _______ _____ _____    ______ ____
ROOT
ATOM      1  C   UNL     1       2.318   5.553  20.116  0.00  0.00    +0.000 A 
ATOM      2  C   UNL     1       1.439   4.470  20.030  0.00  0.00    +0.000 A 
ATOM      3  C   UNL     1       1.717   3.388  19.196  0.00  0.00    +0.000 A 
ATOM      4  C   UNL     1       2.878   3.383  18.436  0.00  0.00    +0.000 A 
ATOM      5  F   UNL     1       3.113   2.309  17.667  0.00  0.00    +0.000 F 
ATOM      6  C   UNL     1       3.774   4.456  18.476  0.00  0.00    +0.000 A 
ATOM      7  C   UNL     1       3.467   5.552  19.311  0.00  0.00    +0.000 A 
ENDROOT
BRANCH   1  10
ATOM      8  O   UNL     1       1.170   8.146  19.532  0.00  0.00    +0.000 OA
ATOM      9  C   UNL     1       1.557   7.860  20.660  0.00  0.00    +0.000 C 
ATOM     10  N   UNL     1       2.128   6.642  21.000  0.00  0.00    +0.000 N 
ATOM     11  N   UNL     1       1.439   8.699  21.751  0.00  0.00    +0.000 N 
ATOM     12  H   UNL     1       2.217   6.447  21.986  0.00  0.00    +0.000 HD
ATOM     13  H   UNL     1       1.925   8.447  22.601  0.00  0.00    +0.000 HD
BRANCH  11  14
ATOM     14  C   UNL     1       0.781   9.954  21.779  0.00  0.00    +0.000 A 
ATOM     15  C   UNL     1       1.116  11.035  20.955  0.00  0.00    +0.000 A 
ATOM     16  C   UNL     1       0.420  12.244  21.052  0.00  0.00    +0.000 A 
ATOM     17  C   UNL     1      -0.621  12.371  21.965  0.00  0.00    +0.000 A 
ATOM     18  F   UNL     1      -1.278  13.532  22.055  0.00  0.00    +0.000 F 
ATOM     19  C   UNL     1      -0.984  11.311  22.780  0.00  0.00    +0.000 A 
ATOM     20  C   UNL     1      -0.280  10.113  22.680  0.00  0.00    +0.000 A 
ATOM     21  F   UNL     1      -0.636   9.084  23.466  0.00  0.00    +0.000 F 
ENDBRANCH  11  14
ENDBRANCH   1  10
BRANCH   6  22
ATOM     22  C   UNL     1       5.015   4.457  17.720  0.00  0.00    +0.000 A 
ATOM     23  N   UNL     1       6.262   4.475  18.148  0.00  0.00    +0.000 NA
ATOM     24  N   UNL     1       7.063   4.444  17.025  0.00  0.00    +0.000 NA
ATOM     25  C   UNL     1       6.252   4.414  15.986  0.00  0.00    +0.000 A 
ATOM     26  O   UNL     1       4.934   4.415  16.354  0.00  0.00    +0.000 OA
BRANCH  25  27
ATOM     27  C   UNL     1       6.548   4.427  14.560  0.00  0.00    +0.000 A 
ATOM     28  C   UNL     1       5.853   3.560  13.703  0.00  0.00    +0.000 A 
ATOM     29  C   UNL     1       6.164   3.498  12.343  0.00  0.00    +0.000 A 
ATOM     30  C   UNL     1       7.170   4.308  11.821  0.00  0.00    +0.000 A 
ATOM     31  C   UNL     1       7.851   5.195  12.651  0.00  0.00    +0.000 A 
ATOM     32  C   UNL     1       7.540   5.257  14.013  0.00  0.00    +0.000 A 
ENDBRANCH  25  27
ENDBRANCH   6  22
TORSDOF 4
ENDMDL
MODEL 2
REMARK VINA RESULT:      -9.5      0.644      1.091
REMARK  Name = 
REMARK  4 active torsions:
REMARK  status: ('A' for Active; 'I' for Inactive)
REMARK    1  A    between atoms: N_3  and  C_4
REMARK    2  A    between atoms: C_9  and  C_10
REMARK    3  A    between atoms: C_13  and  C_14
REMARK    4  A    between atoms: N_22  and  C_23
REMARK                            x       y       z     vdW  Elec       q    Type
REMARK                         _______ _______ _______ _____ _____    ______ ____
ROOT
ATOM      1  C   UNL     1       2.528   4.914  20.274  0.00  0.00    +0.000 A 
ATOM      2  C   UNL     1       1.889   3.672  20.301  0.00  0.00    +0.000 A 
ATOM      3  C   UNL     1       2.362   2.609  19.533  0.00  0.00    +0.000 A 
ATOM      4  C   UNL     1       3.479   2.782  18.729  0.00  0.00    +0.000 A 
ATOM      5  F   UNL     1       3.910   1.721  18.027  0.00  0.00    +0.000 F 
ATOM      6  C   UNL     1       4.136   4.014  18.657  0.00  0.00    +0.000 A 
ATOM      7  C   UNL     1       3.631   5.085  19.425  0.00  0.00    +0.000 A 
ENDROOT
BRANCH   1  10
ATOM      8  O   UNL     1       1.739   7.571  19.436  0.00  0.00    +0.000 OA
ATOM      9  C   UNL     1       1.759   7.257  20.622  0.00  0.00    +0.000 C 
ATOM     10  N   UNL     1       2.141   6.007  21.087  0.00  0.00    +0.000 N 
ATOM     11  N   UNL     1       1.366   8.094  21.647  0.00  0.00    +0.000 N 
ATOM     12  H   UNL     1       1.923   5.801  22.051  0.00  0.00    +0.000 HD
ATOM     13  H   UNL     1       1.565   7.810  22.597  0.00  0.00    +0.000 HD
BRANCH  11  14
ATOM     14  C   UNL     1       0.794   9.384  21.508  0.00  0.00    +0.000 A 
ATOM     15  C   UNL     1       0.941  10.190  20.373  0.00  0.00    +0.000 A 
ATOM     16  C   UNL     1       0.349  11.455  20.320  0.00  0.00    +0.000 A 
ATOM     17  C   UNL     1      -0.401  11.913  21.397  0.00  0.00    +0.000 A 
ATOM     18  F   UNL     1      -0.960  13.126  21.341  0.00  0.00    +0.000 F 
ATOM     19  C   UNL     1      -0.576  11.128  22.526  0.00  0.00    +0.000 A 
ATOM     20  C   UNL     1       0.022   9.871  22.571  0.00  0.00    +0.000 A 
ATOM     21  F   UNL     1      -0.152   9.109  23.662  0.00  0.00    +0.000 F 
ENDBRANCH  11  14
ENDBRANCH   1  10
BRANCH   6  22
ATOM     22  C   UNL     1       5.330   4.210  17.852  0.00  0.00    +0.000 A 
ATOM     23  N   UNL     1       6.566   4.468  18.229  0.00  0.00    +0.000 NA
ATOM     24  N   UNL     1       7.321   4.540  17.076  0.00  0.00    +0.000 NA
ATOM     25  C   UNL     1       6.495   4.323  16.072  0.00  0.00    +0.000 A 
ATOM     26  O   UNL     1       5.211   4.101  16.492  0.00  0.00    +0.000 OA
BRANCH  25  27
ATOM     27  C   UNL     1       6.736   4.334  14.636  0.00  0.00    +0.000 A 
ATOM     28  C   UNL     1       7.653   5.250  14.097  0.00  0.00    +0.000 A 
ATOM     29  C   UNL     1       7.853   5.335  12.718  0.00  0.00    +0.000 A 
ATOM     30  C   UNL     1       7.142   4.500  11.858  0.00  0.00    +0.000 A 
ATOM     31  C   UNL     1       6.248   3.567  12.377  0.00  0.00    +0.000 A 
ATOM     32  C   UNL     1       6.047   3.481  13.758  0.00  0.00    +0.000 A 
ENDBRANCH  25  27
ENDBRANCH   6  22
TORSDOF 4
ENDMDL
MODEL 3
REMARK VINA RESULT:      -9.4      1.718      1.833
REMARK  Name = 
REMARK  4 active torsions:
REMARK  status: ('A' for Active; 'I' for Inactive)
REMARK    1  A    between atoms: N_3  and  C_4
REMARK    2  A    between atoms: C_9  and  C_10
REMARK    3  A    between atoms: C_13  and  C_14
REMARK    4  A    between atoms: N_22  and  C_23
REMARK                            x       y       z     vdW  Elec       q    Type
REMARK                         _______ _______ _______ _____ _____    ______ ____
ROOT
ATOM      1  C   UNL     1       2.231   6.039  20.037  0.00  0.00    +0.000 A 
ATOM      2  C   UNL     1       1.566   4.873  20.424  0.00  0.00    +0.000 A 
ATOM      3  C   UNL     1       2.034   3.620  20.032  0.00  0.00    +0.000 A 
ATOM      4  C   UNL     1       3.172   3.524  19.244  0.00  0.00    +0.000 A 
ATOM      5  F   UNL     1       3.596   2.294  18.912  0.00  0.00    +0.000 F 
ATOM      6  C   UNL     1       3.855   4.666  18.817  0.00  0.00    +0.000 A 
ATOM      7  C   UNL     1       3.355   5.928  19.206  0.00  0.00    +0.000 A 
ENDROOT
BRANCH   1  10
ATOM      8  O   UNL     1       1.839   8.411  18.423  0.00  0.00    +0.000 OA
ATOM      9  C   UNL     1       1.664   8.431  19.637  0.00  0.00    +0.000 C 
ATOM     10  N   UNL     1       1.848   7.333  20.466  0.00  0.00    +0.000 N 
ATOM     11  N   UNL     1       1.220   9.537  20.334  0.00  0.00    +0.000 N 
ATOM     12  H   UNL     1       1.479   7.410  21.402  0.00  0.00    +0.000 HD
ATOM     13  H   UNL     1       1.256   9.510  21.344  0.00  0.00    +0.000 HD
BRANCH  11  14
ATOM     14  C   UNL     1       0.807  10.773  19.776  0.00  0.00    +0.000 A 
ATOM     15  C   UNL     1       1.614  11.915  19.715  0.00  0.00    +0.000 A 
ATOM     16  C   UNL     1       1.127  13.099  19.153  0.00  0.00    +0.000 A 
ATOM     17  C   UNL     1      -0.164  13.140  18.639  0.00  0.00    +0.000 A 
ATOM     18  F   UNL     1      -0.625  14.277  18.108  0.00  0.00    +0.000 F 
ATOM     19  C   UNL     1      -0.978  12.019  18.671  0.00  0.00    +0.000 A 
ATOM     20  C   UNL     1      -0.485  10.846  19.238  0.00  0.00    +0.000 A 
ATOM     21  F   UNL     1      -1.271   9.758  19.264  0.00  0.00    +0.000 F 
ENDBRANCH  11  14
ENDBRANCH   1  10
BRANCH   6  22
ATOM     22  C   UNL     1       5.070   4.591  18.023  0.00  0.00    +0.000 A 
ATOM     23  N   UNL     1       6.328   4.546  18.414  0.00  0.00    +0.000 NA
ATOM     24  N   UNL     1       7.092   4.458  17.267  0.00  0.00    +0.000 NA
ATOM     25  C   UNL     1       6.249   4.459  16.254  0.00  0.00    +0.000 A 
ATOM     26  O   UNL     1       4.944   4.536  16.661  0.00  0.00    +0.000 OA
BRANCH  25  27
ATOM     27  C   UNL     1       6.501   4.439  14.819  0.00  0.00    +0.000 A 
ATOM     28  C   UNL     1       5.737   3.597  13.996  0.00  0.00    +0.000 A 
ATOM     29  C   UNL     1       6.002   3.502  12.628  0.00  0.00    +0.000 A 
ATOM     30  C   UNL     1       7.031   4.252  12.064  0.00  0.00    +0.000 A 
ATOM     31  C   UNL     1       7.783   5.112  12.861  0.00  0.00    +0.000 A 
ATOM     32  C   UNL     1       7.517   5.208  14.231  0.00  0.00    +0.000 A 
ENDBRANCH  25  27
ENDBRANCH   6  22
TORSDOF 4
ENDMDL
MODEL 4
REMARK VINA RESULT:      -9.2      1.731      1.959
REMARK  Name = 
REMARK  4 active torsions:
REMARK  status: ('A' for Active; 'I' for Inactive)
REMARK    1  A    between atoms: N_3  and  C_4
REMARK    2  A    between atoms: C_9  and  C_10
REMARK    3  A    between atoms: C_13  and  C_14
REMARK    4  A    between atoms: N_22  and  C_23
REMARK                            x       y       z     vdW  Elec       q    Type
REMARK                         _______ _______ _______ _____ _____    ______ ____
ROOT
ATOM      1  C   UNL     1       2.601   5.763  20.160  0.00  0.00    +0.000 A 
ATOM      2  C   UNL     1       2.126   4.554  20.674  0.00  0.00    +0.000 A 
ATOM      3  C   UNL     1       2.737   3.346  20.336  0.00  0.00    +0.000 A 
ATOM      4  C   UNL     1       3.827   3.340  19.478  0.00  0.00    +0.000 A 
ATOM      5  F   UNL     1       4.394   2.154  19.203  0.00  0.00    +0.000 F 
ATOM      6  C   UNL     1       4.320   4.525  18.925  0.00  0.00    +0.000 A 
ATOM      7  C   UNL     1       3.677   5.736  19.261  0.00  0.00    +0.000 A 
ENDROOT
BRANCH   1  10
ATOM      8  O   UNL     1       1.896   7.972  18.425  0.00  0.00    +0.000 OA
ATOM      9  C   UNL     1       1.741   8.042  19.640  0.00  0.00    +0.000 C 
ATOM     10  N   UNL     1       2.072   7.025  20.524  0.00  0.00    +0.000 N 
ATOM     11  N   UNL     1       1.179   9.126  20.284  0.00  0.00    +0.000 N 
ATOM     12  H   UNL     1       1.714   7.113  21.463  0.00  0.00    +0.000 HD
ATOM     13  H   UNL     1       1.237   9.164  21.292  0.00  0.00    +0.000 HD
BRANCH  11  14
ATOM     14  C   UNL     1       0.610  10.268  19.667  0.00  0.00    +0.000 A 
ATOM     15  C   UNL     1      -0.417  10.219  18.718  0.00  0.00    +0.000 A 
ATOM     16  C   UNL     1      -0.919  11.395  18.152  0.00  0.00    +0.000 A 
ATOM     17  C   UNL     1      -0.402  12.625  18.544  0.00  0.00    +0.000 A 
ATOM     18  F   UNL     1      -0.883  13.745  17.995  0.00  0.00    +0.000 F 
ATOM     19  C   UNL     1       0.603  12.703  19.495  0.00  0.00    +0.000 A 
ATOM     20  C   UNL     1       1.099  11.525  20.048  0.00  0.00    +0.000 A 
ATOM     21  F   UNL     1       2.069  11.602  20.973  0.00  0.00    +0.000 F 
ENDBRANCH  11  14
ENDBRANCH   1  10
BRANCH   6  22
ATOM     22  C   UNL     1       5.483   4.549  18.054  0.00  0.00    +0.000 A 
ATOM     23  N   UNL     1       6.763   4.624  18.362  0.00  0.00    +0.000 NA
ATOM     24  N   UNL     1       7.456   4.589  17.169  0.00  0.00    +0.000 NA
ATOM     25  C   UNL     1       6.552   4.498  16.213  0.00  0.00    +0.000 A 
ATOM     26  O   UNL     1       5.275   4.462  16.704  0.00  0.00    +0.000 OA
BRANCH  25  27
ATOM     27  C   UNL     1       6.712   4.479  14.765  0.00  0.00    +0.000 A 
ATOM     28  C   UNL     1       5.944   3.590  13.997  0.00  0.00    +0.000 A 
ATOM     29  C   UNL     1       6.125   3.498  12.616  0.00  0.00    +0.000 A 
ATOM     30  C   UNL     1       7.073   4.298  11.983  0.00  0.00    +0.000 A 
ATOM     31  C   UNL     1       7.826   5.205  12.725  0.00  0.00    +0.000 A 
ATOM     32  C   UNL     1       7.644   5.298  14.108  0.00  0.00    +0.000 A 
ENDBRANCH  25  27
ENDBRANCH   6  22
TORSDOF 4
ENDMDL
MODEL 5
REMARK VINA RESULT:      -9.0      1.404      1.737
REMARK  Name = 
REMARK  4 active torsions:
REMARK  status: ('A' for Active; 'I' for Inactive)
REMARK    1  A    between atoms: N_3  and  C_4
REMARK    2  A    between atoms: C_9  and  C_10
REMARK    3  A    between atoms: C_13  and  C_14
REMARK    4  A    between atoms: N_22  and  C_23
REMARK                            x       y       z     vdW  Elec       q    Type
REMARK                         _______ _______ _______ _____ _____    ______ ____
ROOT
ATOM      1  C   UNL     1       2.504   6.558  19.493  0.00  0.00    +0.000 A 
ATOM      2  C   UNL     1       2.101   5.569  20.393  0.00  0.00    +0.000 A 
ATOM      3  C   UNL     1       2.784   4.355  20.472  0.00  0.00    +0.000 A 
ATOM      4  C   UNL     1       3.874   4.122  19.646  0.00  0.00    +0.000 A 
ATOM      5  F   UNL     1       4.512   2.948  19.776  0.00  0.00    +0.000 F 
ATOM      6  C   UNL     1       4.296   5.077  18.717  0.00  0.00    +0.000 A 
ATOM      7  C   UNL     1       3.581   6.291  18.636  0.00  0.00    +0.000 A 
ENDROOT
BRANCH   1  10
ATOM      8  O   UNL     1       1.176   8.028  21.605  0.00  0.00    +0.000 OA
ATOM      9  C   UNL     1       1.287   8.496  20.477  0.00  0.00    +0.000 C 
ATOM     10  N   UNL     1       1.899   7.837  19.420  0.00  0.00    +0.000 N 
ATOM     11  N   UNL     1       0.854   9.757  20.119  0.00  0.00    +0.000 N 
ATOM     12  H   UNL     1       2.112   8.394  18.607  0.00  0.00    +0.000 HD
ATOM     13  H   UNL     1       0.843   9.997  19.137  0.00  0.00    +0.000 HD
BRANCH  11  14
ATOM     14  C   UNL     1       0.314  10.739  20.988  0.00  0.00    +0.000 A 
ATOM     15  C   UNL     1      -0.547  10.456  22.054  0.00  0.00    +0.000 A 
ATOM     16  C   UNL     1      -1.042  11.486  22.860  0.00  0.00    +0.000 A 
ATOM     17  C   UNL     1      -0.667  12.800  22.609  0.00  0.00    +0.000 A 
ATOM     18  F   UNL     1      -1.148  13.780  23.381  0.00  0.00    +0.000 F 
ATOM     19  C   UNL     1       0.198  13.106  21.571  0.00  0.00    +0.000 A 
ATOM     20  C   UNL     1       0.681  12.073  20.770  0.00  0.00    +0.000 A 
ATOM     21  F   UNL     1       1.524  12.370  19.768  0.00  0.00    +0.000 F 
ENDBRANCH  11  14
ENDBRANCH   1  10
BRANCH   6  22
ATOM     22  C   UNL     1       5.458   4.872  17.868  0.00  0.00    +0.000 A 
ATOM     23  N   UNL     1       6.724   4.713  18.199  0.00  0.00    +0.000 NA
ATOM     24  N   UNL     1       7.418   4.532  17.019  0.00  0.00    +0.000 NA
ATOM     25  C   UNL     1       6.529   4.597  16.047  0.00  0.00    +0.000 A 
ATOM     26  O   UNL     1       5.260   4.806  16.515  0.00  0.00    +0.000 OA
BRANCH  25  27
ATOM     27  C   UNL     1       6.707   4.528  14.603  0.00  0.00    +0.000 A 
ATOM     28  C   UNL     1       5.938   3.622  13.856  0.00  0.00    +0.000 A 
ATOM     29  C   UNL     1       6.136   3.482  12.481  0.00  0.00    +0.000 A 
ATOM     30  C   UNL     1       7.100   4.251  11.833  0.00  0.00    +0.000 A 
ATOM     31  C   UNL     1       7.853   5.174  12.554  0.00  0.00    +0.000 A 
ATOM     32  C   UNL     1       7.656   5.315  13.932  0.00  0.00    +0.000 A 
ENDBRANCH  25  27
ENDBRANCH   6  22
TORSDOF 4
ENDMDL
MODEL 6
REMARK VINA RESULT:      -8.9      0.909      1.264
REMARK  Name = 
REMARK  4 active torsions:
REMARK  status: ('A' for Active; 'I' for Inactive)
REMARK    1  A    between atoms: N_3  and  C_4
REMARK    2  A    between atoms: C_9  and  C_10
REMARK    3  A    between atoms: C_13  and  C_14
REMARK    4  A    between atoms: N_22  and  C_23
REMARK                            x       y       z     vdW  Elec       q    Type
REMARK                         _______ _______ _______ _____ _____    ______ ____
ROOT
ATOM      1  C   UNL     1       2.368   5.761  20.080  0.00  0.00    +0.000 A 
ATOM      2  C   UNL     1       1.563   4.623  19.987  0.00  0.00    +0.000 A 
ATOM      3  C   UNL     1       1.869   3.604  19.086  0.00  0.00    +0.000 A 
ATOM      4  C   UNL     1       2.984   3.718  18.267  0.00  0.00    +0.000 A 
ATOM      5  F   UNL     1       3.249   2.700  17.434  0.00  0.00    +0.000 F 
ATOM      6  C   UNL     1       3.803   4.850  18.314  0.00  0.00    +0.000 A 
ATOM      7  C   UNL     1       3.467   5.881  19.218  0.00  0.00    +0.000 A 
ENDROOT
BRANCH   1  10
ATOM      8  O   UNL     1       0.786   8.167  19.770  0.00  0.00    +0.000 OA
ATOM      9  C   UNL     1       1.368   7.919  20.820  0.00  0.00    +0.000 C 
ATOM     10  N   UNL     1       2.152   6.792  21.027  0.00  0.00    +0.000 N 
ATOM     11  N   UNL     1       1.288   8.707  21.951  0.00  0.00    +0.000 N 
ATOM     12  H   UNL     1       2.408   6.592  21.982  0.00  0.00    +0.000 HD
ATOM     13  H   UNL     1       1.922   8.514  22.714  0.00  0.00    +0.000 HD
BRANCH  11  14
ATOM     14  C   UNL     1       0.468   9.851  22.122  0.00  0.00    +0.000 A 
ATOM     15  C   UNL     1      -0.585   9.932  23.041  0.00  0.00    +0.000 A 
ATOM     16  C   UNL     1      -1.352  11.097  23.142  0.00  0.00    +0.000 A 
ATOM     17  C   UNL     1      -1.059  12.188  22.333  0.00  0.00    +0.000 A 
ATOM     18  F   UNL     1      -1.800  13.297  22.432  0.00  0.00    +0.000 F 
ATOM     19  C   UNL     1      -0.011  12.141  21.428  0.00  0.00    +0.000 A 
ATOM     20  C   UNL     1       0.743  10.974  21.331  0.00  0.00    +0.000 A 
ATOM     21  F   UNL     1       1.761  10.930  20.457  0.00  0.00    +0.000 F 
ENDBRANCH  11  14
ENDBRANCH   1  10
BRANCH   6  22
ATOM     22  C   UNL     1       4.997   4.976  17.495  0.00  0.00    +0.000 A 
ATOM     23  N   UNL     1       6.204   5.391  17.825  0.00  0.00    +0.000 NA
ATOM     24  N   UNL     1       6.977   5.297  16.686  0.00  0.00    +0.000 NA
ATOM     25  C   UNL     1       6.189   4.834  15.735  0.00  0.00    +0.000 A 
ATOM     26  O   UNL     1       4.915   4.602  16.181  0.00  0.00    +0.000 OA
BRANCH  25  27
ATOM     27  C   UNL     1       6.458   4.590  14.325  0.00  0.00    +0.000 A 
ATOM     28  C   UNL     1       5.707   3.625  13.636  0.00  0.00    +0.000 A 
ATOM     29  C   UNL     1       5.989   3.318  12.303  0.00  0.00    +0.000 A 
ATOM     30  C   UNL     1       7.022   3.976  11.640  0.00  0.00    +0.000 A 
ATOM     31  C   UNL     1       7.760   4.955  12.300  0.00  0.00    +0.000 A 
ATOM     32  C   UNL     1       7.478   5.263  13.634  0.00  0.00    +0.000 A 
ENDBRANCH  25  27
ENDBRANCH   6  22
TORSDOF 4
ENDMDL
MODEL 7
REMARK VINA RESULT:      -8.7      2.187      2.495
REMARK  Name = 
REMARK  4 active torsions:
REMARK  status: ('A' for Active; 'I' for Inactive)
REMARK    1  A    between atoms: N_3  and  C_4
REMARK    2  A    between atoms: C_9  and  C_10
REMARK    3  A    between atoms: C_13  and  C_14
REMARK    4  A    between atoms: N_22  and  C_23
REMARK                            x       y       z     vdW  Elec       q    Type
REMARK                         _______ _______ _______ _____ _____    ______ ____
ROOT
ATOM      1  C   UNL     1       2.474   7.224  18.566  0.00  0.00    +0.000 A 
ATOM      2  C   UNL     1       2.133   6.531  19.730  0.00  0.00    +0.000 A 
ATOM      3  C   UNL     1       2.883   5.434  20.153  0.00  0.00    +0.000 A 
ATOM      4  C   UNL     1       3.980   5.021  19.411  0.00  0.00    +0.000 A 
ATOM      5  F   UNL     1       4.684   3.975  19.873  0.00  0.00    +0.000 F 
ATOM      6  C   UNL     1       4.343   5.674  18.229  0.00  0.00    +0.000 A 
ATOM      7  C   UNL     1       3.560   6.769  17.805  0.00  0.00    +0.000 A 
ENDROOT
BRANCH   1  10
ATOM      8  O   UNL     1       1.219   9.275  20.180  0.00  0.00    +0.000 OA
ATOM      9  C   UNL     1       1.226   9.344  18.955  0.00  0.00    +0.000 C 
ATOM     10  N   UNL     1       1.797   8.388  18.127  0.00  0.00    +0.000 N 
ATOM     11  N   UNL     1       0.702  10.403  18.240  0.00  0.00    +0.000 N 
ATOM     12  H   UNL     1       1.924   8.649  17.161  0.00  0.00    +0.000 HD
ATOM     13  H   UNL     1       0.609  10.302  17.238  0.00  0.00    +0.000 HD
BRANCH  11  14
ATOM     14  C   UNL     1       0.171  11.601  18.779  0.00  0.00    +0.000 A 
ATOM     15  C   UNL     1       0.914  12.772  18.973  0.00  0.00    +0.000 A 
ATOM     16  C   UNL     1       0.314  13.911  19.518  0.00  0.00    +0.000 A 
ATOM     17  C   UNL     1      -1.033  13.887  19.858  0.00  0.00    +0.000 A 
ATOM     18  F   UNL     1      -1.599  14.979  20.383  0.00  0.00    +0.000 F 
ATOM     19  C   UNL     1      -1.796  12.747  19.659  0.00  0.00    +0.000 A 
ATOM     20  C   UNL     1      -1.187  11.615  19.121  0.00  0.00    +0.000 A 
ATOM     21  F   UNL     1      -1.928  10.513  18.924  0.00  0.00    +0.000 F 
ENDBRANCH  11  14
ENDBRANCH   1  10
BRANCH   6  22
ATOM     22  C   UNL     1       5.509   5.284  17.455  0.00  0.00    +0.000 A 
ATOM     23  N   UNL     1       6.739   5.030  17.857  0.00  0.00    +0.000 NA
ATOM     24  N   UNL     1       7.456   4.683  16.730  0.00  0.00    +0.000 NA
ATOM     25  C   UNL     1       6.617   4.751  15.716  0.00  0.00    +0.000 A 
ATOM     26  O   UNL     1       5.358   5.123  16.105  0.00  0.00    +0.000 OA
BRANCH  25  27
ATOM     27  C   UNL     1       6.843   4.543  14.292  0.00  0.00    +0.000 A 
ATOM     28  C   UNL     1       7.753   5.365  13.610  0.00  0.00    +0.000 A 
ATOM     29  C   UNL     1       7.938   5.238  12.232  0.00  0.00    +0.000 A 
ATOM     30  C   UNL     1       7.220   4.281  11.518  0.00  0.00    +0.000 A 
ATOM     31  C   UNL     1       6.333   3.438  12.183  0.00  0.00    +0.000 A 
ATOM     32  C   UNL     1       6.147   3.566  13.563  0.00  0.00    +0.000 A 
ENDBRANCH  25  27
ENDBRANCH   6  22
TORSDOF 4
ENDMDL
MODEL 8
REMARK VINA RESULT:      -8.6      1.825      2.352
REMARK  Name = 
REMARK  4 active torsions:
REMARK  status: ('A' for Active; 'I' for Inactive)
REMARK    1  A    between atoms: N_3  and  C_4
REMARK    2  A    between atoms: C_9  and  C_10
REMARK    3  A    between atoms: C_13  and  C_14
REMARK    4  A    between atoms: N_22  and  C_23
REMARK                            x       y       z     vdW  Elec       q    Type
REMARK                         _______ _______ _______ _____ _____    ______ ____
ROOT
ATOM      1  C   UNL     1       2.301   6.376  19.748  0.00  0.00    +0.000 A 
ATOM      2  C   UNL     1       1.522   5.259  20.062  0.00  0.00    +0.000 A 
ATOM      3  C   UNL     1       1.889   3.987  19.623  0.00  0.00    +0.000 A 
ATOM      4  C   UNL     1       3.038   3.824  18.863  0.00  0.00    +0.000 A 
ATOM      5  F   UNL     1       3.361   2.577  18.485  0.00  0.00    +0.000 F 
ATOM      6  C   UNL     1       3.833   4.918  18.509  0.00  0.00    +0.000 A 
ATOM      7  C   UNL     1       3.436   6.200  18.944  0.00  0.00    +0.000 A 
ENDROOT
BRANCH   1  10
ATOM      8  O   UNL     1       1.395   8.676  18.241  0.00  0.00    +0.000 OA
ATOM      9  C   UNL     1       1.576   8.740  19.453  0.00  0.00    +0.000 C 
ATOM     10  N   UNL     1       2.022   7.679  20.228  0.00  0.00    +0.000 N 
ATOM     11  N   UNL     1       1.321   9.864  20.212  0.00  0.00    +0.000 N 
ATOM     12  H   UNL     1       1.937   7.786  21.227  0.00  0.00    +0.000 HD
ATOM     13  H   UNL     1       1.648   9.878  21.169  0.00  0.00    +0.000 HD
BRANCH  11  14
ATOM     14  C   UNL     1       0.732  11.071  19.758  0.00  0.00    +0.000 A 
ATOM     15  C   UNL     1      -0.548  11.506  20.122  0.00  0.00    +0.000 A 
ATOM     16  C   UNL     1      -1.059  12.707  19.622  0.00  0.00    +0.000 A 
ATOM     17  C   UNL     1      -0.286  13.483  18.766  0.00  0.00    +0.000 A 
ATOM     18  F   UNL     1      -0.783  14.629  18.288  0.00  0.00    +0.000 F 
ATOM     19  C   UNL     1       0.991  13.084  18.403  0.00  0.00    +0.000 A 
ATOM     20  C   UNL     1       1.488  11.883  18.902  0.00  0.00    +0.000 A 
ATOM     21  F   UNL     1       2.727  11.499  18.554  0.00  0.00    +0.000 F 
ENDBRANCH  11  14
ENDBRANCH   1  10
BRANCH   6  22
ATOM     22  C   UNL     1       5.061   4.768  17.746  0.00  0.00    +0.000 A 
ATOM     23  N   UNL     1       6.311   4.729  18.163  0.00  0.00    +0.000 NA
ATOM     24  N   UNL     1       7.094   4.550  17.040  0.00  0.00    +0.000 NA
ATOM     25  C   UNL     1       6.269   4.495  16.012  0.00  0.00    +0.000 A 
ATOM     26  O   UNL     1       4.959   4.621  16.389  0.00  0.00    +0.000 OA
BRANCH  25  27
ATOM     27  C   UNL     1       6.547   4.372  14.588  0.00  0.00    +0.000 A 
ATOM     28  C   UNL     1       7.532   5.183  14.005  0.00  0.00    +0.000 A 
ATOM     29  C   UNL     1       7.772   5.140  12.630  0.00  0.00    +0.000 A 
ATOM     30  C   UNL     1       7.034   4.279  11.820  0.00  0.00    +0.000 A 
ATOM     31  C   UNL     1       6.071   3.448  12.386  0.00  0.00    +0.000 A 
ATOM     32  C   UNL     1       5.830   3.490  13.763  0.00  0.00    +0.000 A 
ENDBRANCH  25  27
ENDBRANCH   6  22
TORSDOF 4
ENDMDL
MODEL 9
REMARK VINA RESULT:      -8.6      2.422      2.772
REMARK  Name = 
REMARK  4 active torsions:
REMARK  status: ('A' for Active; 'I' for Inactive)
REMARK    1  A    between atoms: N_3  and  C_4
REMARK    2  A    between atoms: C_9  and  C_10
REMARK    3  A    between atoms: C_13  and  C_14
REMARK    4  A    between atoms: N_22  and  C_23
REMARK                            x       y       z     vdW  Elec       q    Type
REMARK                         _______ _______ _______ _____ _____    ______ ____
ROOT
ATOM      1  C   UNL     1       2.425   7.485  18.572  0.00  0.00    +0.000 A 
ATOM      2  C   UNL     1       2.103   6.808  19.751  0.00  0.00    +0.000 A 
ATOM      3  C   UNL     1       2.855   5.713  20.174  0.00  0.00    +0.000 A 
ATOM      4  C   UNL     1       3.936   5.284  19.416  0.00  0.00    +0.000 A 
ATOM      5  F   UNL     1       4.643   4.240  19.878  0.00  0.00    +0.000 F 
ATOM      6  C   UNL     1       4.278   5.920  18.219  0.00  0.00    +0.000 A 
ATOM      7  C   UNL     1       3.493   7.014  17.796  0.00  0.00    +0.000 A 
ENDROOT
BRANCH   1  10
ATOM      8  O   UNL     1       1.202   9.557  20.183  0.00  0.00    +0.000 OA
ATOM      9  C   UNL     1       1.191   9.614  18.958  0.00  0.00    +0.000 C 
ATOM     10  N   UNL     1       1.746   8.647  18.132  0.00  0.00    +0.000 N 
ATOM     11  N   UNL     1       0.661  10.667  18.240  0.00  0.00    +0.000 N 
ATOM     12  H   UNL     1       1.859   8.898  17.161  0.00  0.00    +0.000 HD
ATOM     13  H   UNL     1       0.552  10.556  17.241  0.00  0.00    +0.000 HD
BRANCH  11  14
ATOM     14  C   UNL     1       0.142  11.873  18.774  0.00  0.00    +0.000 A 
ATOM     15  C   UNL     1      -1.108  11.985  19.394  0.00  0.00    +0.000 A 
ATOM     16  C   UNL     1      -1.548  13.216  19.889  0.00  0.00    +0.000 A 
ATOM     17  C   UNL     1      -0.733  14.336  19.777  0.00  0.00    +0.000 A 
ATOM     18  F   UNL     1      -1.162  15.512  20.249  0.00  0.00    +0.000 F 
ATOM     19  C   UNL     1       0.516  14.250  19.184  0.00  0.00    +0.000 A 
ATOM     20  C   UNL     1       0.943  13.020  18.689  0.00  0.00    +0.000 A 
ATOM     21  F   UNL     1       2.156  12.935  18.119  0.00  0.00    +0.000 F 
ENDBRANCH  11  14
ENDBRANCH   1  10
BRANCH   6  22
ATOM     22  C   UNL     1       5.428   5.514  17.428  0.00  0.00    +0.000 A 
ATOM     23  N   UNL     1       6.675   5.305  17.802  0.00  0.00    +0.000 NA
ATOM     24  N   UNL     1       7.363   4.915  16.670  0.00  0.00    +0.000 NA
ATOM     25  C   UNL     1       6.490   4.915  15.682  0.00  0.00    +0.000 A 
ATOM     26  O   UNL     1       5.237   5.281  16.093  0.00  0.00    +0.000 OA
BRANCH  25  27
ATOM     27  C   UNL     1       6.675   4.638  14.264  0.00  0.00    +0.000 A 
ATOM     28  C   UNL     1       5.878   3.664  13.642  0.00  0.00    +0.000 A 
ATOM     29  C   UNL     1       6.079   3.325  12.302  0.00  0.00    +0.000 A 
ATOM     30  C   UNL     1       7.075   3.961  11.564  0.00  0.00    +0.000 A 
ATOM     31  C   UNL     1       7.857   4.949  12.158  0.00  0.00    +0.000 A 
ATOM     32  C   UNL     1       7.656   5.289  13.500  0.00  0.00    +0.000 A 
ENDBRANCH  25  27
ENDBRANCH   6  22
TORSDOF 4
ENDMDL
