MODEL 1
REMARK VINA RESULT:      -6.3      0.000      0.000
REMARK  Name = 
REMARK  7 active torsions:
REMARK  status: ('A' for Active; 'I' for Inactive)
REMARK    1  A    between atoms: C_1  and  C_2
REMARK    2  A    between atoms: C_2  and  O_3
REMARK    3  A    between atoms: O_3  and  C_4
REMARK    4  A    between atoms: C_9  and  C_10
REMARK    5  A    between atoms: N_24  and  C_25
REMARK    6  A    between atoms: C_25  and  C_26
REMARK    7  A    between atoms: C_26  and  C_27
REMARK                            x       y       z     vdW  Elec       q    Type
REMARK                         _______ _______ _______ _____ _____    ______ ____
ROOT
ATOM      1  C   UNL     1      -1.836  10.850  19.507  0.00  0.00    +0.000 C 
ATOM      2  C   UNL     1      -2.207  12.197  20.131  0.00  0.00    +0.000 A 
ATOM      3  N   UNL     1      -3.288  12.684  20.845  0.00  0.00    +0.000 N 
ATOM      4  C   UNL     1      -2.834  13.802  21.537  0.00  0.00    +0.000 A 
ATOM      5  C   UNL     1      -3.416  14.601  22.529  0.00  0.00    +0.000 A 
ATOM      6  C   UNL     1      -2.579  15.037  23.561  0.00  0.00    +0.000 A 
ATOM      7  C   UNL     1      -1.273  14.588  23.612  0.00  0.00    +0.000 A 
ATOM      8  C   UNL     1      -0.711  13.973  22.485  0.00  0.00    +0.000 A 
ATOM      9  C   UNL     1      -1.459  13.789  21.292  0.00  0.00    +0.000 A 
ATOM     10  C   UNL     1      -1.404  13.302  19.933  0.00  0.00    +0.000 A 
ATOM     11  C   UNL     1      -0.560  13.148  18.638  0.00  0.00    +0.000 C 
ATOM     12  C   UNL     1       0.285  11.868  18.604  0.00  0.00    +0.000 C 
ATOM     13  C   UNL     1       1.766  12.254  18.686  0.00  0.00    +0.000 C 
ATOM     14  O   UNL     1       2.536  12.209  17.737  0.00  0.00    +0.000 OA
ATOM     15  N   UNL     1       2.098  12.981  19.832  0.00  0.00    +0.000 N 
ATOM     16  C   UNL     1       1.642  12.177  20.993  0.00  0.00    +0.000 C 
ATOM     17  C   UNL     1       0.348  11.155  20.893  0.00  0.00    +0.000 C 
ATOM     18  O   UNL     1      -0.085  10.583  21.925  0.00  0.00    +0.000 OA
ATOM     19  N   UNL     1      -0.257  10.969  19.598  0.00  0.00    +0.000 N 
ATOM     20  H   UNL     1      -4.166  12.238  21.000  0.00  0.00    +0.000 HD
ENDROOT
BRANCH   1  26
ATOM     21  C   UNL     1      -3.726  11.375  17.655  0.00  0.00    +0.000 A 
ATOM     22  C   UNL     1      -4.070  11.395  16.270  0.00  0.00    +0.000 A 
ATOM     23  C   UNL     1      -3.415  10.610  15.331  0.00  0.00    +0.000 A 
ATOM     24  C   UNL     1      -2.358   9.843  15.747  0.00  0.00    +0.000 A 
ATOM     25  C   UNL     1      -1.901   9.972  17.066  0.00  0.00    +0.000 A 
ATOM     26  C   UNL     1      -2.530  10.766  18.082  0.00  0.00    +0.000 A 
BRANCH  21  27
ATOM     27  O   UNL     1      -4.660  11.825  18.571  0.00  0.00    +0.000 OA
BRANCH  27  29
ATOM     28  C   UNL     1      -7.105  11.627  18.373  0.00  0.00    +0.000 C 
ATOM     29  C   UNL     1      -5.795  10.926  18.672  0.00  0.00    +0.000 C 
ENDBRANCH  27  29
ENDBRANCH  21  27
ENDBRANCH   1  26
BRANCH  15  30
ATOM     30  C   UNL     1       1.747  14.411  19.638  0.00  0.00    +0.000 C 
BRANCH  30  31
ATOM     31  C   UNL     1       2.141  15.645  20.442  0.00  0.00    +0.000 C 
BRANCH  31  32
ATOM     32  C   UNL     1       1.079  16.547  20.958  0.00  0.00    +0.000 A 
ATOM     33  C   UNL     1       1.132  17.141  22.224  0.00  0.00    +0.000 A 
ATOM     34  C   UNL     1       0.045  17.863  22.696  0.00  0.00    +0.000 A 
ATOM     35  C   UNL     1      -1.085  17.998  21.902  0.00  0.00    +0.000 A 
ATOM     36  F   UNL     1      -2.159  18.630  22.386  0.00  0.00    +0.000 F 
ATOM     37  C   UNL     1      -1.118  17.504  20.599  0.00  0.00    +0.000 A 
ATOM     38  C   UNL     1      -0.028  16.790  20.123  0.00  0.00    +0.000 A 
ENDBRANCH  31  32
ENDBRANCH  30  31
ENDBRANCH  15  30
TORSDOF 6
ENDMDL
MODEL 2
REMARK VINA RESULT:      -6.3      1.847      2.294
REMARK  Name = 
REMARK  7 active torsions:
REMARK  status: ('A' for Active; 'I' for Inactive)
REMARK    1  A    between atoms: C_1  and  C_2
REMARK    2  A    between atoms: C_2  and  O_3
REMARK    3  A    between atoms: O_3  and  C_4
REMARK    4  A    between atoms: C_9  and  C_10
REMARK    5  A    between atoms: N_24  and  C_25
REMARK    6  A    between atoms: C_25  and  C_26
REMARK    7  A    between atoms: C_26  and  C_27
REMARK                            x       y       z     vdW  Elec       q    Type
REMARK                         _______ _______ _______ _____ _____    ______ ____
ROOT
ATOM      1  C   UNL     1      -2.086  10.659  19.416  0.00  0.00    +0.000 C 
ATOM      2  C   UNL     1      -2.476  11.952  20.134  0.00  0.00    +0.000 A 
ATOM      3  N   UNL     1      -3.581  12.385  20.846  0.00  0.00    +0.000 N 
ATOM      4  C   UNL     1      -3.151  13.441  21.643  0.00  0.00    +0.000 A 
ATOM      5  C   UNL     1      -3.766  14.160  22.675  0.00  0.00    +0.000 A 
ATOM      6  C   UNL     1      -2.967  14.504  23.769  0.00  0.00    +0.000 A 
ATOM      7  C   UNL     1      -1.664  14.045  23.831  0.00  0.00    +0.000 A 
ATOM      8  C   UNL     1      -1.063  13.520  22.679  0.00  0.00    +0.000 A 
ATOM      9  C   UNL     1      -1.767  13.439  21.449  0.00  0.00    +0.000 A 
ATOM     10  C   UNL     1      -1.663  13.065  20.057  0.00  0.00    +0.000 A 
ATOM     11  C   UNL     1      -0.773  13.013  18.785  0.00  0.00    +0.000 C 
ATOM     12  C   UNL     1       0.070  11.735  18.678  0.00  0.00    +0.000 C 
ATOM     13  C   UNL     1       1.547  12.104  18.845  0.00  0.00    +0.000 C 
ATOM     14  O   UNL     1       2.352  12.132  17.925  0.00  0.00    +0.000 OA
ATOM     15  N   UNL     1       1.839  12.732  20.058  0.00  0.00    +0.000 N 
ATOM     16  C   UNL     1       1.338  11.838  21.132  0.00  0.00    +0.000 C 
ATOM     17  C   UNL     1       0.046  10.836  20.902  0.00  0.00    +0.000 C 
ATOM     18  O   UNL     1      -0.427  10.184  21.866  0.00  0.00    +0.000 OA
ATOM     19  N   UNL     1      -0.511  10.760  19.574  0.00  0.00    +0.000 N 
ATOM     20  H   UNL     1      -4.466  11.934  20.931  0.00  0.00    +0.000 HD
ENDROOT
BRANCH   1  26
ATOM     21  C   UNL     1      -3.918  11.325  17.550  0.00  0.00    +0.000 A 
ATOM     22  C   UNL     1      -4.212  11.467  16.161  0.00  0.00    +0.000 A 
ATOM     23  C   UNL     1      -3.510  10.780  15.179  0.00  0.00    +0.000 A 
ATOM     24  C   UNL     1      -2.456   9.992  15.563  0.00  0.00    +0.000 A 
ATOM     25  C   UNL     1      -2.050  10.006  16.905  0.00  0.00    +0.000 A 
ATOM     26  C   UNL     1      -2.727  10.696  17.964  0.00  0.00    +0.000 A 
BRANCH  21  27
ATOM     27  O   UNL     1      -4.891  11.677  18.468  0.00  0.00    +0.000 OA
BRANCH  27  29
ATOM     28  C   UNL     1      -6.803  10.667  19.643  0.00  0.00    +0.000 C 
ATOM     29  C   UNL     1      -6.089  10.871  18.322  0.00  0.00    +0.000 C 
ENDBRANCH  27  29
ENDBRANCH  21  27
ENDBRANCH   1  26
BRANCH  15  30
ATOM     30  C   UNL     1       1.500  14.176  19.970  0.00  0.00    +0.000 C 
BRANCH  30  31
ATOM     31  C   UNL     1       2.395  15.393  19.768  0.00  0.00    +0.000 C 
BRANCH  31  32
ATOM     32  C   UNL     1       2.073  16.361  18.688  0.00  0.00    +0.000 A 
ATOM     33  C   UNL     1       0.928  17.165  18.702  0.00  0.00    +0.000 A 
ATOM     34  C   UNL     1       0.619  17.949  17.599  0.00  0.00    +0.000 A 
ATOM     35  C   UNL     1       1.455  17.934  16.492  0.00  0.00    +0.000 A 
ATOM     36  F   UNL     1       1.117  18.630  15.402  0.00  0.00    +0.000 F 
ATOM     37  C   UNL     1       2.652  17.222  16.498  0.00  0.00    +0.000 A 
ATOM     38  C   UNL     1       2.967  16.446  17.604  0.00  0.00    +0.000 A 
ENDBRANCH  31  32
ENDBRANCH  30  31
ENDBRANCH  15  30
TORSDOF 6
ENDMDL
MODEL 3
REMARK VINA RESULT:      -6.2      7.098     10.653
REMARK  Name = 
REMARK  7 active torsions:
REMARK  status: ('A' for Active; 'I' for Inactive)
REMARK    1  A    between atoms: C_1  and  C_2
REMARK    2  A    between atoms: C_2  and  O_3
REMARK    3  A    between atoms: O_3  and  C_4
REMARK    4  A    between atoms: C_9  and  C_10
REMARK    5  A    between atoms: N_24  and  C_25
REMARK    6  A    between atoms: C_25  and  C_26
REMARK    7  A    between atoms: C_26  and  C_27
REMARK                            x       y       z     vdW  Elec       q    Type
REMARK                         _______ _______ _______ _____ _____    ______ ____
ROOT
ATOM      1  C   UNL     1       6.109  17.343  20.365  0.00  0.00    +0.000 C 
ATOM      2  C   UNL     1       7.153  16.722  19.435  0.00  0.00    +0.000 A 
ATOM      3  N   UNL     1       7.828  17.136  18.300  0.00  0.00    +0.000 N 
ATOM      4  C   UNL     1       8.967  16.344  18.206  0.00  0.00    +0.000 A 
ATOM      5  C   UNL     1      10.094  16.402  17.377  0.00  0.00    +0.000 A 
ATOM      6  C   UNL     1      11.329  16.113  17.966  0.00  0.00    +0.000 A 
ATOM      7  C   UNL     1      11.395  15.888  19.329  0.00  0.00    +0.000 A 
ATOM      8  C   UNL     1      10.217  15.639  20.045  0.00  0.00    +0.000 A 
ATOM      9  C   UNL     1       8.951  15.622  19.402  0.00  0.00    +0.000 A 
ATOM     10  C   UNL     1       7.536  15.406  19.598  0.00  0.00    +0.000 A 
ATOM     11  C   UNL     1       6.431  14.594  20.329  0.00  0.00    +0.000 C 
ATOM     12  C   UNL     1       6.020  15.196  21.679  0.00  0.00    +0.000 C 
ATOM     13  C   UNL     1       6.473  14.251  22.797  0.00  0.00    +0.000 C 
ATOM     14  O   UNL     1       5.714  13.534  23.434  0.00  0.00    +0.000 OA
ATOM     15  N   UNL     1       7.849  14.012  22.813  0.00  0.00    +0.000 N 
ATOM     16  C   UNL     1       8.510  15.340  22.871  0.00  0.00    +0.000 C 
ATOM     17  C   UNL     1       7.817  16.690  22.220  0.00  0.00    +0.000 C 
ATOM     18  O   UNL     1       8.456  17.771  22.178  0.00  0.00    +0.000 OA
ATOM     19  N   UNL     1       6.479  16.567  21.697  0.00  0.00    +0.000 N 
ATOM     20  H   UNL     1       7.657  17.952  17.753  0.00  0.00    +0.000 HD
ENDROOT
BRANCH   1  26
ATOM     21  C   UNL     1       3.412  17.362  20.273  0.00  0.00    +0.000 A 
ATOM     22  C   UNL     1       2.244  17.348  19.455  0.00  0.00    +0.000 A 
ATOM     23  C   UNL     1       2.251  16.853  18.158  0.00  0.00    +0.000 A 
ATOM     24  C   UNL     1       3.442  16.424  17.632  0.00  0.00    +0.000 A 
ATOM     25  C   UNL     1       4.619  16.617  18.368  0.00  0.00    +0.000 A 
ATOM     26  C   UNL     1       4.680  17.126  19.707  0.00  0.00    +0.000 A 
BRANCH  21  27
ATOM     27  O   UNL     1       3.254  17.455  21.644  0.00  0.00    +0.000 OA
BRANCH  27  29
ATOM     28  C   UNL     1       2.521  15.150  22.099  0.00  0.00    +0.000 C 
ATOM     29  C   UNL     1       2.164  16.623  22.121  0.00  0.00    +0.000 C 
ENDBRANCH  27  29
ENDBRANCH  21  27
ENDBRANCH   1  26
BRANCH  15  30
ATOM     30  C   UNL     1       8.190  12.971  21.809  0.00  0.00    +0.000 C 
BRANCH  30  31
ATOM     31  C   UNL     1       9.449  12.127  21.647  0.00  0.00    +0.000 C 
BRANCH  31  32
ATOM     32  C   UNL     1      10.162  12.128  20.343  0.00  0.00    +0.000 A 
ATOM     33  C   UNL     1      11.557  12.123  20.237  0.00  0.00    +0.000 A 
ATOM     34  C   UNL     1      12.158  12.261  18.994  0.00  0.00    +0.000 A 
ATOM     35  C   UNL     1      11.368  12.395  17.862  0.00  0.00    +0.000 A 
ATOM     36  F   UNL     1      11.946  12.602  16.675  0.00  0.00    +0.000 F 
ATOM     37  C   UNL     1       9.979  12.299  17.933  0.00  0.00    +0.000 A 
ATOM     38  C   UNL     1       9.378  12.151  19.174  0.00  0.00    +0.000 A 
ENDBRANCH  31  32
ENDBRANCH  30  31
ENDBRANCH  15  30
TORSDOF 6
ENDMDL
MODEL 4
REMARK VINA RESULT:      -6.1      3.654      7.051
REMARK  Name = 
REMARK  7 active torsions:
REMARK  status: ('A' for Active; 'I' for Inactive)
REMARK    1  A    between atoms: C_1  and  C_2
REMARK    2  A    between atoms: C_2  and  O_3
REMARK    3  A    between atoms: O_3  and  C_4
REMARK    4  A    between atoms: C_9  and  C_10
REMARK    5  A    between atoms: N_24  and  C_25
REMARK    6  A    between atoms: C_25  and  C_26
REMARK    7  A    between atoms: C_26  and  C_27
REMARK                            x       y       z     vdW  Elec       q    Type
REMARK                         _______ _______ _______ _____ _____    ______ ____
ROOT
ATOM      1  C   UNL     1      -1.878  14.770  20.907  0.00  0.00    +0.000 C 
ATOM      2  C   UNL     1      -2.520  13.497  20.354  0.00  0.00    +0.000 A 
ATOM      3  N   UNL     1      -3.788  13.142  19.929  0.00  0.00    +0.000 N 
ATOM      4  C   UNL     1      -3.634  12.032  19.105  0.00  0.00    +0.000 A 
ATOM      5  C   UNL     1      -4.521  11.342  18.271  0.00  0.00    +0.000 A 
ATOM      6  C   UNL     1      -4.021  10.900  17.042  0.00  0.00    +0.000 A 
ATOM      7  C   UNL     1      -2.734  11.243  16.669  0.00  0.00    +0.000 A 
ATOM      8  C   UNL     1      -1.848  11.744  17.632  0.00  0.00    +0.000 A 
ATOM      9  C   UNL     1      -2.246  11.919  18.984  0.00  0.00    +0.000 A 
ATOM     10  C   UNL     1      -1.801  12.321  20.298  0.00  0.00    +0.000 A 
ATOM     11  C   UNL     1      -0.644  12.330  21.335  0.00  0.00    +0.000 C 
ATOM     12  C   UNL     1       0.298  13.532  21.192  0.00  0.00    +0.000 C 
ATOM     13  C   UNL     1       1.666  13.032  20.716  0.00  0.00    +0.000 C 
ATOM     14  O   UNL     1       2.654  12.960  21.433  0.00  0.00    +0.000 OA
ATOM     15  N   UNL     1       1.625  12.349  19.498  0.00  0.00    +0.000 N 
ATOM     16  C   UNL     1       0.965  13.253  18.524  0.00  0.00    +0.000 C 
ATOM     17  C   UNL     1      -0.158  14.369  18.992  0.00  0.00    +0.000 C 
ATOM     18  O   UNL     1      -0.785  15.034  18.129  0.00  0.00    +0.000 OA
ATOM     19  N   UNL     1      -0.392  14.529  20.406  0.00  0.00    +0.000 N 
ATOM     20  H   UNL     1      -4.632  13.666  20.023  0.00  0.00    +0.000 HD
ENDROOT
BRANCH   1  26
ATOM     21  C   UNL     1      -3.329  14.406  23.153  0.00  0.00    +0.000 A 
ATOM     22  C   UNL     1      -3.323  14.303  24.575  0.00  0.00    +0.000 A 
ATOM     23  C   UNL     1      -2.314  14.851  25.356  0.00  0.00    +0.000 A 
ATOM     24  C   UNL     1      -1.257  15.452  24.725  0.00  0.00    +0.000 A 
ATOM     25  C   UNL     1      -1.170  15.383  23.328  0.00  0.00    +0.000 A 
ATOM     26  C   UNL     1      -2.174  14.828  22.466  0.00  0.00    +0.000 A 
BRANCH  21  27
ATOM     27  O   UNL     1      -4.527  14.233  22.485  0.00  0.00    +0.000 OA
BRANCH  27  29
ATOM     28  C   UNL     1      -6.540  12.829  22.290  0.00  0.00    +0.000 C 
ATOM     29  C   UNL     1      -5.400  13.298  23.172  0.00  0.00    +0.000 C 
ENDBRANCH  27  29
ENDBRANCH  21  27
ENDBRANCH   1  26
BRANCH  15  30
ATOM     30  C   UNL     1       1.203  10.943  19.726  0.00  0.00    +0.000 C 
BRANCH  30  31
ATOM     31  C   UNL     1       0.972   9.806  18.738  0.00  0.00    +0.000 C 
BRANCH  31  32
ATOM     32  C   UNL     1       1.835   8.598  18.805  0.00  0.00    +0.000 A 
ATOM     33  C   UNL     1       2.711   8.229  17.778  0.00  0.00    +0.000 A 
ATOM     34  C   UNL     1       3.387   7.019  17.845  0.00  0.00    +0.000 A 
ATOM     35  C   UNL     1       3.194   6.186  18.938  0.00  0.00    +0.000 A 
ATOM     36  F   UNL     1       3.787   4.989  18.967  0.00  0.00    +0.000 F 
ATOM     37  C   UNL     1       2.408   6.580  20.019  0.00  0.00    +0.000 A 
ATOM     38  C   UNL     1       1.740   7.794  19.957  0.00  0.00    +0.000 A 
ENDBRANCH  31  32
ENDBRANCH  30  31
ENDBRANCH  15  30
TORSDOF 6
ENDMDL
MODEL 5
REMARK VINA RESULT:      -6.1      2.624      3.453
REMARK  Name = 
REMARK  7 active torsions:
REMARK  status: ('A' for Active; 'I' for Inactive)
REMARK    1  A    between atoms: C_1  and  C_2
REMARK    2  A    between atoms: C_2  and  O_3
REMARK    3  A    between atoms: O_3  and  C_4
REMARK    4  A    between atoms: C_9  and  C_10
REMARK    5  A    between atoms: N_24  and  C_25
REMARK    6  A    between atoms: C_25  and  C_26
REMARK    7  A    between atoms: C_26  and  C_27
REMARK                            x       y       z     vdW  Elec       q    Type
REMARK                         _______ _______ _______ _____ _____    ______ ____
ROOT
ATOM      1  C   UNL     1      -1.693  11.325  19.729  0.00  0.00    +0.000 C 
ATOM      2  C   UNL     1      -1.989  12.786  20.072  0.00  0.00    +0.000 A 
ATOM      3  N   UNL     1      -3.043  13.463  20.661  0.00  0.00    +0.000 N 
ATOM      4  C   UNL     1      -2.529  14.669  21.126  0.00  0.00    +0.000 A 
ATOM      5  C   UNL     1      -3.067  15.679  21.933  0.00  0.00    +0.000 A 
ATOM      6  C   UNL     1      -2.211  16.262  22.872  0.00  0.00    +0.000 A 
ATOM      7  C   UNL     1      -0.932  15.760  23.029  0.00  0.00    +0.000 A 
ATOM      8  C   UNL     1      -0.402  14.905  22.054  0.00  0.00    +0.000 A 
ATOM      9  C   UNL     1      -1.155  14.532  20.909  0.00  0.00    +0.000 A 
ATOM     10  C   UNL     1      -1.124  13.785  19.673  0.00  0.00    +0.000 A 
ATOM     11  C   UNL     1      -0.286  13.333  18.445  0.00  0.00    +0.000 C 
ATOM     12  C   UNL     1       0.485  12.027  18.676  0.00  0.00    +0.000 C 
ATOM     13  C   UNL     1       1.985  12.339  18.702  0.00  0.00    +0.000 C 
ATOM     14  O   UNL     1       2.755  12.065  17.791  0.00  0.00    +0.000 OA
ATOM     15  N   UNL     1       2.354  13.257  19.688  0.00  0.00    +0.000 N 
ATOM     16  C   UNL     1       1.849  12.723  20.977  0.00  0.00    +0.000 C 
ATOM     17  C   UNL     1       0.500  11.775  21.061  0.00  0.00    +0.000 C 
ATOM     18  O   UNL     1       0.031  11.441  22.178  0.00  0.00    +0.000 OA
ATOM     19  N   UNL     1      -0.110  11.372  19.818  0.00  0.00    +0.000 N 
ATOM     20  H   UNL     1      -3.946  13.106  20.887  0.00  0.00    +0.000 HD
ENDROOT
BRANCH   1  26
ATOM     21  C   UNL     1      -3.617  11.475  17.843  0.00  0.00    +0.000 A 
ATOM     22  C   UNL     1      -3.966  11.279  16.474  0.00  0.00    +0.000 A 
ATOM     23  C   UNL     1      -3.270  10.407  15.647  0.00  0.00    +0.000 A 
ATOM     24  C   UNL     1      -2.169   9.767  16.156  0.00  0.00    +0.000 A 
ATOM     25  C   UNL     1      -1.717  10.107  17.438  0.00  0.00    +0.000 A 
ATOM     26  C   UNL     1      -2.386  11.001  18.339  0.00  0.00    +0.000 A 
BRANCH  21  27
ATOM     27  O   UNL     1      -4.571  11.998  18.697  0.00  0.00    +0.000 OA
BRANCH  27  29
ATOM     28  C   UNL     1      -6.595  10.633  19.013  0.00  0.00    +0.000 C 
ATOM     29  C   UNL     1      -5.919  11.738  18.225  0.00  0.00    +0.000 C 
ENDBRANCH  27  29
ENDBRANCH  21  27
ENDBRANCH   1  26
BRANCH  15  30
ATOM     30  C   UNL     1       2.086  14.639  19.212  0.00  0.00    +0.000 C 
BRANCH  30  31
ATOM     31  C   UNL     1       2.781  15.468  18.139  0.00  0.00    +0.000 C 
BRANCH  31  32
ATOM     32  C   UNL     1       4.252  15.660  18.206  0.00  0.00    +0.000 A 
ATOM     33  C   UNL     1       5.167  14.693  17.775  0.00  0.00    +0.000 A 
ATOM     34  C   UNL     1       6.526  14.879  17.990  0.00  0.00    +0.000 A 
ATOM     35  C   UNL     1       6.967  16.031  18.626  0.00  0.00    +0.000 A 
ATOM     36  F   UNL     1       8.267  16.175  18.900  0.00  0.00    +0.000 F 
ATOM     37  C   UNL     1       6.083  17.052  18.970  0.00  0.00    +0.000 A 
ATOM     38  C   UNL     1       4.726  16.870  18.746  0.00  0.00    +0.000 A 
ENDBRANCH  31  32
ENDBRANCH  30  31
ENDBRANCH  15  30
TORSDOF 6
ENDMDL
MODEL 6
REMARK VINA RESULT:      -6.0      3.797      7.162
REMARK  Name = 
REMARK  7 active torsions:
REMARK  status: ('A' for Active; 'I' for Inactive)
REMARK    1  A    between atoms: C_1  and  C_2
REMARK    2  A    between atoms: C_2  and  O_3
REMARK    3  A    between atoms: O_3  and  C_4
REMARK    4  A    between atoms: C_9  and  C_10
REMARK    5  A    between atoms: N_24  and  C_25
REMARK    6  A    between atoms: C_25  and  C_26
REMARK    7  A    between atoms: C_26  and  C_27
REMARK                            x       y       z     vdW  Elec       q    Type
REMARK                         _______ _______ _______ _____ _____    ______ ____
ROOT
ATOM      1  C   UNL     1      -2.327  13.898  20.679  0.00  0.00    +0.000 C 
ATOM      2  C   UNL     1      -2.941  12.774  19.843  0.00  0.00    +0.000 A 
ATOM      3  N   UNL     1      -4.136  12.591  19.171  0.00  0.00    +0.000 N 
ATOM      4  C   UNL     1      -3.910  11.598  18.223  0.00  0.00    +0.000 A 
ATOM      5  C   UNL     1      -4.682  11.109  17.162  0.00  0.00    +0.000 A 
ATOM      6  C   UNL     1      -4.007  10.803  15.976  0.00  0.00    +0.000 A 
ATOM      7  C   UNL     1      -2.657  11.085  15.871  0.00  0.00    +0.000 A 
ATOM      8  C   UNL     1      -1.920  11.370  17.028  0.00  0.00    +0.000 A 
ATOM      9  C   UNL     1      -2.532  11.386  18.310  0.00  0.00    +0.000 A 
ATOM     10  C   UNL     1      -2.294  11.561  19.724  0.00  0.00    +0.000 A 
ATOM     11  C   UNL     1      -1.333  11.326  20.922  0.00  0.00    +0.000 C 
ATOM     12  C   UNL     1      -0.310  12.453  21.117  0.00  0.00    +0.000 C 
ATOM     13  C   UNL     1       1.087  11.911  20.795  0.00  0.00    +0.000 C 
ATOM     14  O   UNL     1       1.931  11.655  21.642  0.00  0.00    +0.000 OA
ATOM     15  N   UNL     1       1.213  11.410  19.497  0.00  0.00    +0.000 N 
ATOM     16  C   UNL     1       0.785  12.495  18.579  0.00  0.00    +0.000 C 
ATOM     17  C   UNL     1      -0.333  13.626  19.025  0.00  0.00    +0.000 C 
ATOM     18  O   UNL     1      -0.762  14.455  18.184  0.00  0.00    +0.000 OA
ATOM     19  N   UNL     1      -0.795  13.605  20.390  0.00  0.00    +0.000 N 
ATOM     20  H   UNL     1      -4.951  13.165  19.208  0.00  0.00    +0.000 HD
ENDROOT
BRANCH   1  26
ATOM     21  C   UNL     1      -3.929  12.947  22.630  0.00  0.00    +0.000 A 
ATOM     22  C   UNL     1      -4.127  12.764  24.031  0.00  0.00    +0.000 A 
ATOM     23  C   UNL     1      -3.501  13.561  24.980  0.00  0.00    +0.000 A 
ATOM     24  C   UNL     1      -2.611  14.511  24.547  0.00  0.00    +0.000 A 
ATOM     25  C   UNL     1      -2.275  14.558  23.188  0.00  0.00    +0.000 A 
ATOM     26  C   UNL     1      -2.881  13.762  22.160  0.00  0.00    +0.000 A 
BRANCH  21  27
ATOM     27  O   UNL     1      -4.875  12.436  21.760  0.00  0.00    +0.000 OA
BRANCH  27  29
ATOM     28  C   UNL     1      -6.643  14.101  21.363  0.00  0.00    +0.000 C 
ATOM     29  C   UNL     1      -6.218  12.855  22.114  0.00  0.00    +0.000 C 
ENDBRANCH  27  29
ENDBRANCH  21  27
ENDBRANCH   1  26
BRANCH  15  30
ATOM     30  C   UNL     1       0.674  10.027  19.437  0.00  0.00    +0.000 C 
BRANCH  30  31
ATOM     31  C   UNL     1       1.171   8.743  20.091  0.00  0.00    +0.000 C 
BRANCH  31  32
ATOM     32  C   UNL     1       2.076   7.843  19.331  0.00  0.00    +0.000 A 
ATOM     33  C   UNL     1       2.685   8.215  18.127  0.00  0.00    +0.000 A 
ATOM     34  C   UNL     1       3.410   7.281  17.400  0.00  0.00    +0.000 A 
ATOM     35  C   UNL     1       3.533   5.984  17.879  0.00  0.00    +0.000 A 
ATOM     36  F   UNL     1       4.167   5.067  17.144  0.00  0.00    +0.000 F 
ATOM     37  C   UNL     1       3.022   5.622  19.124  0.00  0.00    +0.000 A 
ATOM     38  C   UNL     1       2.306   6.557  19.856  0.00  0.00    +0.000 A 
ENDBRANCH  31  32
ENDBRANCH  30  31
ENDBRANCH  15  30
TORSDOF 6
ENDMDL
MODEL 7
REMARK VINA RESULT:      -6.0      3.762      7.437
REMARK  Name = 
REMARK  7 active torsions:
REMARK  status: ('A' for Active; 'I' for Inactive)
REMARK    1  A    between atoms: C_1  and  C_2
REMARK    2  A    between atoms: C_2  and  O_3
REMARK    3  A    between atoms: O_3  and  C_4
REMARK    4  A    between atoms: C_9  and  C_10
REMARK    5  A    between atoms: N_24  and  C_25
REMARK    6  A    between atoms: C_25  and  C_26
REMARK    7  A    between atoms: C_26  and  C_27
REMARK                            x       y       z     vdW  Elec       q    Type
REMARK                         _______ _______ _______ _____ _____    ______ ____
ROOT
ATOM      1  C   UNL     1      -2.132  14.030  20.791  0.00  0.00    +0.000 C 
ATOM      2  C   UNL     1      -2.729  12.863  20.003  0.00  0.00    +0.000 A 
ATOM      3  N   UNL     1      -3.960  12.590  19.434  0.00  0.00    +0.000 N 
ATOM      4  C   UNL     1      -3.742  11.617  18.464  0.00  0.00    +0.000 A 
ATOM      5  C   UNL     1      -4.563  11.072  17.469  0.00  0.00    +0.000 A 
ATOM      6  C   UNL     1      -3.970  10.817  16.229  0.00  0.00    +0.000 A 
ATOM      7  C   UNL     1      -2.659  11.198  16.012  0.00  0.00    +0.000 A 
ATOM      8  C   UNL     1      -1.849  11.538  17.104  0.00  0.00    +0.000 A 
ATOM      9  C   UNL     1      -2.350  11.509  18.433  0.00  0.00    +0.000 A 
ATOM     10  C   UNL     1      -2.006  11.701  19.823  0.00  0.00    +0.000 A 
ATOM     11  C   UNL     1      -0.932  11.539  20.934  0.00  0.00    +0.000 C 
ATOM     12  C   UNL     1       0.017  12.739  21.048  0.00  0.00    +0.000 C 
ATOM     13  C   UNL     1       1.418  12.302  20.606  0.00  0.00    +0.000 C 
ATOM     14  O   UNL     1       2.348  12.111  21.377  0.00  0.00    +0.000 OA
ATOM     15  N   UNL     1       1.471  11.813  19.299  0.00  0.00    +0.000 N 
ATOM     16  C   UNL     1       0.886  12.862  18.427  0.00  0.00    +0.000 C 
ATOM     17  C   UNL     1      -0.271  13.906  18.973  0.00  0.00    +0.000 C 
ATOM     18  O   UNL     1      -0.830  14.701  18.177  0.00  0.00    +0.000 OA
ATOM     19  N   UNL     1      -0.612  13.851  20.373  0.00  0.00    +0.000 N 
ATOM     20  H   UNL     1      -4.809  13.103  19.543  0.00  0.00    +0.000 HD
ENDROOT
BRANCH   1  26
ATOM     21  C   UNL     1      -2.053  14.540  23.440  0.00  0.00    +0.000 A 
ATOM     22  C   UNL     1      -2.715  14.429  24.698  0.00  0.00    +0.000 A 
ATOM     23  C   UNL     1      -3.682  13.464  24.947  0.00  0.00    +0.000 A 
ATOM     24  C   UNL     1      -4.053  12.636  23.920  0.00  0.00    +0.000 A 
ATOM     25  C   UNL     1      -3.541  12.871  22.637  0.00  0.00    +0.000 A 
ATOM     26  C   UNL     1      -2.546  13.853  22.313  0.00  0.00    +0.000 A 
BRANCH  21  27
ATOM     27  O   UNL     1      -0.841  15.205  23.390  0.00  0.00    +0.000 OA
BRANCH  27  29
ATOM     28  C   UNL     1      -1.013  17.642  23.692  0.00  0.00    +0.000 C 
ATOM     29  C   UNL     1      -0.782  16.294  24.347  0.00  0.00    +0.000 C 
ENDBRANCH  27  29
ENDBRANCH  21  27
ENDBRANCH   1  26
BRANCH  15  30
ATOM     30  C   UNL     1       1.033  10.393  19.277  0.00  0.00    +0.000 C 
BRANCH  30  31
ATOM     31  C   UNL     1       1.185   9.327  18.198  0.00  0.00    +0.000 C 
BRANCH  31  32
ATOM     32  C   UNL     1       2.134   8.204  18.414  0.00  0.00    +0.000 A 
ATOM     33  C   UNL     1       3.142   7.872  17.502  0.00  0.00    +0.000 A 
ATOM     34  C   UNL     1       3.907   6.731  17.700  0.00  0.00    +0.000 A 
ATOM     35  C   UNL     1       3.670   5.931  18.808  0.00  0.00    +0.000 A 
ATOM     36  F   UNL     1       4.355   4.793  18.958  0.00  0.00    +0.000 F 
ATOM     37  C   UNL     1       2.743   6.298  19.781  0.00  0.00    +0.000 A 
ATOM     38  C   UNL     1       1.985   7.444  19.590  0.00  0.00    +0.000 A 
ENDBRANCH  31  32
ENDBRANCH  30  31
ENDBRANCH  15  30
TORSDOF 6
ENDMDL
MODEL 8
REMARK VINA RESULT:      -5.9      3.006      7.020
REMARK  Name = 
REMARK  7 active torsions:
REMARK  status: ('A' for Active; 'I' for Inactive)
REMARK    1  A    between atoms: C_1  and  C_2
REMARK    2  A    between atoms: C_2  and  O_3
REMARK    3  A    between atoms: O_3  and  C_4
REMARK    4  A    between atoms: C_9  and  C_10
REMARK    5  A    between atoms: N_24  and  C_25
REMARK    6  A    between atoms: C_25  and  C_26
REMARK    7  A    between atoms: C_26  and  C_27
REMARK                            x       y       z     vdW  Elec       q    Type
REMARK                         _______ _______ _______ _____ _____    ______ ____
ROOT
ATOM      1  C   UNL     1      -0.608  15.607  21.640  0.00  0.00    +0.000 C 
ATOM      2  C   UNL     1      -0.601  14.124  21.263  0.00  0.00    +0.000 A 
ATOM      3  N   UNL     1       0.368  13.213  20.883  0.00  0.00    +0.000 N 
ATOM      4  C   UNL     1      -0.150  11.949  21.148  0.00  0.00    +0.000 A 
ATOM      5  C   UNL     1       0.417  10.669  21.124  0.00  0.00    +0.000 A 
ATOM      6  C   UNL     1       0.035   9.789  22.141  0.00  0.00    +0.000 A 
ATOM      7  C   UNL     1      -0.787  10.240  23.157  0.00  0.00    +0.000 A 
ATOM      8  C   UNL     1      -1.476  11.450  23.000  0.00  0.00    +0.000 A 
ATOM      9  C   UNL     1      -1.341  12.231  21.822  0.00  0.00    +0.000 A 
ATOM     10  C   UNL     1      -1.787  13.429  21.148  0.00  0.00    +0.000 A 
ATOM     11  C   UNL     1      -2.968  14.393  20.851  0.00  0.00    +0.000 C 
ATOM     12  C   UNL     1      -3.115  15.519  21.884  0.00  0.00    +0.000 C 
ATOM     13  C   UNL     1      -4.410  15.298  22.672  0.00  0.00    +0.000 C 
ATOM     14  O   UNL     1      -5.424  15.965  22.519  0.00  0.00    +0.000 OA
ATOM     15  N   UNL     1      -4.466  14.070  23.336  0.00  0.00    +0.000 N 
ATOM     16  C   UNL     1      -3.249  13.989  24.183  0.00  0.00    +0.000 C 
ATOM     17  C   UNL     1      -1.843  14.748  23.766  0.00  0.00    +0.000 C 
ATOM     18  O   UNL     1      -0.800  14.559  24.441  0.00  0.00    +0.000 OA
ATOM     19  N   UNL     1      -1.865  15.605  22.607  0.00  0.00    +0.000 N 
ATOM     20  H   UNL     1       1.318  13.397  20.643  0.00  0.00    +0.000 HD
ENDROOT
BRANCH   1  26
ATOM     21  C   UNL     1      -0.121  16.123  19.036  0.00  0.00    +0.000 A 
ATOM     22  C   UNL     1      -0.477  16.880  17.881  0.00  0.00    +0.000 A 
ATOM     23  C   UNL     1      -1.133  18.101  17.966  0.00  0.00    +0.000 A 
ATOM     24  C   UNL     1      -1.505  18.555  19.205  0.00  0.00    +0.000 A 
ATOM     25  C   UNL     1      -1.325  17.722  20.317  0.00  0.00    +0.000 A 
ATOM     26  C   UNL     1      -0.661  16.450  20.296  0.00  0.00    +0.000 A 
BRANCH  21  27
ATOM     27  O   UNL     1       0.876  15.171  18.918  0.00  0.00    +0.000 OA
BRANCH  27  29
ATOM     28  C   UNL     1       3.287  14.753  18.652  0.00  0.00    +0.000 C 
ATOM     29  C   UNL     1       2.199  15.767  18.948  0.00  0.00    +0.000 C 
ENDBRANCH  27  29
ENDBRANCH  21  27
ENDBRANCH   1  26
BRANCH  15  30
ATOM     30  C   UNL     1      -4.874  13.004  22.386  0.00  0.00    +0.000 C 
BRANCH  30  31
ATOM     31  C   UNL     1      -6.248  12.646  21.832  0.00  0.00    +0.000 C 
BRANCH  31  32
ATOM     32  C   UNL     1      -6.455  12.624  20.361  0.00  0.00    +0.000 A 
ATOM     33  C   UNL     1      -5.520  12.090  19.467  0.00  0.00    +0.000 A 
ATOM     34  C   UNL     1      -5.715  12.223  18.099  0.00  0.00    +0.000 A 
ATOM     35  C   UNL     1      -6.842  12.880  17.628  0.00  0.00    +0.000 A 
ATOM     36  F   UNL     1      -6.991  13.074  16.314  0.00  0.00    +0.000 F 
ATOM     37  C   UNL     1      -7.835  13.328  18.497  0.00  0.00    +0.000 A 
ATOM     38  C   UNL     1      -7.647  13.186  19.864  0.00  0.00    +0.000 A 
ENDBRANCH  31  32
ENDBRANCH  30  31
ENDBRANCH  15  30
TORSDOF 6
ENDMDL
MODEL 9
REMARK VINA RESULT:      -5.9      4.028      7.441
REMARK  Name = 
REMARK  7 active torsions:
REMARK  status: ('A' for Active; 'I' for Inactive)
REMARK    1  A    between atoms: C_1  and  C_2
REMARK    2  A    between atoms: C_2  and  O_3
REMARK    3  A    between atoms: O_3  and  C_4
REMARK    4  A    between atoms: C_9  and  C_10
REMARK    5  A    between atoms: N_24  and  C_25
REMARK    6  A    between atoms: C_25  and  C_26
REMARK    7  A    between atoms: C_26  and  C_27
REMARK                            x       y       z     vdW  Elec       q    Type
REMARK                         _______ _______ _______ _____ _____    ______ ____
ROOT
ATOM      1  C   UNL     1       0.424  14.420  18.973  0.00  0.00    +0.000 C 
ATOM      2  C   UNL     1       0.205  14.115  20.456  0.00  0.00    +0.000 A 
ATOM      3  N   UNL     1      -0.298  14.814  21.539  0.00  0.00    +0.000 N 
ATOM      4  C   UNL     1      -0.683  13.866  22.480  0.00  0.00    +0.000 A 
ATOM      5  C   UNL     1      -1.394  13.960  23.683  0.00  0.00    +0.000 A 
ATOM      6  C   UNL     1      -2.310  12.941  23.958  0.00  0.00    +0.000 A 
ATOM      7  C   UNL     1      -2.544  11.963  23.010  0.00  0.00    +0.000 A 
ATOM      8  C   UNL     1      -1.654  11.816  21.937  0.00  0.00    +0.000 A 
ATOM      9  C   UNL     1      -0.520  12.658  21.796  0.00  0.00    +0.000 A 
ATOM     10  C   UNL     1       0.653  12.927  20.997  0.00  0.00    +0.000 A 
ATOM     11  C   UNL     1       1.817  12.338  20.152  0.00  0.00    +0.000 C 
ATOM     12  C   UNL     1       1.462  12.144  18.672  0.00  0.00    +0.000 C 
ATOM     13  C   UNL     1       1.415  10.642  18.370  0.00  0.00    +0.000 C 
ATOM     14  O   UNL     1       2.278  10.045  17.741  0.00  0.00    +0.000 OA
ATOM     15  N   UNL     1       0.492   9.938  19.148  0.00  0.00    +0.000 N 
ATOM     16  C   UNL     1      -0.818  10.609  18.965  0.00  0.00    +0.000 C 
ATOM     17  C   UNL     1      -0.934  12.223  18.634  0.00  0.00    +0.000 C 
ATOM     18  O   UNL     1      -2.059  12.782  18.606  0.00  0.00    +0.000 OA
ATOM     19  N   UNL     1       0.291  12.946  18.401  0.00  0.00    +0.000 N 
ATOM     20  H   UNL     1      -0.523  15.785  21.586  0.00  0.00    +0.000 HD
ENDROOT
BRANCH   1  26
ATOM     21  C   UNL     1       2.302  16.246  19.620  0.00  0.00    +0.000 A 
ATOM     22  C   UNL     1       3.666  16.648  19.509  0.00  0.00    +0.000 A 
ATOM     23  C   UNL     1       4.483  16.226  18.468  0.00  0.00    +0.000 A 
ATOM     24  C   UNL     1       3.970  15.338  17.558  0.00  0.00    +0.000 A 
ATOM     25  C   UNL     1       2.696  14.798  17.778  0.00  0.00    +0.000 A 
ATOM     26  C   UNL     1       1.806  15.188  18.833  0.00  0.00    +0.000 A 
BRANCH  21  27
ATOM     27  O   UNL     1       1.451  17.013  20.395  0.00  0.00    +0.000 OA
BRANCH  27  29
ATOM     28  C   UNL     1       0.569  18.630  18.762  0.00  0.00    +0.000 C 
ATOM     29  C   UNL     1       1.445  18.403  19.978  0.00  0.00    +0.000 C 
ENDBRANCH  27  29
ENDBRANCH  21  27
ENDBRANCH   1  26
BRANCH  15  30
ATOM     30  C   UNL     1       1.081   9.641  20.479  0.00  0.00    +0.000 C 
BRANCH  30  31
ATOM     31  C   UNL     1       1.367   8.308  21.160  0.00  0.00    +0.000 C 
BRANCH  31  32
ATOM     32  C   UNL     1       1.771   7.141  20.334  0.00  0.00    +0.000 A 
ATOM     33  C   UNL     1       2.486   7.266  19.138  0.00  0.00    +0.000 A 
ATOM     34  C   UNL     1       2.714   6.148  18.347  0.00  0.00    +0.000 A 
ATOM     35  C   UNL     1       2.235   4.911  18.754  0.00  0.00    +0.000 A 
ATOM     36  F   UNL     1       2.389   3.850  17.957  0.00  0.00    +0.000 F 
ATOM     37  C   UNL     1       1.611   4.748  19.990  0.00  0.00    +0.000 A 
ATOM     38  C   UNL     1       1.392   5.863  20.785  0.00  0.00    +0.000 A 
ENDBRANCH  31  32
ENDBRANCH  30  31
ENDBRANCH  15  30
TORSDOF 6
ENDMDL
