MODEL 1
REMARK VINA RESULT:      -8.7      0.000      0.000
REMARK  Name = 
REMARK  9 active torsions:
REMARK  status: ('A' for Active; 'I' for Inactive)
REMARK    1  A    between atoms: C_2  and  C_23
REMARK    2  A    between atoms: N_3  and  C_4
REMARK    3  A    between atoms: C_4  and  C_5
REMARK    4  A    between atoms: C_8  and  O_9
REMARK    5  A    between atoms: C_8  and  C_10
REMARK    6  A    between atoms: C_10  and  N_11
REMARK    7  A    between atoms: N_11  and  S_12
REMARK    8  A    between atoms: S_12  and  C_15
REMARK    9  A    between atoms: C_21  and  O_22
REMARK                            x       y       z     vdW  Elec       q    Type
REMARK                         _______ _______ _______ _____ _____    ______ ____
ROOT
ATOM      1  C   UNL     1       2.268   5.202  19.467  0.00  0.00    +0.000 C 
ATOM      2  O   UNL     1       2.095   4.623  18.152  0.00  0.00    +0.000 OA
ATOM      3  C   UNL     1       3.245   3.823  17.827  0.00  0.00    +0.000 C 
ATOM      4  C   UNL     1       4.322   4.004  18.905  0.00  0.00    +0.000 C 
ATOM      5  C   UNL     1       3.459   4.458  20.097  0.00  0.00    +0.000 C 
ENDROOT
BRANCH   4   6
ATOM      6  O   UNL     1       4.892   2.704  19.192  0.00  0.00    +0.000 OA
ATOM      7  H   UNL     1       4.258   2.010  18.941  0.00  0.00    +0.000 HD
ENDBRANCH   4   6
BRANCH   5   8
ATOM      8  O   UNL     1       2.917   3.326  20.813  0.00  0.00    +0.000 OA
ATOM      9  H   UNL     1       3.002   3.512  21.767  0.00  0.00    +0.000 HD
ENDBRANCH   5   8
BRANCH   1  10
ATOM     10  C   UNL     1       2.507   6.701  19.297  0.00  0.00    +0.000 C 
BRANCH  10  13
ATOM     11  O   UNL     1       1.478   9.190  18.804  0.00  0.00    +0.000 OA
ATOM     12  C   UNL     1       1.417   8.750  19.950  0.00  0.00    +0.000 C 
ATOM     13  N   UNL     1       2.019   7.565  20.338  0.00  0.00    +0.000 N 
ATOM     14  H   UNL     1       1.783   7.159  21.236  0.00  0.00    +0.000 HD
BRANCH  12  15
ATOM     15  C   UNL     1       0.683   9.524  20.974  0.00  0.00    +0.000 A 
ATOM     16  C   UNL     1       0.161   8.776  22.048  0.00  0.00    +0.000 A 
ATOM     17  C   UNL     1      -0.617   9.390  23.026  0.00  0.00    +0.000 A 
ATOM     18  C   UNL     1      -0.869  10.756  22.949  0.00  0.00    +0.000 A 
ATOM     19  C   UNL     1      -0.313  11.514  21.919  0.00  0.00    +0.000 A 
ATOM     20  C   UNL     1       0.477  10.907  20.938  0.00  0.00    +0.000 A 
ATOM     21 CL   UNL     1       1.191  11.963  19.767  0.00  0.00    +0.000 Cl
ENDBRANCH  12  15
ENDBRANCH  10  13
ENDBRANCH   1  10
BRANCH   4  22
ATOM     22  C   UNL     1       5.511   4.944  18.511  0.00  0.00    +0.000 C 
BRANCH  22  23
ATOM     23  N   UNL     1       5.694   5.196  17.084  0.00  0.00    +0.000 NA
ATOM     24  H   UNL     1       5.166   5.962  16.665  0.00  0.00    +0.000 HD
BRANCH  23  25
ATOM     25  S   UNL     1       7.229   5.253  16.388  0.00  0.00    +0.000 S 
ATOM     26  O   UNL     1       7.602   6.644  16.342  0.00  0.00    +0.000 OA
ATOM     27  O   UNL     1       8.035   4.286  17.108  0.00  0.00    +0.000 OA
BRANCH  25  28
ATOM     28  C   UNL     1       6.995   4.667  14.730  0.00  0.00    +0.000 A 
ATOM     29  C   UNL     1       5.961   3.785  14.395  0.00  0.00    +0.000 A 
ATOM     30  C   UNL     1       5.748   3.467  13.047  0.00  0.00    +0.000 A 
ATOM     31  C   UNL     1       6.552   4.031  12.053  0.00  0.00    +0.000 A 
ATOM     32  C   UNL     1       7.571   4.919  12.395  0.00  0.00    +0.000 A 
ATOM     33  C   UNL     1       7.787   5.242  13.730  0.00  0.00    +0.000 A 
ENDBRANCH  25  28
ENDBRANCH  23  25
ENDBRANCH  22  23
ENDBRANCH   4  22
TORSDOF 9
ENDMDL
MODEL 2
REMARK VINA RESULT:      -8.7      0.501      1.028
REMARK  Name = 
REMARK  9 active torsions:
REMARK  status: ('A' for Active; 'I' for Inactive)
REMARK    1  A    between atoms: C_2  and  C_23
REMARK    2  A    between atoms: N_3  and  C_4
REMARK    3  A    between atoms: C_4  and  C_5
REMARK    4  A    between atoms: C_8  and  O_9
REMARK    5  A    between atoms: C_8  and  C_10
REMARK    6  A    between atoms: C_10  and  N_11
REMARK    7  A    between atoms: N_11  and  S_12
REMARK    8  A    between atoms: S_12  and  C_15
REMARK    9  A    between atoms: C_21  and  O_22
REMARK                            x       y       z     vdW  Elec       q    Type
REMARK                         _______ _______ _______ _____ _____    ______ ____
ROOT
ATOM      1  C   UNL     1       2.139   4.867  19.456  0.00  0.00    +0.000 C 
ATOM      2  O   UNL     1       1.832   4.392  18.124  0.00  0.00    +0.000 OA
ATOM      3  C   UNL     1       2.830   3.442  17.714  0.00  0.00    +0.000 C 
ATOM      4  C   UNL     1       3.958   3.395  18.753  0.00  0.00    +0.000 C 
ATOM      5  C   UNL     1       3.218   3.914  20.000  0.00  0.00    +0.000 C 
ENDROOT
BRANCH   4   6
ATOM      6  O   UNL     1       4.326   2.009  18.955  0.00  0.00    +0.000 OA
ATOM      7  H   UNL     1       3.556   1.515  19.288  0.00  0.00    +0.000 HD
ENDBRANCH   4   6
BRANCH   5   8
ATOM      8  O   UNL     1       2.529   2.844  20.684  0.00  0.00    +0.000 OA
ATOM      9  H   UNL     1       3.202   2.293  21.124  0.00  0.00    +0.000 HD
ENDBRANCH   5   8
BRANCH   1  10
ATOM     10  C   UNL     1       2.605   6.317  19.347  0.00  0.00    +0.000 C 
BRANCH  10  13
ATOM     11  O   UNL     1       1.782   8.857  18.742  0.00  0.00    +0.000 OA
ATOM     12  C   UNL     1       1.625   8.452  19.892  0.00  0.00    +0.000 C 
ATOM     13  N   UNL     1       2.119   7.239  20.340  0.00  0.00    +0.000 N 
ATOM     14  H   UNL     1       1.804   6.872  21.230  0.00  0.00    +0.000 HD
BRANCH  12  15
ATOM     15  C   UNL     1       0.889   9.300  20.854  0.00  0.00    +0.000 A 
ATOM     16  C   UNL     1       0.514   8.672  22.058  0.00  0.00    +0.000 A 
ATOM     17  C   UNL     1      -0.253   9.352  23.002  0.00  0.00    +0.000 A 
ATOM     18  C   UNL     1      -0.640  10.666  22.758  0.00  0.00    +0.000 A 
ATOM     19  C   UNL     1      -0.228  11.312  21.593  0.00  0.00    +0.000 A 
ATOM     20  C   UNL     1       0.550  10.641  20.644  0.00  0.00    +0.000 A 
ATOM     21 CL   UNL     1       1.081  11.573  19.287  0.00  0.00    +0.000 Cl
ENDBRANCH  12  15
ENDBRANCH  10  13
ENDBRANCH   1  10
BRANCH   4  22
ATOM     22  C   UNL     1       5.266   4.159  18.355  0.00  0.00    +0.000 C 
BRANCH  22  23
ATOM     23  N   UNL     1       5.442   4.446  16.934  0.00  0.00    +0.000 NA
ATOM     24  H   UNL     1       4.680   4.918  16.446  0.00  0.00    +0.000 HD
BRANCH  23  25
ATOM     25  S   UNL     1       6.866   5.128  16.341  0.00  0.00    +0.000 S 
ATOM     26  O   UNL     1       6.756   6.548  16.557  0.00  0.00    +0.000 OA
ATOM     27  O   UNL     1       7.953   4.364  16.923  0.00  0.00    +0.000 OA
BRANCH  25  28
ATOM     28  C   UNL     1       6.827   4.810  14.596  0.00  0.00    +0.000 A 
ATOM     29  C   UNL     1       7.719   5.426  13.711  0.00  0.00    +0.000 A 
ATOM     30  C   UNL     1       7.726   5.032  12.366  0.00  0.00    +0.000 A 
ATOM     31  C   UNL     1       6.858   4.030  11.920  0.00  0.00    +0.000 A 
ATOM     32  C   UNL     1       5.982   3.413  12.811  0.00  0.00    +0.000 A 
ATOM     33  C   UNL     1       5.972   3.798  14.148  0.00  0.00    +0.000 A 
ENDBRANCH  25  28
ENDBRANCH  23  25
ENDBRANCH  22  23
ENDBRANCH   4  22
TORSDOF 9
ENDMDL
MODEL 3
REMARK VINA RESULT:      -8.6      1.386      1.809
REMARK  Name = 
REMARK  9 active torsions:
REMARK  status: ('A' for Active; 'I' for Inactive)
REMARK    1  A    between atoms: C_2  and  C_23
REMARK    2  A    between atoms: N_3  and  C_4
REMARK    3  A    between atoms: C_4  and  C_5
REMARK    4  A    between atoms: C_8  and  O_9
REMARK    5  A    between atoms: C_8  and  C_10
REMARK    6  A    between atoms: C_10  and  N_11
REMARK    7  A    between atoms: N_11  and  S_12
REMARK    8  A    between atoms: S_12  and  C_15
REMARK    9  A    between atoms: C_21  and  O_22
REMARK                            x       y       z     vdW  Elec       q    Type
REMARK                         _______ _______ _______ _____ _____    ______ ____
ROOT
ATOM      1  C   UNL     1       2.270   5.597  18.970  0.00  0.00    +0.000 C 
ATOM      2  O   UNL     1       2.201   4.862  17.725  0.00  0.00    +0.000 OA
ATOM      3  C   UNL     1       3.297   3.934  17.656  0.00  0.00    +0.000 C 
ATOM      4  C   UNL     1       4.248   4.169  18.837  0.00  0.00    +0.000 C 
ATOM      5  C   UNL     1       3.296   4.849  19.839  0.00  0.00    +0.000 C 
ENDROOT
BRANCH   4   6
ATOM      6  O   UNL     1       4.649   2.878  19.355  0.00  0.00    +0.000 OA
ATOM      7  H   UNL     1       4.098   2.652  20.125  0.00  0.00    +0.000 HD
ENDBRANCH   4   6
BRANCH   5   8
ATOM      8  O   UNL     1       2.563   3.872  20.611  0.00  0.00    +0.000 OA
ATOM      9  H   UNL     1       1.779   4.318  20.983  0.00  0.00    +0.000 HD
ENDBRANCH   5   8
BRANCH   1  10
ATOM     10  C   UNL     1       2.674   7.035  18.650  0.00  0.00    +0.000 C 
BRANCH  10  13
ATOM     11  O   UNL     1       2.011   9.387  17.416  0.00  0.00    +0.000 OA
ATOM     12  C   UNL     1       1.568   9.175  18.543  0.00  0.00    +0.000 C 
ATOM     13  N   UNL     1       1.943   8.084  19.309  0.00  0.00    +0.000 N 
ATOM     14  H   UNL     1       1.414   7.857  20.143  0.00  0.00    +0.000 HD
BRANCH  12  15
ATOM     15  C   UNL     1       0.604  10.132  19.125  0.00  0.00    +0.000 A 
ATOM     16  C   UNL     1       1.054  10.843  20.255  0.00  0.00    +0.000 A 
ATOM     17  C   UNL     1       0.200  11.711  20.932  0.00  0.00    +0.000 A 
ATOM     18  C   UNL     1      -1.104  11.886  20.480  0.00  0.00    +0.000 A 
ATOM     19  C   UNL     1      -1.541  11.228  19.331  0.00  0.00    +0.000 A 
ATOM     20  C   UNL     1      -0.689  10.362  18.640  0.00  0.00    +0.000 A 
ATOM     21 CL   UNL     1      -1.310   9.678  17.177  0.00  0.00    +0.000 Cl
ENDBRANCH  12  15
ENDBRANCH  10  13
ENDBRANCH   1  10
BRANCH   4  22
ATOM     22  C   UNL     1       5.562   4.947  18.491  0.00  0.00    +0.000 C 
BRANCH  22  23
ATOM     23  N   UNL     1       5.719   5.373  17.103  0.00  0.00    +0.000 NA
ATOM     24  H   UNL     1       5.256   6.236  16.815  0.00  0.00    +0.000 HD
BRANCH  23  25
ATOM     25  S   UNL     1       7.225   5.379  16.345  0.00  0.00    +0.000 S 
ATOM     26  O   UNL     1       7.675   6.748  16.348  0.00  0.00    +0.000 OA
ATOM     27  O   UNL     1       8.003   4.335  16.984  0.00  0.00    +0.000 OA
BRANCH  25  28
ATOM     28  C   UNL     1       6.892   4.889  14.673  0.00  0.00    +0.000 A 
ATOM     29  C   UNL     1       7.756   5.214  13.620  0.00  0.00    +0.000 A 
ATOM     30  C   UNL     1       7.507   4.684  12.348  0.00  0.00    +0.000 A 
ATOM     31  C   UNL     1       6.416   3.835  12.137  0.00  0.00    +0.000 A 
ATOM     32  C   UNL     1       5.569   3.507  13.194  0.00  0.00    +0.000 A 
ATOM     33  C   UNL     1       5.812   4.027  14.461  0.00  0.00    +0.000 A 
ENDBRANCH  25  28
ENDBRANCH  23  25
ENDBRANCH  22  23
ENDBRANCH   4  22
TORSDOF 9
ENDMDL
MODEL 4
REMARK VINA RESULT:      -8.5      2.294      3.089
REMARK  Name = 
REMARK  9 active torsions:
REMARK  status: ('A' for Active; 'I' for Inactive)
REMARK    1  A    between atoms: C_2  and  C_23
REMARK    2  A    between atoms: N_3  and  C_4
REMARK    3  A    between atoms: C_4  and  C_5
REMARK    4  A    between atoms: C_8  and  O_9
REMARK    5  A    between atoms: C_8  and  C_10
REMARK    6  A    between atoms: C_10  and  N_11
REMARK    7  A    between atoms: N_11  and  S_12
REMARK    8  A    between atoms: S_12  and  C_15
REMARK    9  A    between atoms: C_21  and  O_22
REMARK                            x       y       z     vdW  Elec       q    Type
REMARK                         _______ _______ _______ _____ _____    ______ ____
ROOT
ATOM      1  C   UNL     1       2.946   4.171  20.163  0.00  0.00    +0.000 C 
ATOM      2  O   UNL     1       1.739   3.414  19.915  0.00  0.00    +0.000 OA
ATOM      3  C   UNL     1       2.000   2.411  18.919  0.00  0.00    +0.000 C 
ATOM      4  C   UNL     1       3.409   2.607  18.344  0.00  0.00    +0.000 C 
ATOM      5  C   UNL     1       4.083   3.375  19.497  0.00  0.00    +0.000 C 
ENDROOT
BRANCH   4   6
ATOM      6  O   UNL     1       4.025   1.304  18.210  0.00  0.00    +0.000 OA
ATOM      7  H   UNL     1       3.967   1.011  17.284  0.00  0.00    +0.000 HD
ENDBRANCH   4   6
BRANCH   5   8
ATOM      8  O   UNL     1       4.604   2.471  20.495  0.00  0.00    +0.000 OA
ATOM      9  H   UNL     1       3.881   1.870  20.757  0.00  0.00    +0.000 HD
ENDBRANCH   5   8
BRANCH   1  10
ATOM     10  C   UNL     1       2.758   5.570  19.578  0.00  0.00    +0.000 C 
BRANCH  10  13
ATOM     11  O   UNL     1       2.368   8.163  18.791  0.00  0.00    +0.000 OA
ATOM     12  C   UNL     1       1.924   7.812  19.883  0.00  0.00    +0.000 C 
ATOM     13  N   UNL     1       2.175   6.567  20.435  0.00  0.00    +0.000 N 
ATOM     14  H   UNL     1       1.638   6.262  21.238  0.00  0.00    +0.000 HD
BRANCH  12  15
ATOM     15  C   UNL     1       1.096   8.761  20.657  0.00  0.00    +0.000 A 
ATOM     16  C   UNL     1       1.223   8.680  22.058  0.00  0.00    +0.000 A 
ATOM     17  C   UNL     1       0.431   9.469  22.887  0.00  0.00    +0.000 A 
ATOM     18  C   UNL     1      -0.484  10.355  22.327  0.00  0.00    +0.000 A 
ATOM     19  C   UNL     1      -0.579  10.480  20.941  0.00  0.00    +0.000 A 
ATOM     20  C   UNL     1       0.219   9.698  20.101  0.00  0.00    +0.000 A 
ATOM     21 CL   UNL     1       0.083  10.009  18.404  0.00  0.00    +0.000 Cl
ENDBRANCH  12  15
ENDBRANCH  10  13
ENDBRANCH   1  10
BRANCH   4  22
ATOM     22  C   UNL     1       3.467   3.284  16.933  0.00  0.00    +0.000 C 
BRANCH  22  23
ATOM     23  N   UNL     1       4.163   4.565  16.855  0.00  0.00    +0.000 NA
ATOM     24  H   UNL     1       4.335   5.066  17.728  0.00  0.00    +0.000 HD
BRANCH  23  25
ATOM     25  S   UNL     1       5.556   4.759  15.925  0.00  0.00    +0.000 S 
ATOM     26  O   UNL     1       6.081   3.436  15.700  0.00  0.00    +0.000 OA
ATOM     27  O   UNL     1       5.185   5.615  14.814  0.00  0.00    +0.000 OA
BRANCH  25  28
ATOM     28  C   UNL     1       6.678   5.650  16.971  0.00  0.00    +0.000 A 
ATOM     29  C   UNL     1       6.956   7.008  16.772  0.00  0.00    +0.000 A 
ATOM     30  C   UNL     1       7.744   7.686  17.711  0.00  0.00    +0.000 A 
ATOM     31  C   UNL     1       8.238   7.016  18.834  0.00  0.00    +0.000 A 
ATOM     32  C   UNL     1       7.945   5.667  19.031  0.00  0.00    +0.000 A 
ATOM     33  C   UNL     1       7.160   4.988  18.104  0.00  0.00    +0.000 A 
ENDBRANCH  25  28
ENDBRANCH  23  25
ENDBRANCH  22  23
ENDBRANCH   4  22
TORSDOF 9
ENDMDL
MODEL 5
REMARK VINA RESULT:      -8.5      1.450      2.043
REMARK  Name = 
REMARK  9 active torsions:
REMARK  status: ('A' for Active; 'I' for Inactive)
REMARK    1  A    between atoms: C_2  and  C_23
REMARK    2  A    between atoms: N_3  and  C_4
REMARK    3  A    between atoms: C_4  and  C_5
REMARK    4  A    between atoms: C_8  and  O_9
REMARK    5  A    between atoms: C_8  and  C_10
REMARK    6  A    between atoms: C_10  and  N_11
REMARK    7  A    between atoms: N_11  and  S_12
REMARK    8  A    between atoms: S_12  and  C_15
REMARK    9  A    between atoms: C_21  and  O_22
REMARK                            x       y       z     vdW  Elec       q    Type
REMARK                         _______ _______ _______ _____ _____    ______ ____
ROOT
ATOM      1  C   UNL     1       2.258   5.681  19.321  0.00  0.00    +0.000 C 
ATOM      2  O   UNL     1       2.000   5.056  18.042  0.00  0.00    +0.000 OA
ATOM      3  C   UNL     1       3.052   4.122  17.746  0.00  0.00    +0.000 C 
ATOM      4  C   UNL     1       4.161   4.241  18.799  0.00  0.00    +0.000 C 
ATOM      5  C   UNL     1       3.373   4.846  19.976  0.00  0.00    +0.000 C 
ENDROOT
BRANCH   4   6
ATOM      6  O   UNL     1       4.594   2.904  19.148  0.00  0.00    +0.000 OA
ATOM      7  H   UNL     1       4.564   2.795  20.115  0.00  0.00    +0.000 HD
ENDBRANCH   4   6
BRANCH   5   8
ATOM      8  O   UNL     1       2.726   3.818  20.758  0.00  0.00    +0.000 OA
ATOM      9  H   UNL     1       2.575   4.178  21.652  0.00  0.00    +0.000 HD
ENDBRANCH   5   8
BRANCH   1  10
ATOM     10  C   UNL     1       2.653   7.135  19.069  0.00  0.00    +0.000 C 
BRANCH  10  13
ATOM     11  O   UNL     1       2.132   9.255  17.418  0.00  0.00    +0.000 OA
ATOM     12  C   UNL     1       1.421   9.100  18.409  0.00  0.00    +0.000 C 
ATOM     13  N   UNL     1       1.674   8.143  19.377  0.00  0.00    +0.000 N 
ATOM     14  H   UNL     1       0.962   7.934  20.068  0.00  0.00    +0.000 HD
BRANCH  12  15
ATOM     15  C   UNL     1       0.249   9.982  18.594  0.00  0.00    +0.000 A 
ATOM     16  C   UNL     1      -0.790   9.822  17.657  0.00  0.00    +0.000 A 
ATOM     17  C   UNL     1      -1.905  10.656  17.686  0.00  0.00    +0.000 A 
ATOM     18  C   UNL     1      -1.999  11.646  18.659  0.00  0.00    +0.000 A 
ATOM     19  C   UNL     1      -1.000  11.776  19.624  0.00  0.00    +0.000 A 
ATOM     20  C   UNL     1       0.119  10.938  19.607  0.00  0.00    +0.000 A 
ATOM     21 CL   UNL     1       1.243  11.130  20.909  0.00  0.00    +0.000 Cl
ENDBRANCH  12  15
ENDBRANCH  10  13
ENDBRANCH   1  10
BRANCH   4  22
ATOM     22  C   UNL     1       5.436   5.026  18.341  0.00  0.00    +0.000 C 
BRANCH  22  23
ATOM     23  N   UNL     1       5.634   5.158  16.900  0.00  0.00    +0.000 NA
ATOM     24  H   UNL     1       5.058   5.836  16.401  0.00  0.00    +0.000 HD
BRANCH  23  25
ATOM     25  S   UNL     1       7.176   5.274  16.227  0.00  0.00    +0.000 S 
ATOM     26  O   UNL     1       7.556   6.661  16.322  0.00  0.00    +0.000 OA
ATOM     27  O   UNL     1       7.971   4.237  16.857  0.00  0.00    +0.000 OA
BRANCH  25  28
ATOM     28  C   UNL     1       6.957   4.856  14.517  0.00  0.00    +0.000 A 
ATOM     29  C   UNL     1       7.812   5.340  13.521  0.00  0.00    +0.000 A 
ATOM     30  C   UNL     1       7.668   4.867  12.211  0.00  0.00    +0.000 A 
ATOM     31  C   UNL     1       6.688   3.917  11.907  0.00  0.00    +0.000 A 
ATOM     32  C   UNL     1       5.849   3.430  12.908  0.00  0.00    +0.000 A 
ATOM     33  C   UNL     1       5.989   3.894  14.213  0.00  0.00    +0.000 A 
ENDBRANCH  25  28
ENDBRANCH  23  25
ENDBRANCH  22  23
ENDBRANCH   4  22
TORSDOF 9
ENDMDL
MODEL 6
REMARK VINA RESULT:      -8.4      4.786      7.744
REMARK  Name = 
REMARK  9 active torsions:
REMARK  status: ('A' for Active; 'I' for Inactive)
REMARK    1  A    between atoms: C_2  and  C_23
REMARK    2  A    between atoms: N_3  and  C_4
REMARK    3  A    between atoms: C_4  and  C_5
REMARK    4  A    between atoms: C_8  and  O_9
REMARK    5  A    between atoms: C_8  and  C_10
REMARK    6  A    between atoms: C_10  and  N_11
REMARK    7  A    between atoms: N_11  and  S_12
REMARK    8  A    between atoms: S_12  and  C_15
REMARK    9  A    between atoms: C_21  and  O_22
REMARK                            x       y       z     vdW  Elec       q    Type
REMARK                         _______ _______ _______ _____ _____    ______ ____
ROOT
ATOM      1  C   UNL     1       7.420   6.767  17.305  0.00  0.00    +0.000 C 
ATOM      2  O   UNL     1       7.899   5.409  17.161  0.00  0.00    +0.000 OA
ATOM      3  C   UNL     1       6.780   4.506  17.155  0.00  0.00    +0.000 C 
ATOM      4  C   UNL     1       5.492   5.276  17.477  0.00  0.00    +0.000 C 
ATOM      5  C   UNL     1       5.902   6.702  17.062  0.00  0.00    +0.000 C 
ENDROOT
BRANCH   4   6
ATOM      6  O   UNL     1       4.450   4.799  16.592  0.00  0.00    +0.000 OA
ATOM      7  H   UNL     1       3.706   4.461  17.120  0.00  0.00    +0.000 HD
ENDBRANCH   4   6
BRANCH   5   8
ATOM      8  O   UNL     1       5.691   6.918  15.650  0.00  0.00    +0.000 OA
ATOM      9  H   UNL     1       6.421   6.482  15.172  0.00  0.00    +0.000 HD
ENDBRANCH   5   8
BRANCH   1  10
ATOM     10  C   UNL     1       7.794   7.257  18.702  0.00  0.00    +0.000 C 
BRANCH  10  13
ATOM     11  O   UNL     1       7.557   9.858  17.882  0.00  0.00    +0.000 OA
ATOM     12  C   UNL     1       8.589   9.520  18.458  0.00  0.00    +0.000 C 
ATOM     13  N   UNL     1       8.869   8.208  18.798  0.00  0.00    +0.000 N 
ATOM     14  H   UNL     1       9.636   8.011  19.431  0.00  0.00    +0.000 HD
BRANCH  12  15
ATOM     15  C   UNL     1       9.592  10.553  18.793  0.00  0.00    +0.000 A 
ATOM     16  C   UNL     1      10.363  11.029  17.714  0.00  0.00    +0.000 A 
ATOM     17  C   UNL     1      11.392  11.942  17.927  0.00  0.00    +0.000 A 
ATOM     18  C   UNL     1      11.652  12.399  19.215  0.00  0.00    +0.000 A 
ATOM     19  C   UNL     1      10.860  11.974  20.281  0.00  0.00    +0.000 A 
ATOM     20  C   UNL     1       9.819  11.064  20.075  0.00  0.00    +0.000 A 
ATOM     21 CL   UNL     1       8.845  10.686  21.455  0.00  0.00    +0.000 Cl
ENDBRANCH  12  15
ENDBRANCH  10  13
ENDBRANCH   1  10
BRANCH   4  22
ATOM     22  C   UNL     1       4.959   5.105  18.939  0.00  0.00    +0.000 C 
BRANCH  22  23
ATOM     23  N   UNL     1       4.219   6.234  19.497  0.00  0.00    +0.000 NA
ATOM     24  H   UNL     1       4.639   7.161  19.423  0.00  0.00    +0.000 HD
BRANCH  23  25
ATOM     25  S   UNL     1       2.573   6.445  19.200  0.00  0.00    +0.000 S 
ATOM     26  O   UNL     1       2.084   7.326  20.230  0.00  0.00    +0.000 OA
ATOM     27  O   UNL     1       2.457   6.797  17.798  0.00  0.00    +0.000 OA
BRANCH  25  28
ATOM     28  C   UNL     1       1.861   4.837  19.437  0.00  0.00    +0.000 A 
ATOM     29  C   UNL     1       1.554   3.997  18.360  0.00  0.00    +0.000 A 
ATOM     30  C   UNL     1       1.121   2.690  18.617  0.00  0.00    +0.000 A 
ATOM     31  C   UNL     1       1.006   2.231  19.933  0.00  0.00    +0.000 A 
ATOM     32  C   UNL     1       1.327   3.070  20.999  0.00  0.00    +0.000 A 
ATOM     33  C   UNL     1       1.761   4.368  20.750  0.00  0.00    +0.000 A 
ENDBRANCH  25  28
ENDBRANCH  23  25
ENDBRANCH  22  23
ENDBRANCH   4  22
TORSDOF 9
ENDMDL
MODEL 7
REMARK VINA RESULT:      -8.3      4.968      7.432
REMARK  Name = 
REMARK  9 active torsions:
REMARK  status: ('A' for Active; 'I' for Inactive)
REMARK    1  A    between atoms: C_2  and  C_23
REMARK    2  A    between atoms: N_3  and  C_4
REMARK    3  A    between atoms: C_4  and  C_5
REMARK    4  A    between atoms: C_8  and  O_9
REMARK    5  A    between atoms: C_8  and  C_10
REMARK    6  A    between atoms: C_10  and  N_11
REMARK    7  A    between atoms: N_11  and  S_12
REMARK    8  A    between atoms: S_12  and  C_15
REMARK    9  A    between atoms: C_21  and  O_22
REMARK                            x       y       z     vdW  Elec       q    Type
REMARK                         _______ _______ _______ _____ _____    ______ ____
ROOT
ATOM      1  C   UNL     1       7.943   6.131  18.456  0.00  0.00    +0.000 C 
ATOM      2  O   UNL     1       7.239   5.820  19.681  0.00  0.00    +0.000 OA
ATOM      3  C   UNL     1       6.049   5.075  19.372  0.00  0.00    +0.000 C 
ATOM      4  C   UNL     1       5.851   5.023  17.851  0.00  0.00    +0.000 C 
ATOM      5  C   UNL     1       7.295   5.256  17.368  0.00  0.00    +0.000 C 
ENDROOT
BRANCH   4   6
ATOM      6  O   UNL     1       5.437   3.681  17.498  0.00  0.00    +0.000 OA
ATOM      7  H   UNL     1       4.877   3.318  18.207  0.00  0.00    +0.000 HD
ENDBRANCH   4   6
BRANCH   5   8
ATOM      8  O   UNL     1       8.039   4.019  17.325  0.00  0.00    +0.000 OA
ATOM      9  H   UNL     1       8.984   4.246  17.232  0.00  0.00    +0.000 HD
ENDBRANCH   5   8
BRANCH   1  10
ATOM     10  C   UNL     1       7.802   7.630  18.196  0.00  0.00    +0.000 C 
BRANCH  10  13
ATOM     11  O   UNL     1       8.098  10.272  17.541  0.00  0.00    +0.000 OA
ATOM     12  C   UNL     1       8.703   9.843  18.521  0.00  0.00    +0.000 C 
ATOM     13  N   UNL     1       8.730   8.502  18.866  0.00  0.00    +0.000 N 
ATOM     14  H   UNL     1       9.082   8.229  19.776  0.00  0.00    +0.000 HD
BRANCH  12  15
ATOM     15  C   UNL     1       9.455  10.792  19.370  0.00  0.00    +0.000 A 
ATOM     16  C   UNL     1       9.057  10.853  20.719  0.00  0.00    +0.000 A 
ATOM     17  C   UNL     1       9.640  11.771  21.589  0.00  0.00    +0.000 A 
ATOM     18  C   UNL     1      10.635  12.625  21.123  0.00  0.00    +0.000 A 
ATOM     19  C   UNL     1      11.073  12.535  19.802  0.00  0.00    +0.000 A 
ATOM     20  C   UNL     1      10.498  11.611  18.924  0.00  0.00    +0.000 A 
ATOM     21 CL   UNL     1      11.188  11.525  17.340  0.00  0.00    +0.000 Cl
ENDBRANCH  12  15
ENDBRANCH  10  13
ENDBRANCH   1  10
BRANCH   4  22
ATOM     22  C   UNL     1       4.764   5.998  17.285  0.00  0.00    +0.000 C 
BRANCH  22  23
ATOM     23  N   UNL     1       4.166   6.928  18.239  0.00  0.00    +0.000 NA
ATOM     24  H   UNL     1       4.387   7.920  18.138  0.00  0.00    +0.000 HD
BRANCH  23  25
ATOM     25  S   UNL     1       2.530   6.854  18.638  0.00  0.00    +0.000 S 
ATOM     26  O   UNL     1       2.364   7.660  19.821  0.00  0.00    +0.000 OA
ATOM     27  O   UNL     1       1.803   7.157  17.420  0.00  0.00    +0.000 OA
BRANCH  25  28
ATOM     28  C   UNL     1       2.242   5.154  19.057  0.00  0.00    +0.000 A 
ATOM     29  C   UNL     1       2.374   4.682  20.368  0.00  0.00    +0.000 A 
ATOM     30  C   UNL     1       2.003   3.363  20.656  0.00  0.00    +0.000 A 
ATOM     31  C   UNL     1       1.500   2.534  19.649  0.00  0.00    +0.000 A 
ATOM     32  C   UNL     1       1.361   3.017  18.349  0.00  0.00    +0.000 A 
ATOM     33  C   UNL     1       1.724   4.327  18.055  0.00  0.00    +0.000 A 
ENDBRANCH  25  28
ENDBRANCH  23  25
ENDBRANCH  22  23
ENDBRANCH   4  22
TORSDOF 9
ENDMDL
MODEL 8
REMARK VINA RESULT:      -8.3      1.298      1.829
REMARK  Name = 
REMARK  9 active torsions:
REMARK  status: ('A' for Active; 'I' for Inactive)
REMARK    1  A    between atoms: C_2  and  C_23
REMARK    2  A    between atoms: N_3  and  C_4
REMARK    3  A    between atoms: C_4  and  C_5
REMARK    4  A    between atoms: C_8  and  O_9
REMARK    5  A    between atoms: C_8  and  C_10
REMARK    6  A    between atoms: C_10  and  N_11
REMARK    7  A    between atoms: N_11  and  S_12
REMARK    8  A    between atoms: S_12  and  C_15
REMARK    9  A    between atoms: C_21  and  O_22
REMARK                            x       y       z     vdW  Elec       q    Type
REMARK                         _______ _______ _______ _____ _____    ______ ____
ROOT
ATOM      1  C   UNL     1       2.126   3.551  18.446  0.00  0.00    +0.000 C 
ATOM      2  O   UNL     1       2.698   2.773  17.368  0.00  0.00    +0.000 OA
ATOM      3  C   UNL     1       4.065   2.456  17.681  0.00  0.00    +0.000 C 
ATOM      4  C   UNL     1       4.489   3.195  18.957  0.00  0.00    +0.000 C 
ATOM      5  C   UNL     1       3.118   3.432  19.617  0.00  0.00    +0.000 C 
ENDROOT
BRANCH   4   6
ATOM      6  O   UNL     1       5.261   2.279  19.770  0.00  0.00    +0.000 OA
ATOM      7  H   UNL     1       5.545   1.523  19.226  0.00  0.00    +0.000 HD
ENDBRANCH   4   6
BRANCH   5   8
ATOM      8  O   UNL     1       2.708   2.290  20.402  0.00  0.00    +0.000 OA
ATOM      9  H   UNL     1       3.515   1.871  20.757  0.00  0.00    +0.000 HD
ENDBRANCH   5   8
BRANCH   1  10
ATOM     10  C   UNL     1       1.936   4.983  17.951  0.00  0.00    +0.000 C 
BRANCH  10  13
ATOM     11  O   UNL     1       3.335   7.300  18.363  0.00  0.00    +0.000 OA
ATOM     12  C   UNL     1       2.269   7.149  18.956  0.00  0.00    +0.000 C 
ATOM     13  N   UNL     1       1.547   5.968  18.924  0.00  0.00    +0.000 N 
ATOM     14  H   UNL     1       0.595   5.958  19.271  0.00  0.00    +0.000 HD
BRANCH  12  15
ATOM     15  C   UNL     1       1.733   8.269  19.759  0.00  0.00    +0.000 A 
ATOM     16  C   UNL     1       1.524   7.996  21.125  0.00  0.00    +0.000 A 
ATOM     17  C   UNL     1       0.946   8.952  21.958  0.00  0.00    +0.000 A 
ATOM     18  C   UNL     1       0.584  10.190  21.437  0.00  0.00    +0.000 A 
ATOM     19  C   UNL     1       0.836  10.488  20.098  0.00  0.00    +0.000 A 
ATOM     20  C   UNL     1       1.424   9.538  19.258  0.00  0.00    +0.000 A 
ATOM     21 CL   UNL     1       1.774  10.053  17.643  0.00  0.00    +0.000 Cl
ENDBRANCH  12  15
ENDBRANCH  10  13
ENDBRANCH   1  10
BRANCH   4  22
ATOM     22  C   UNL     1       5.378   4.463  18.730  0.00  0.00    +0.000 C 
BRANCH  22  23
ATOM     23  N   UNL     1       5.466   4.958  17.359  0.00  0.00    +0.000 NA
ATOM     24  H   UNL     1       4.844   5.720  17.088  0.00  0.00    +0.000 HD
BRANCH  23  25
ATOM     25  S   UNL     1       6.951   5.290  16.633  0.00  0.00    +0.000 S 
ATOM     26  O   UNL     1       7.142   6.715  16.732  0.00  0.00    +0.000 OA
ATOM     27  O   UNL     1       7.903   4.366  17.220  0.00  0.00    +0.000 OA
BRANCH  25  28
ATOM     28  C   UNL     1       6.727   4.859  14.927  0.00  0.00    +0.000 A 
ATOM     29  C   UNL     1       7.623   5.275  13.934  0.00  0.00    +0.000 A 
ATOM     30  C   UNL     1       7.465   4.790  12.630  0.00  0.00    +0.000 A 
ATOM     31  C   UNL     1       6.433   3.897  12.328  0.00  0.00    +0.000 A 
ATOM     32  C   UNL     1       5.554   3.478  13.325  0.00  0.00    +0.000 A 
ATOM     33  C   UNL     1       5.706   3.953  14.624  0.00  0.00    +0.000 A 
ENDBRANCH  25  28
ENDBRANCH  23  25
ENDBRANCH  22  23
ENDBRANCH   4  22
TORSDOF 9
ENDMDL
MODEL 9
REMARK VINA RESULT:      -8.2      3.111      7.294
REMARK  Name = 
REMARK  9 active torsions:
REMARK  status: ('A' for Active; 'I' for Inactive)
REMARK    1  A    between atoms: C_2  and  C_23
REMARK    2  A    between atoms: N_3  and  C_4
REMARK    3  A    between atoms: C_4  and  C_5
REMARK    4  A    between atoms: C_8  and  O_9
REMARK    5  A    between atoms: C_8  and  C_10
REMARK    6  A    between atoms: C_10  and  N_11
REMARK    7  A    between atoms: N_11  and  S_12
REMARK    8  A    between atoms: S_12  and  C_15
REMARK    9  A    between atoms: C_21  and  O_22
REMARK                            x       y       z     vdW  Elec       q    Type
REMARK                         _______ _______ _______ _____ _____    ______ ____
ROOT
ATOM      1  C   UNL     1       6.393   3.856  16.464  0.00  0.00    +0.000 C 
ATOM      2  O   UNL     1       6.838   4.373  15.188  0.00  0.00    +0.000 OA
ATOM      3  C   UNL     1       6.849   5.810  15.232  0.00  0.00    +0.000 C 
ATOM      4  C   UNL     1       6.224   6.292  16.548  0.00  0.00    +0.000 C 
ATOM      5  C   UNL     1       6.433   5.050  17.434  0.00  0.00    +0.000 C 
ENDROOT
BRANCH   4   6
ATOM      6  O   UNL     1       7.029   7.384  17.053  0.00  0.00    +0.000 OA
ATOM      7  H   UNL     1       6.451   8.047  17.472  0.00  0.00    +0.000 HD
ENDBRANCH   4   6
BRANCH   5   8
ATOM      8  O   UNL     1       7.743   5.055  18.043  0.00  0.00    +0.000 OA
ATOM      9  H   UNL     1       8.302   4.428  17.546  0.00  0.00    +0.000 HD
ENDBRANCH   5   8
BRANCH   1  10
ATOM     10  C   UNL     1       4.995   3.268  16.278  0.00  0.00    +0.000 C 
BRANCH  10  13
ATOM     11  O   UNL     1       3.769   1.219  17.616  0.00  0.00    +0.000 OA
ATOM     12  C   UNL     1       3.583   2.368  18.013  0.00  0.00    +0.000 C 
ATOM     13  N   UNL     1       4.046   3.484  17.337  0.00  0.00    +0.000 N 
ATOM     14  H   UNL     1       4.030   4.387  17.797  0.00  0.00    +0.000 HD
BRANCH  12  15
ATOM     15  C   UNL     1       2.817   2.579  19.259  0.00  0.00    +0.000 A 
ATOM     16  C   UNL     1       1.478   2.982  19.092  0.00  0.00    +0.000 A 
ATOM     17  C   UNL     1       0.687   3.288  20.197  0.00  0.00    +0.000 A 
ATOM     18  C   UNL     1       1.222   3.183  21.477  0.00  0.00    +0.000 A 
ATOM     19  C   UNL     1       2.531   2.734  21.654  0.00  0.00    +0.000 A 
ATOM     20  C   UNL     1       3.328   2.415  20.551  0.00  0.00    +0.000 A 
ATOM     21 CL   UNL     1       4.900   1.778  20.898  0.00  0.00    +0.000 Cl
ENDBRANCH  12  15
ENDBRANCH  10  13
ENDBRANCH   1  10
BRANCH   4  22
ATOM     22  C   UNL     1       4.756   6.824  16.434  0.00  0.00    +0.000 C 
BRANCH  22  23
ATOM     23  N   UNL     1       4.176   7.396  17.647  0.00  0.00    +0.000 NA
ATOM     24  H   UNL     1       3.843   8.360  17.605  0.00  0.00    +0.000 HD
BRANCH  23  25
ATOM     25  S   UNL     1       3.044   6.551  18.567  0.00  0.00    +0.000 S 
ATOM     26  O   UNL     1       2.214   5.835  17.632  0.00  0.00    +0.000 OA
ATOM     27  O   UNL     1       3.797   5.848  19.588  0.00  0.00    +0.000 OA
BRANCH  25  28
ATOM     28  C   UNL     1       2.070   7.809  19.352  0.00  0.00    +0.000 A 
ATOM     29  C   UNL     1       1.606   8.929  18.654  0.00  0.00    +0.000 A 
ATOM     30  C   UNL     1       0.730   9.816  19.295  0.00  0.00    +0.000 A 
ATOM     31  C   UNL     1       0.322   9.578  20.610  0.00  0.00    +0.000 A 
ATOM     32  C   UNL     1       0.780   8.452  21.293  0.00  0.00    +0.000 A 
ATOM     33  C   UNL     1       1.647   7.566  20.662  0.00  0.00    +0.000 A 
ENDBRANCH  25  28
ENDBRANCH  23  25
ENDBRANCH  22  23
ENDBRANCH   4  22
TORSDOF 9
ENDMDL
