MODEL 1
REMARK VINA RESULT:      -7.3      0.000      0.000
REMARK  Name = 
REMARK  8 active torsions:
REMARK  status: ('A' for Active; 'I' for Inactive)
REMARK    1  A    between atoms: C_1  and  C_2
REMARK    2  A    between atoms: C_2  and  N_3
REMARK    3  A    between atoms: N_3  and  C_4
REMARK    4  A    between atoms: C_4  and  C_5
REMARK    5  A    between atoms: C_6  and  C_8
REMARK    6  A    between atoms: C_8  and  C_9
REMARK    7  A    between atoms: C_8  and  N_15
REMARK    8  A    between atoms: C_19  and  C_20
REMARK                            x       y       z     vdW  Elec       q    Type
REMARK                         _______ _______ _______ _____ _____    ______ ____
ROOT
ATOM      1  C   UNL     1       3.689   6.112  18.182  0.00  0.00    +0.000 C 
ENDROOT
BRANCH   1   2
ATOM      2  N   UNL     1       2.978   4.984  17.495  0.00  0.00    +0.000 NA
ATOM      3  C   UNL     1       1.573   4.791  17.893  0.00  0.00    +0.000 C 
ATOM      4  C   UNL     1       1.356   4.093  19.246  0.00  0.00    +0.000 C 
ATOM      5  N   UNL     1       2.371   3.102  19.522  0.00  0.00    +0.000 N 
ATOM      6  C   UNL     1       2.647   2.459  20.697  0.00  0.00    +0.000 A 
ATOM      7  C   UNL     1       1.950   2.699  21.979  0.00  0.00    +0.000 C 
ATOM      8  N   UNL     1       3.694   1.679  20.506  0.00  0.00    +0.000 NA
ATOM      9  N   UNL     1       4.196   1.936  19.247  0.00  0.00    +0.000 NA
ATOM     10  C   UNL     1       3.442   2.864  18.703  0.00  0.00    +0.000 A 
ATOM     11  C   UNL     1       3.675   3.675  17.478  0.00  0.00    +0.000 C 
ENDBRANCH   1   2
BRANCH   1  12
ATOM     12  C   UNL     1       2.750   7.284  18.500  0.00  0.00    +0.000 A 
ATOM     13  C   UNL     1       2.348   8.200  17.514  0.00  0.00    +0.000 A 
ATOM     14  C   UNL     1       1.508   9.273  17.820  0.00  0.00    +0.000 A 
ATOM     15  C   UNL     1       1.047   9.436  19.122  0.00  0.00    +0.000 A 
ATOM     16  C   UNL     1       1.409   8.525  20.108  0.00  0.00    +0.000 A 
ATOM     17  C   UNL     1       2.254   7.449  19.805  0.00  0.00    +0.000 A 
ENDBRANCH   1  12
BRANCH   1  19
ATOM     18  N   UNL     1       6.257   6.309  17.992  0.00  0.00    +0.000 N 
ATOM     19  C   UNL     1       4.997   6.612  17.477  0.00  0.00    +0.000 C 
ATOM     20  O   UNL     1       4.941   7.289  16.447  0.00  0.00    +0.000 OA
BRANCH  18  22
ATOM     21  C   UNL     1       7.865   8.209  17.601  0.00  0.00    +0.000 C 
ATOM     22  C   UNL     1       7.412   6.803  17.225  0.00  0.00    +0.000 C 
ENDBRANCH  18  22
BRANCH  18  23
ATOM     23  C   UNL     1       6.517   5.597  19.244  0.00  0.00    +0.000 C 
ATOM     24  C   UNL     1       7.987   5.547  19.624  0.00  0.00    +0.000 C 
ENDBRANCH  18  23
ENDBRANCH   1  19
TORSDOF 5
ENDMDL
MODEL 2
REMARK VINA RESULT:      -7.1      2.070      5.318
REMARK  Name = 
REMARK  8 active torsions:
REMARK  status: ('A' for Active; 'I' for Inactive)
REMARK    1  A    between atoms: C_1  and  C_2
REMARK    2  A    between atoms: C_2  and  N_3
REMARK    3  A    between atoms: N_3  and  C_4
REMARK    4  A    between atoms: C_4  and  C_5
REMARK    5  A    between atoms: C_6  and  C_8
REMARK    6  A    between atoms: C_8  and  C_9
REMARK    7  A    between atoms: C_8  and  N_15
REMARK    8  A    between atoms: C_19  and  C_20
REMARK                            x       y       z     vdW  Elec       q    Type
REMARK                         _______ _______ _______ _____ _____    ______ ____
ROOT
ATOM      1  C   UNL     1       3.255   6.366  18.398  0.00  0.00    +0.000 C 
ENDROOT
BRANCH   1   2
ATOM      2  N   UNL     1       4.036   5.871  17.216  0.00  0.00    +0.000 NA
ATOM      3  C   UNL     1       4.680   4.559  17.395  0.00  0.00    +0.000 C 
ATOM      4  C   UNL     1       5.969   4.559  18.235  0.00  0.00    +0.000 C 
ATOM      5  N   UNL     1       6.737   5.771  18.061  0.00  0.00    +0.000 N 
ATOM      6  C   UNL     1       7.791   6.233  18.799  0.00  0.00    +0.000 A 
ATOM      7  C   UNL     1       8.343   5.567  19.999  0.00  0.00    +0.000 C 
ATOM      8  N   UNL     1       8.150   7.408  18.317  0.00  0.00    +0.000 NA
ATOM      9  N   UNL     1       7.225   7.782  17.365  0.00  0.00    +0.000 NA
ATOM     10  C   UNL     1       6.328   6.825  17.289  0.00  0.00    +0.000 A 
ATOM     11  C   UNL     1       5.002   6.822  16.615  0.00  0.00    +0.000 C 
ENDBRANCH   1   2
BRANCH   1  12
ATOM     12  C   UNL     1       2.459   5.245  19.081  0.00  0.00    +0.000 A 
ATOM     13  C   UNL     1       2.600   4.967  20.450  0.00  0.00    +0.000 A 
ATOM     14  C   UNL     1       1.885   3.933  21.058  0.00  0.00    +0.000 A 
ATOM     15  C   UNL     1       1.003   3.168  20.300  0.00  0.00    +0.000 A 
ATOM     16  C   UNL     1       0.827   3.445  18.949  0.00  0.00    +0.000 A 
ATOM     17  C   UNL     1       1.546   4.480  18.336  0.00  0.00    +0.000 A 
ENDBRANCH   1  12
BRANCH   1  19
ATOM     18  N   UNL     1       1.772   8.331  19.179  0.00  0.00    +0.000 N 
ATOM     19  C   UNL     1       2.351   7.617  18.129  0.00  0.00    +0.000 C 
ATOM     20  O   UNL     1       2.127   8.001  16.978  0.00  0.00    +0.000 OA
BRANCH  18  22
ATOM     21  C   UNL     1       1.780  10.789  18.625  0.00  0.00    +0.000 C 
ATOM     22  C   UNL     1       0.972   9.509  18.805  0.00  0.00    +0.000 C 
ENDBRANCH  18  22
BRANCH  18  23
ATOM     23  C   UNL     1       1.853   7.976  20.596  0.00  0.00    +0.000 C 
ATOM     24  C   UNL     1       0.712   8.533  21.431  0.00  0.00    +0.000 C 
ENDBRANCH  18  23
ENDBRANCH   1  19
TORSDOF 5
ENDMDL
MODEL 3
REMARK VINA RESULT:      -6.7      1.406      2.301
REMARK  Name = 
REMARK  8 active torsions:
REMARK  status: ('A' for Active; 'I' for Inactive)
REMARK    1  A    between atoms: C_1  and  C_2
REMARK    2  A    between atoms: C_2  and  N_3
REMARK    3  A    between atoms: N_3  and  C_4
REMARK    4  A    between atoms: C_4  and  C_5
REMARK    5  A    between atoms: C_6  and  C_8
REMARK    6  A    between atoms: C_8  and  C_9
REMARK    7  A    between atoms: C_8  and  N_15
REMARK    8  A    between atoms: C_19  and  C_20
REMARK                            x       y       z     vdW  Elec       q    Type
REMARK                         _______ _______ _______ _____ _____    ______ ____
ROOT
ATOM      1  C   UNL     1       2.495   6.351  19.425  0.00  0.00    +0.000 C 
ENDROOT
BRANCH   1   2
ATOM      2  N   UNL     1       1.453   5.276  19.331  0.00  0.00    +0.000 NA
ATOM      3  C   UNL     1       1.243   4.495  20.562  0.00  0.00    +0.000 C 
ATOM      4  C   UNL     1       2.308   3.426  20.861  0.00  0.00    +0.000 C 
ATOM      5  N   UNL     1       2.837   2.827  19.657  0.00  0.00    +0.000 N 
ATOM      6  C   UNL     1       3.939   2.031  19.507  0.00  0.00    +0.000 A 
ATOM      7  C   UNL     1       4.865   1.649  20.595  0.00  0.00    +0.000 C 
ATOM      8  N   UNL     1       4.080   1.758  18.223  0.00  0.00    +0.000 NA
ATOM      9  N   UNL     1       3.160   2.508  17.521  0.00  0.00    +0.000 NA
ATOM     10  C   UNL     1       2.480   3.217  18.394  0.00  0.00    +0.000 A 
ATOM     11  C   UNL     1       1.552   4.358  18.170  0.00  0.00    +0.000 C 
ENDBRANCH   1   2
BRANCH   1  12
ATOM     12  C   UNL     1       1.902   7.702  19.848  0.00  0.00    +0.000 A 
ATOM     13  C   UNL     1       1.579   7.982  21.185  0.00  0.00    +0.000 A 
ATOM     14  C   UNL     1       1.022   9.209  21.556  0.00  0.00    +0.000 A 
ATOM     15  C   UNL     1       0.793  10.181  20.587  0.00  0.00    +0.000 A 
ATOM     16  C   UNL     1       1.132   9.935  19.262  0.00  0.00    +0.000 A 
ATOM     17  C   UNL     1       1.688   8.704  18.887  0.00  0.00    +0.000 A 
ENDBRANCH   1  12
BRANCH   1  19
ATOM     18  N   UNL     1       4.706   5.977  18.143  0.00  0.00    +0.000 N 
ATOM     19  C   UNL     1       3.416   6.508  18.167  0.00  0.00    +0.000 C 
ATOM     20  O   UNL     1       3.021   7.109  17.164  0.00  0.00    +0.000 OA
BRANCH  18  22
ATOM     21  C   UNL     1       5.376   4.980  15.929  0.00  0.00    +0.000 C 
ATOM     22  C   UNL     1       5.463   6.157  16.894  0.00  0.00    +0.000 C 
ENDBRANCH  18  22
BRANCH  18  23
ATOM     23  C   UNL     1       5.374   5.312  19.263  0.00  0.00    +0.000 C 
ATOM     24  C   UNL     1       6.879   5.516  19.283  0.00  0.00    +0.000 C 
ENDBRANCH  18  23
ENDBRANCH   1  19
TORSDOF 5
ENDMDL
MODEL 4
REMARK VINA RESULT:      -6.6      1.779      2.898
REMARK  Name = 
REMARK  8 active torsions:
REMARK  status: ('A' for Active; 'I' for Inactive)
REMARK    1  A    between atoms: C_1  and  C_2
REMARK    2  A    between atoms: C_2  and  N_3
REMARK    3  A    between atoms: N_3  and  C_4
REMARK    4  A    between atoms: C_4  and  C_5
REMARK    5  A    between atoms: C_6  and  C_8
REMARK    6  A    between atoms: C_8  and  C_9
REMARK    7  A    between atoms: C_8  and  N_15
REMARK    8  A    between atoms: C_19  and  C_20
REMARK                            x       y       z     vdW  Elec       q    Type
REMARK                         _______ _______ _______ _____ _____    ______ ____
ROOT
ATOM      1  C   UNL     1       2.546   6.138  20.050  0.00  0.00    +0.000 C 
ENDROOT
BRANCH   1   2
ATOM      2  N   UNL     1       1.767   5.121  20.831  0.00  0.00    +0.000 NA
ATOM      3  C   UNL     1       2.579   4.164  21.601  0.00  0.00    +0.000 C 
ATOM      4  C   UNL     1       3.224   3.030  20.784  0.00  0.00    +0.000 C 
ATOM      5  N   UNL     1       2.395   2.612  19.677  0.00  0.00    +0.000 N 
ATOM      6  C   UNL     1       2.721   1.818  18.612  0.00  0.00    +0.000 A 
ATOM      7  C   UNL     1       4.060   1.244  18.361  0.00  0.00    +0.000 C 
ATOM      8  N   UNL     1       1.672   1.745  17.814  0.00  0.00    +0.000 NA
ATOM      9  N   UNL     1       0.716   2.622  18.281  0.00  0.00    +0.000 NA
ATOM     10  C   UNL     1       1.205   3.205  19.353  0.00  0.00    +0.000 A 
ATOM     11  C   UNL     1       0.705   4.393  20.096  0.00  0.00    +0.000 C 
ENDBRANCH   1   2
BRANCH   1  12
ATOM     12  C   UNL     1       1.872   7.517  20.053  0.00  0.00    +0.000 A 
ATOM     13  C   UNL     1       1.170   7.995  21.171  0.00  0.00    +0.000 A 
ATOM     14  C   UNL     1       0.545   9.243  21.156  0.00  0.00    +0.000 A 
ATOM     15  C   UNL     1       0.626  10.040  20.018  0.00  0.00    +0.000 A 
ATOM     16  C   UNL     1       1.340   9.598  18.910  0.00  0.00    +0.000 A 
ATOM     17  C   UNL     1       1.966   8.344  18.921  0.00  0.00    +0.000 A 
ENDBRANCH   1  12
BRANCH   1  19
ATOM     18  N   UNL     1       4.265   5.384  18.275  0.00  0.00    +0.000 N 
ATOM     19  C   UNL     1       2.947   5.708  18.597  0.00  0.00    +0.000 C 
ATOM     20  O   UNL     1       2.102   5.648  17.699  0.00  0.00    +0.000 OA
BRANCH  18  22
ATOM     21  C   UNL     1       5.099   6.047  15.992  0.00  0.00    +0.000 C 
ATOM     22  C   UNL     1       4.513   4.961  16.887  0.00  0.00    +0.000 C 
ENDBRANCH  18  22
BRANCH  18  23
ATOM     23  C   UNL     1       5.411   5.481  19.180  0.00  0.00    +0.000 C 
ATOM     24  C   UNL     1       6.620   4.684  18.721  0.00  0.00    +0.000 C 
ENDBRANCH  18  23
ENDBRANCH   1  19
TORSDOF 5
ENDMDL
MODEL 5
REMARK VINA RESULT:      -6.6      1.620      2.639
REMARK  Name = 
REMARK  8 active torsions:
REMARK  status: ('A' for Active; 'I' for Inactive)
REMARK    1  A    between atoms: C_1  and  C_2
REMARK    2  A    between atoms: C_2  and  N_3
REMARK    3  A    between atoms: N_3  and  C_4
REMARK    4  A    between atoms: C_4  and  C_5
REMARK    5  A    between atoms: C_6  and  C_8
REMARK    6  A    between atoms: C_8  and  C_9
REMARK    7  A    between atoms: C_8  and  N_15
REMARK    8  A    between atoms: C_19  and  C_20
REMARK                            x       y       z     vdW  Elec       q    Type
REMARK                         _______ _______ _______ _____ _____    ______ ____
ROOT
ATOM      1  C   UNL     1       2.719   6.148  19.955  0.00  0.00    +0.000 C 
ENDROOT
BRANCH   1   2
ATOM      2  N   UNL     1       1.892   5.189  20.759  0.00  0.00    +0.000 NA
ATOM      3  C   UNL     1       2.657   4.212  21.552  0.00  0.00    +0.000 C 
ATOM      4  C   UNL     1       3.246   3.030  20.763  0.00  0.00    +0.000 C 
ATOM      5  N   UNL     1       2.397   2.626  19.665  0.00  0.00    +0.000 N 
ATOM      6  C   UNL     1       2.684   1.793  18.620  0.00  0.00    +0.000 A 
ATOM      7  C   UNL     1       3.994   1.149  18.383  0.00  0.00    +0.000 C 
ATOM      8  N   UNL     1       1.633   1.751  17.823  0.00  0.00    +0.000 NA
ATOM      9  N   UNL     1       0.720   2.685  18.268  0.00  0.00    +0.000 NA
ATOM     10  C   UNL     1       1.237   3.269  19.326  0.00  0.00    +0.000 A 
ATOM     11  C   UNL     1       0.795   4.496  20.040  0.00  0.00    +0.000 C 
ENDBRANCH   1   2
BRANCH   1  12
ATOM     12  C   UNL     1       2.050   7.524  19.821  0.00  0.00    +0.000 A 
ATOM     13  C   UNL     1       2.105   8.259  18.627  0.00  0.00    +0.000 A 
ATOM     14  C   UNL     1       1.509   9.518  18.522  0.00  0.00    +0.000 A 
ATOM     15  C   UNL     1       0.835  10.053  19.615  0.00  0.00    +0.000 A 
ATOM     16  C   UNL     1       0.745   9.329  20.799  0.00  0.00    +0.000 A 
ATOM     17  C   UNL     1       1.344   8.067  20.907  0.00  0.00    +0.000 A 
ENDBRANCH   1  12
BRANCH   1  19
ATOM     18  N   UNL     1       4.527   5.237  18.351  0.00  0.00    +0.000 N 
ATOM     19  C   UNL     1       3.201   5.617  18.562  0.00  0.00    +0.000 C 
ATOM     20  O   UNL     1       2.416   5.524  17.614  0.00  0.00    +0.000 OA
BRANCH  18  22
ATOM     21  C   UNL     1       5.155   5.799  15.977  0.00  0.00    +0.000 C 
ATOM     22  C   UNL     1       4.854   4.721  17.012  0.00  0.00    +0.000 C 
ENDBRANCH  18  22
BRANCH  18  23
ATOM     23  C   UNL     1       5.612   5.360  19.325  0.00  0.00    +0.000 C 
ATOM     24  C   UNL     1       6.993   5.425  18.694  0.00  0.00    +0.000 C 
ENDBRANCH  18  23
ENDBRANCH   1  19
TORSDOF 5
ENDMDL
MODEL 6
REMARK VINA RESULT:      -6.5      1.946      4.733
REMARK  Name = 
REMARK  8 active torsions:
REMARK  status: ('A' for Active; 'I' for Inactive)
REMARK    1  A    between atoms: C_1  and  C_2
REMARK    2  A    between atoms: C_2  and  N_3
REMARK    3  A    between atoms: N_3  and  C_4
REMARK    4  A    between atoms: C_4  and  C_5
REMARK    5  A    between atoms: C_6  and  C_8
REMARK    6  A    between atoms: C_8  and  C_9
REMARK    7  A    between atoms: C_8  and  N_15
REMARK    8  A    between atoms: C_19  and  C_20
REMARK                            x       y       z     vdW  Elec       q    Type
REMARK                         _______ _______ _______ _____ _____    ______ ____
ROOT
ATOM      1  C   UNL     1       3.745   6.436  18.030  0.00  0.00    +0.000 C 
ENDROOT
BRANCH   1   2
ATOM      2  N   UNL     1       4.863   7.259  17.460  0.00  0.00    +0.000 NA
ATOM      3  C   UNL     1       4.774   7.523  16.014  0.00  0.00    +0.000 C 
ATOM      4  C   UNL     1       5.178   6.355  15.099  0.00  0.00    +0.000 C 
ATOM      5  N   UNL     1       6.240   5.555  15.666  0.00  0.00    +0.000 N 
ATOM      6  C   UNL     1       6.695   4.328  15.272  0.00  0.00    +0.000 A 
ATOM      7  C   UNL     1       6.129   3.529  14.163  0.00  0.00    +0.000 C 
ATOM      8  N   UNL     1       7.641   3.948  16.110  0.00  0.00    +0.000 NA
ATOM      9  N   UNL     1       7.691   4.861  17.143  0.00  0.00    +0.000 NA
ATOM     10  C   UNL     1       6.775   5.774  16.907  0.00  0.00    +0.000 A 
ATOM     11  C   UNL     1       6.241   6.833  17.805  0.00  0.00    +0.000 C 
ENDBRANCH   1   2
BRANCH   1  12
ATOM     12  C   UNL     1       2.720   7.291  18.790  0.00  0.00    +0.000 A 
ATOM     13  C   UNL     1       2.190   8.470  18.242  0.00  0.00    +0.000 A 
ATOM     14  C   UNL     1       1.272   9.249  18.950  0.00  0.00    +0.000 A 
ATOM     15  C   UNL     1       0.861   8.848  20.217  0.00  0.00    +0.000 A 
ATOM     16  C   UNL     1       1.352   7.669  20.766  0.00  0.00    +0.000 A 
ATOM     17  C   UNL     1       2.276   6.886  20.059  0.00  0.00    +0.000 A 
ENDBRANCH   1  12
BRANCH   1  19
ATOM     18  N   UNL     1       3.746   3.911  18.571  0.00  0.00    +0.000 N 
ATOM     19  C   UNL     1       4.188   5.197  18.881  0.00  0.00    +0.000 C 
ATOM     20  O   UNL     1       4.940   5.331  19.851  0.00  0.00    +0.000 OA
BRANCH  18  22
ATOM     21  C   UNL     1       3.371   2.484  20.614  0.00  0.00    +0.000 C 
ATOM     22  C   UNL     1       4.258   2.822  19.420  0.00  0.00    +0.000 C 
ENDBRANCH  18  22
BRANCH  18  23
ATOM     23  C   UNL     1       2.789   3.570  17.519  0.00  0.00    +0.000 C 
ATOM     24  C   UNL     1       1.341   3.817  17.908  0.00  0.00    +0.000 C 
ENDBRANCH  18  23
ENDBRANCH   1  19
TORSDOF 5
ENDMDL
MODEL 7
REMARK VINA RESULT:      -6.5      1.965      4.853
REMARK  Name = 
REMARK  8 active torsions:
REMARK  status: ('A' for Active; 'I' for Inactive)
REMARK    1  A    between atoms: C_1  and  C_2
REMARK    2  A    between atoms: C_2  and  N_3
REMARK    3  A    between atoms: N_3  and  C_4
REMARK    4  A    between atoms: C_4  and  C_5
REMARK    5  A    between atoms: C_6  and  C_8
REMARK    6  A    between atoms: C_8  and  C_9
REMARK    7  A    between atoms: C_8  and  N_15
REMARK    8  A    between atoms: C_19  and  C_20
REMARK                            x       y       z     vdW  Elec       q    Type
REMARK                         _______ _______ _______ _____ _____    ______ ____
ROOT
ATOM      1  C   UNL     1       3.723   6.408  18.072  0.00  0.00    +0.000 C 
ENDROOT
BRANCH   1   2
ATOM      2  N   UNL     1       4.863   7.233  17.550  0.00  0.00    +0.000 NA
ATOM      3  C   UNL     1       4.801   7.552  16.114  0.00  0.00    +0.000 C 
ATOM      4  C   UNL     1       5.201   6.412  15.161  0.00  0.00    +0.000 C 
ATOM      5  N   UNL     1       6.242   5.575  15.715  0.00  0.00    +0.000 N 
ATOM      6  C   UNL     1       6.683   4.355  15.282  0.00  0.00    +0.000 A 
ATOM      7  C   UNL     1       6.123   3.608  14.136  0.00  0.00    +0.000 C 
ATOM      8  N   UNL     1       7.610   3.930  16.120  0.00  0.00    +0.000 NA
ATOM      9  N   UNL     1       7.657   4.803  17.187  0.00  0.00    +0.000 NA
ATOM     10  C   UNL     1       6.760   5.739  16.971  0.00  0.00    +0.000 A 
ATOM     11  C   UNL     1       6.228   6.772  17.899  0.00  0.00    +0.000 C 
ENDBRANCH   1   2
BRANCH   1  12
ATOM     12  C   UNL     1       2.712   7.247  18.865  0.00  0.00    +0.000 A 
ATOM     13  C   UNL     1       2.248   6.847  20.129  0.00  0.00    +0.000 A 
ATOM     14  C   UNL     1       1.314   7.609  20.833  0.00  0.00    +0.000 A 
ATOM     15  C   UNL     1       0.839   8.796  20.285  0.00  0.00    +0.000 A 
ATOM     16  C   UNL     1       1.307   9.225  19.048  0.00  0.00    +0.000 A 
ATOM     17  C   UNL     1       2.242   8.461  18.337  0.00  0.00    +0.000 A 
ENDBRANCH   1  12
BRANCH   1  19
ATOM     18  N   UNL     1       3.632   3.866  18.515  0.00  0.00    +0.000 N 
ATOM     19  C   UNL     1       4.133   5.120  18.864  0.00  0.00    +0.000 C 
ATOM     20  O   UNL     1       4.911   5.185  19.820  0.00  0.00    +0.000 OA
BRANCH  18  22
ATOM     21  C   UNL     1       3.846   1.361  18.685  0.00  0.00    +0.000 C 
ATOM     22  C   UNL     1       4.116   2.725  19.310  0.00  0.00    +0.000 C 
ENDBRANCH  18  22
BRANCH  18  23
ATOM     23  C   UNL     1       2.638   3.605  17.473  0.00  0.00    +0.000 C 
ATOM     24  C   UNL     1       1.204   3.801  17.935  0.00  0.00    +0.000 C 
ENDBRANCH  18  23
ENDBRANCH   1  19
TORSDOF 5
ENDMDL
MODEL 8
REMARK VINA RESULT:      -6.4      1.431      4.292
REMARK  Name = 
REMARK  8 active torsions:
REMARK  status: ('A' for Active; 'I' for Inactive)
REMARK    1  A    between atoms: C_1  and  C_2
REMARK    2  A    between atoms: C_2  and  N_3
REMARK    3  A    between atoms: N_3  and  C_4
REMARK    4  A    between atoms: C_4  and  C_5
REMARK    5  A    between atoms: C_6  and  C_8
REMARK    6  A    between atoms: C_8  and  C_9
REMARK    7  A    between atoms: C_8  and  N_15
REMARK    8  A    between atoms: C_19  and  C_20
REMARK                            x       y       z     vdW  Elec       q    Type
REMARK                         _______ _______ _______ _____ _____    ______ ____
ROOT
ATOM      1  C   UNL     1       3.793   5.873  17.980  0.00  0.00    +0.000 C 
ENDROOT
BRANCH   1   2
ATOM      2  N   UNL     1       3.473   4.519  17.417  0.00  0.00    +0.000 NA
ATOM      3  C   UNL     1       2.063   4.111  17.529  0.00  0.00    +0.000 C 
ATOM      4  C   UNL     1       1.618   3.627  18.920  0.00  0.00    +0.000 C 
ATOM      5  N   UNL     1       2.673   2.933  19.622  0.00  0.00    +0.000 N 
ATOM      6  C   UNL     1       2.736   2.575  20.940  0.00  0.00    +0.000 A 
ATOM      7  C   UNL     1       1.703   2.883  21.953  0.00  0.00    +0.000 C 
ATOM      8  N   UNL     1       3.907   2.008  21.160  0.00  0.00    +0.000 NA
ATOM      9  N   UNL     1       4.670   2.143  20.018  0.00  0.00    +0.000 NA
ATOM     10  C   UNL     1       3.942   2.785  19.132  0.00  0.00    +0.000 A 
ATOM     11  C   UNL     1       4.350   3.402  17.841  0.00  0.00    +0.000 C 
ENDBRANCH   1   2
BRANCH   1  12
ATOM     12  C   UNL     1       5.304   6.108  18.112  0.00  0.00    +0.000 A 
ATOM     13  C   UNL     1       6.060   5.508  19.131  0.00  0.00    +0.000 A 
ATOM     14  C   UNL     1       7.431   5.743  19.251  0.00  0.00    +0.000 A 
ATOM     15  C   UNL     1       8.069   6.577  18.339  0.00  0.00    +0.000 A 
ATOM     16  C   UNL     1       7.345   7.159  17.305  0.00  0.00    +0.000 A 
ATOM     17  C   UNL     1       5.968   6.927  17.183  0.00  0.00    +0.000 A 
ENDBRANCH   1  12
BRANCH   1  19
ATOM     18  N   UNL     1       2.038   7.206  19.327  0.00  0.00    +0.000 N 
ATOM     19  C   UNL     1       3.046   6.242  19.308  0.00  0.00    +0.000 C 
ATOM     20  O   UNL     1       3.337   5.689  20.372  0.00  0.00    +0.000 OA
BRANCH  18  22
ATOM     21  C   UNL     1       0.852   8.858  20.815  0.00  0.00    +0.000 C 
ATOM     22  C   UNL     1       1.386   7.442  20.626  0.00  0.00    +0.000 C 
ENDBRANCH  18  22
BRANCH  18  23
ATOM     23  C   UNL     1       1.620   8.024  18.189  0.00  0.00    +0.000 C 
ATOM     24  C   UNL     1       2.617   9.109  17.818  0.00  0.00    +0.000 C 
ENDBRANCH  18  23
ENDBRANCH   1  19
TORSDOF 5
ENDMDL
MODEL 9
REMARK VINA RESULT:      -6.4      1.370      1.884
REMARK  Name = 
REMARK  8 active torsions:
REMARK  status: ('A' for Active; 'I' for Inactive)
REMARK    1  A    between atoms: C_1  and  C_2
REMARK    2  A    between atoms: C_2  and  N_3
REMARK    3  A    between atoms: N_3  and  C_4
REMARK    4  A    between atoms: C_4  and  C_5
REMARK    5  A    between atoms: C_6  and  C_8
REMARK    6  A    between atoms: C_8  and  C_9
REMARK    7  A    between atoms: C_8  and  N_15
REMARK    8  A    between atoms: C_19  and  C_20
REMARK                            x       y       z     vdW  Elec       q    Type
REMARK                         _______ _______ _______ _____ _____    ______ ____
ROOT
ATOM      1  C   UNL     1       2.779   6.069  19.239  0.00  0.00    +0.000 C 
ENDROOT
BRANCH   1   2
ATOM      2  N   UNL     1       1.693   5.072  19.520  0.00  0.00    +0.000 NA
ATOM      3  C   UNL     1       1.711   4.487  20.871  0.00  0.00    +0.000 C 
ATOM      4  C   UNL     1       2.765   3.392  21.107  0.00  0.00    +0.000 C 
ATOM      5  N   UNL     1       3.002   2.594  19.925  0.00  0.00    +0.000 N 
ATOM      6  C   UNL     1       4.010   1.704  19.678  0.00  0.00    +0.000 A 
ATOM      7  C   UNL     1       5.125   1.407  20.602  0.00  0.00    +0.000 C 
ATOM      8  N   UNL     1       3.865   1.246  18.448  0.00  0.00    +0.000 NA
ATOM      9  N   UNL     1       2.853   1.961  17.841  0.00  0.00    +0.000 NA
ATOM     10  C   UNL     1       2.406   2.833  18.717  0.00  0.00    +0.000 A 
ATOM     11  C   UNL     1       1.504   3.999  18.515  0.00  0.00    +0.000 C 
ENDBRANCH   1   2
BRANCH   1  12
ATOM     12  C   UNL     1       2.240   7.501  19.123  0.00  0.00    +0.000 A 
ATOM     13  C   UNL     1       2.357   8.241  17.935  0.00  0.00    +0.000 A 
ATOM     14  C   UNL     1       1.879   9.550  17.846  0.00  0.00    +0.000 A 
ATOM     15  C   UNL     1       1.263  10.134  18.948  0.00  0.00    +0.000 A 
ATOM     16  C   UNL     1       1.112   9.410  20.125  0.00  0.00    +0.000 A 
ATOM     17  C   UNL     1       1.593   8.097  20.218  0.00  0.00    +0.000 A 
ENDBRANCH   1  12
BRANCH   1  19
ATOM     18  N   UNL     1       5.021   5.263  18.241  0.00  0.00    +0.000 N 
ATOM     19  C   UNL     1       3.719   5.718  18.034  0.00  0.00    +0.000 C 
ATOM     20  O   UNL     1       3.327   5.840  16.870  0.00  0.00    +0.000 OA
BRANCH  18  22
ATOM     21  C   UNL     1       6.486   6.126  16.381  0.00  0.00    +0.000 C 
ATOM     22  C   UNL     1       5.796   4.933  17.033  0.00  0.00    +0.000 C 
ENDBRANCH  18  22
BRANCH  18  23
ATOM     23  C   UNL     1       5.685   5.140  19.539  0.00  0.00    +0.000 C 
ATOM     24  C   UNL     1       7.157   5.514  19.509  0.00  0.00    +0.000 C 
ENDBRANCH  18  23
ENDBRANCH   1  19
TORSDOF 5
ENDMDL
