MODEL 1
REMARK VINA RESULT:      -8.0      0.000      0.000
REMARK  Name = 
REMARK  10 active torsions:
REMARK  status: ('A' for Active; 'I' for Inactive)
REMARK    1  A    between atoms: C_1  and  C_2
REMARK    2  A    between atoms: C_2  and  C_3
REMARK    3  A    between atoms: C_3  and  O_4
REMARK    4  A    between atoms: O_4  and  C_5
REMARK    5  A    between atoms: C_8  and  C_9
REMARK    6  A    between atoms: C_11  and  C_12
REMARK    7  A    between atoms: C_12  and  O_14
REMARK    8  A    between atoms: O_14  and  C_15
REMARK    9  A    between atoms: C_18  and  O_19
REMARK   10  A    between atoms: O_19  and  C_20
REMARK                            x       y       z     vdW  Elec       q    Type
REMARK                         _______ _______ _______ _____ _____    ______ ____
ROOT
ATOM      1  C   UNL     1       3.735   6.113  17.903  0.00  0.00    +0.000 A 
ATOM      2  C   UNL     1       3.537   5.506  19.127  0.00  0.00    +0.000 A 
ATOM      3  C   UNL     1       2.527   5.968  19.940  0.00  0.00    +0.000 A 
ATOM      4  C   UNL     1       2.073   7.268  19.769  0.00  0.00    +0.000 A 
ATOM      5  C   UNL     1       1.446   7.949  20.827  0.00  0.00    +0.000 A 
ATOM      6  C   UNL     1       1.004   9.251  20.694  0.00  0.00    +0.000 A 
ATOM      7  C   UNL     1       1.103   9.841  19.442  0.00  0.00    +0.000 A 
ATOM      8  C   UNL     1       1.739   9.149  18.378  0.00  0.00    +0.000 A 
ATOM      9  C   UNL     1       2.319   7.883  18.538  0.00  0.00    +0.000 A 
ATOM     10  N   UNL     1       3.083   7.269  17.582  0.00  0.00    +0.000 NA
ENDROOT
BRANCH   1  14
ATOM     11  C   UNL     1       6.136   4.258  14.814  0.00  0.00    +0.000 A 
ATOM     12  C   UNL     1       5.845   5.609  14.755  0.00  0.00    +0.000 A 
ATOM     13  C   UNL     1       5.155   6.210  15.808  0.00  0.00    +0.000 A 
ATOM     14  C   UNL     1       4.672   5.484  16.934  0.00  0.00    +0.000 A 
ATOM     15  C   UNL     1       5.059   4.143  17.014  0.00  0.00    +0.000 A 
ATOM     16  C   UNL     1       5.767   3.536  15.961  0.00  0.00    +0.000 A 
BRANCH  11  17
ATOM     17  O   UNL     1       6.743   3.541  13.832  0.00  0.00    +0.000 OA
BRANCH  17  18
ATOM     18  C   UNL     1       6.457   3.933  12.487  0.00  0.00    +0.000 C 
BRANCH  18  20
ATOM     19  C   UNL     1       4.230   3.265  11.503  0.00  0.00    +0.000 C 
ATOM     20  C   UNL     1       5.655   2.826  11.811  0.00  0.00    +0.000 C 
ENDBRANCH  18  20
ENDBRANCH  17  18
ENDBRANCH  11  17
ENDBRANCH   1  14
BRANCH   3  21
ATOM     21  C   UNL     1       1.693   4.975  20.673  0.00  0.00    +0.000 C 
ATOM     22  O   UNL     1       0.587   4.614  20.310  0.00  0.00    +0.000 OA
BRANCH  21  23
ATOM     23  O   UNL     1       2.429   4.370  21.642  0.00  0.00    +0.000 OA
ATOM     24  C   UNL     1       2.244   2.957  21.681  0.00  0.00    +0.000 C 
ENDBRANCH  21  23
ENDBRANCH   3  21
BRANCH   6  25
ATOM     25  O   UNL     1       0.516   9.765  21.854  0.00  0.00    +0.000 OA
ATOM     26  C   UNL     1      -0.434   9.020  22.590  0.00  0.00    +0.000 C 
ENDBRANCH   6  25
TORSDOF 7
ENDMDL
MODEL 2
REMARK VINA RESULT:      -7.6      1.742      8.256
REMARK  Name = 
REMARK  10 active torsions:
REMARK  status: ('A' for Active; 'I' for Inactive)
REMARK    1  A    between atoms: C_1  and  C_2
REMARK    2  A    between atoms: C_2  and  C_3
REMARK    3  A    between atoms: C_3  and  O_4
REMARK    4  A    between atoms: O_4  and  C_5
REMARK    5  A    between atoms: C_8  and  C_9
REMARK    6  A    between atoms: C_11  and  C_12
REMARK    7  A    between atoms: C_12  and  O_14
REMARK    8  A    between atoms: O_14  and  C_15
REMARK    9  A    between atoms: C_18  and  O_19
REMARK   10  A    between atoms: O_19  and  C_20
REMARK                            x       y       z     vdW  Elec       q    Type
REMARK                         _______ _______ _______ _____ _____    ______ ____
ROOT
ATOM      1  C   UNL     1       3.046   6.691  18.342  0.00  0.00    +0.000 A 
ATOM      2  C   UNL     1       2.442   5.491  18.023  0.00  0.00    +0.000 A 
ATOM      3  C   UNL     1       3.210   4.487  17.478  0.00  0.00    +0.000 A 
ATOM      4  C   UNL     1       4.387   4.825  16.827  0.00  0.00    +0.000 A 
ATOM      5  C   UNL     1       4.935   3.970  15.853  0.00  0.00    +0.000 A 
ATOM      6  C   UNL     1       6.093   4.290  15.172  0.00  0.00    +0.000 A 
ATOM      7  C   UNL     1       6.767   5.442  15.552  0.00  0.00    +0.000 A 
ATOM      8  C   UNL     1       6.209   6.303  16.534  0.00  0.00    +0.000 A 
ATOM      9  C   UNL     1       4.964   6.062  17.131  0.00  0.00    +0.000 A 
ATOM     10  N   UNL     1       4.326   6.956  17.949  0.00  0.00    +0.000 NA
ENDROOT
BRANCH   1  14
ATOM     11  C   UNL     1       0.472   9.353  20.586  0.00  0.00    +0.000 A 
ATOM     12  C   UNL     1       1.018   8.236  21.192  0.00  0.00    +0.000 A 
ATOM     13  C   UNL     1       1.923   7.444  20.484  0.00  0.00    +0.000 A 
ATOM     14  C   UNL     1       2.277   7.694  19.127  0.00  0.00    +0.000 A 
ATOM     15  C   UNL     1       1.785   8.878  18.571  0.00  0.00    +0.000 A 
ATOM     16  C   UNL     1       0.883   9.687  19.286  0.00  0.00    +0.000 A 
BRANCH  11  17
ATOM     17  O   UNL     1      -0.464  10.167  21.141  0.00  0.00    +0.000 OA
BRANCH  17  18
ATOM     18  C   UNL     1      -0.420  10.316  22.562  0.00  0.00    +0.000 C 
BRANCH  18  20
ATOM     19  C   UNL     1      -1.019  12.767  22.650  0.00  0.00    +0.000 C 
ATOM     20  C   UNL     1      -1.462  11.348  22.982  0.00  0.00    +0.000 C 
ENDBRANCH  18  20
ENDBRANCH  17  18
ENDBRANCH  11  17
ENDBRANCH   1  14
BRANCH   3  21
ATOM     21  C   UNL     1       2.986   3.089  17.940  0.00  0.00    +0.000 C 
ATOM     22  O   UNL     1       2.204   2.316  17.415  0.00  0.00    +0.000 OA
BRANCH  21  23
ATOM     23  O   UNL     1       3.931   2.739  18.851  0.00  0.00    +0.000 OA
ATOM     24  C   UNL     1       3.417   2.636  20.177  0.00  0.00    +0.000 C 
ENDBRANCH  21  23
ENDBRANCH   3  21
BRANCH   6  25
ATOM     25  O   UNL     1       6.405   3.387  14.206  0.00  0.00    +0.000 OA
ATOM     26  C   UNL     1       6.080   3.678  12.861  0.00  0.00    +0.000 C 
ENDBRANCH   6  25
TORSDOF 7
ENDMDL
MODEL 3
REMARK VINA RESULT:      -7.6      1.814      8.228
REMARK  Name = 
REMARK  10 active torsions:
REMARK  status: ('A' for Active; 'I' for Inactive)
REMARK    1  A    between atoms: C_1  and  C_2
REMARK    2  A    between atoms: C_2  and  C_3
REMARK    3  A    between atoms: C_3  and  O_4
REMARK    4  A    between atoms: O_4  and  C_5
REMARK    5  A    between atoms: C_8  and  C_9
REMARK    6  A    between atoms: C_11  and  C_12
REMARK    7  A    between atoms: C_12  and  O_14
REMARK    8  A    between atoms: O_14  and  C_15
REMARK    9  A    between atoms: C_18  and  O_19
REMARK   10  A    between atoms: O_19  and  C_20
REMARK                            x       y       z     vdW  Elec       q    Type
REMARK                         _______ _______ _______ _____ _____    ______ ____
ROOT
ATOM      1  C   UNL     1       2.849   6.772  18.471  0.00  0.00    +0.000 A 
ATOM      2  C   UNL     1       2.292   5.572  18.073  0.00  0.00    +0.000 A 
ATOM      3  C   UNL     1       3.117   4.595  17.563  0.00  0.00    +0.000 A 
ATOM      4  C   UNL     1       4.335   4.968  17.015  0.00  0.00    +0.000 A 
ATOM      5  C   UNL     1       4.971   4.150  16.065  0.00  0.00    +0.000 A 
ATOM      6  C   UNL     1       6.173   4.505  15.485  0.00  0.00    +0.000 A 
ATOM      7  C   UNL     1       6.796   5.656  15.947  0.00  0.00    +0.000 A 
ATOM      8  C   UNL     1       6.149   6.480  16.904  0.00  0.00    +0.000 A 
ATOM      9  C   UNL     1       4.865   6.205  17.396  0.00  0.00    +0.000 A 
ATOM     10  N   UNL     1       4.151   7.066  18.185  0.00  0.00    +0.000 NA
ENDROOT
BRANCH   1  14
ATOM     11  C   UNL     1       0.735   9.838  20.677  0.00  0.00    +0.000 A 
ATOM     12  C   UNL     1       0.966   9.988  19.321  0.00  0.00    +0.000 A 
ATOM     13  C   UNL     1       1.560   8.947  18.607  0.00  0.00    +0.000 A 
ATOM     14  C   UNL     1       2.005   7.740  19.219  0.00  0.00    +0.000 A 
ATOM     15  C   UNL     1       1.676   7.577  20.567  0.00  0.00    +0.000 A 
ATOM     16  C   UNL     1       1.064   8.619  21.289  0.00  0.00    +0.000 A 
BRANCH  11  17
ATOM     17  O   UNL     1       0.224  10.795  21.497  0.00  0.00    +0.000 OA
BRANCH  17  18
ATOM     18  C   UNL     1      -0.473  10.335  22.656  0.00  0.00    +0.000 C 
BRANCH  18  20
ATOM     19  C   UNL     1      -1.044  12.794  22.692  0.00  0.00    +0.000 C 
ATOM     20  C   UNL     1      -1.497  11.389  23.066  0.00  0.00    +0.000 C 
ENDBRANCH  18  20
ENDBRANCH  17  18
ENDBRANCH  11  17
ENDBRANCH   1  14
BRANCH   3  21
ATOM     21  C   UNL     1       2.881   3.181  17.969  0.00  0.00    +0.000 C 
ATOM     22  O   UNL     1       3.653   2.532  18.652  0.00  0.00    +0.000 OA
BRANCH  21  23
ATOM     23  O   UNL     1       1.604   2.818  17.679  0.00  0.00    +0.000 OA
ATOM     24  C   UNL     1       0.915   2.263  18.797  0.00  0.00    +0.000 C 
ENDBRANCH  21  23
ENDBRANCH   3  21
BRANCH   6  25
ATOM     25  O   UNL     1       6.574   3.634  14.522  0.00  0.00    +0.000 OA
ATOM     26  C   UNL     1       6.040   3.756  13.218  0.00  0.00    +0.000 C 
ENDBRANCH   6  25
TORSDOF 7
ENDMDL
MODEL 4
REMARK VINA RESULT:      -7.5      0.741      1.347
REMARK  Name = 
REMARK  10 active torsions:
REMARK  status: ('A' for Active; 'I' for Inactive)
REMARK    1  A    between atoms: C_1  and  C_2
REMARK    2  A    between atoms: C_2  and  C_3
REMARK    3  A    between atoms: C_3  and  O_4
REMARK    4  A    between atoms: O_4  and  C_5
REMARK    5  A    between atoms: C_8  and  C_9
REMARK    6  A    between atoms: C_11  and  C_12
REMARK    7  A    between atoms: C_12  and  O_14
REMARK    8  A    between atoms: O_14  and  C_15
REMARK    9  A    between atoms: C_18  and  O_19
REMARK   10  A    between atoms: O_19  and  C_20
REMARK                            x       y       z     vdW  Elec       q    Type
REMARK                         _______ _______ _______ _____ _____    ______ ____
ROOT
ATOM      1  C   UNL     1       3.569   6.000  17.910  0.00  0.00    +0.000 A 
ATOM      2  C   UNL     1       3.556   5.264  19.079  0.00  0.00    +0.000 A 
ATOM      3  C   UNL     1       2.650   5.596  20.060  0.00  0.00    +0.000 A 
ATOM      4  C   UNL     1       2.136   6.884  20.088  0.00  0.00    +0.000 A 
ATOM      5  C   UNL     1       1.634   7.427  21.285  0.00  0.00    +0.000 A 
ATOM      6  C   UNL     1       1.136   8.714  21.348  0.00  0.00    +0.000 A 
ATOM      7  C   UNL     1       1.048   9.430  20.163  0.00  0.00    +0.000 A 
ATOM      8  C   UNL     1       1.559   8.879  18.958  0.00  0.00    +0.000 A 
ATOM      9  C   UNL     1       2.195   7.631  18.908  0.00  0.00    +0.000 A 
ATOM     10  N   UNL     1       2.844   7.151  17.801  0.00  0.00    +0.000 NA
ENDROOT
BRANCH   1  14
ATOM     11  C   UNL     1       6.264   4.520  14.863  0.00  0.00    +0.000 A 
ATOM     12  C   UNL     1       5.590   3.636  15.686  0.00  0.00    +0.000 A 
ATOM     13  C   UNL     1       4.651   4.126  16.595  0.00  0.00    +0.000 A 
ATOM     14  C   UNL     1       4.388   5.515  16.768  0.00  0.00    +0.000 A 
ATOM     15  C   UNL     1       5.012   6.376  15.861  0.00  0.00    +0.000 A 
ATOM     16  C   UNL     1       5.949   5.886  14.933  0.00  0.00    +0.000 A 
BRANCH  11  17
ATOM     17  O   UNL     1       7.244   4.181  13.983  0.00  0.00    +0.000 OA
BRANCH  17  18
ATOM     18  C   UNL     1       6.916   4.280  12.595  0.00  0.00    +0.000 C 
BRANCH  18  20
ATOM     19  C   UNL     1       4.728   3.353  11.743  0.00  0.00    +0.000 C 
ATOM     20  C   UNL     1       6.150   3.028  12.180  0.00  0.00    +0.000 C 
ENDBRANCH  18  20
ENDBRANCH  17  18
ENDBRANCH  11  17
ENDBRANCH   1  14
BRANCH   3  21
ATOM     21  C   UNL     1       1.954   4.497  20.787  0.00  0.00    +0.000 C 
ATOM     22  O   UNL     1       2.285   4.093  21.887  0.00  0.00    +0.000 OA
BRANCH  21  23
ATOM     23  O   UNL     1       0.784   4.192  20.165  0.00  0.00    +0.000 OA
ATOM     24  C   UNL     1       0.770   2.873  19.624  0.00  0.00    +0.000 C 
ENDBRANCH  21  23
ENDBRANCH   3  21
BRANCH   6  25
ATOM     25  O   UNL     1       0.792   9.085  22.609  0.00  0.00    +0.000 OA
ATOM     26  C   UNL     1      -0.417   9.790  22.812  0.00  0.00    +0.000 C 
ENDBRANCH   6  25
TORSDOF 7
ENDMDL
MODEL 5
REMARK VINA RESULT:      -7.5      0.886      1.176
REMARK  Name = 
REMARK  10 active torsions:
REMARK  status: ('A' for Active; 'I' for Inactive)
REMARK    1  A    between atoms: C_1  and  C_2
REMARK    2  A    between atoms: C_2  and  C_3
REMARK    3  A    between atoms: C_3  and  O_4
REMARK    4  A    between atoms: O_4  and  C_5
REMARK    5  A    between atoms: C_8  and  C_9
REMARK    6  A    between atoms: C_11  and  C_12
REMARK    7  A    between atoms: C_12  and  O_14
REMARK    8  A    between atoms: O_14  and  C_15
REMARK    9  A    between atoms: C_18  and  O_19
REMARK   10  A    between atoms: O_19  and  C_20
REMARK                            x       y       z     vdW  Elec       q    Type
REMARK                         _______ _______ _______ _____ _____    ______ ____
ROOT
ATOM      1  C   UNL     1       3.800   5.818  17.995  0.00  0.00    +0.000 A 
ATOM      2  C   UNL     1       3.701   5.120  19.183  0.00  0.00    +0.000 A 
ATOM      3  C   UNL     1       2.709   5.466  20.073  0.00  0.00    +0.000 A 
ATOM      4  C   UNL     1       2.173   6.744  20.014  0.00  0.00    +0.000 A 
ATOM      5  C   UNL     1       1.563   7.314  21.145  0.00  0.00    +0.000 A 
ATOM      6  C   UNL     1       1.040   8.593  21.123  0.00  0.00    +0.000 A 
ATOM      7  C   UNL     1       1.041   9.269  19.911  0.00  0.00    +0.000 A 
ATOM      8  C   UNL     1       1.660   8.689  18.773  0.00  0.00    +0.000 A 
ATOM      9  C   UNL     1       2.319   7.452  18.818  0.00  0.00    +0.000 A 
ATOM     10  N   UNL     1       3.067   6.951  17.787  0.00  0.00    +0.000 NA
ENDROOT
BRANCH   1  14
ATOM     11  C   UNL     1       6.222   4.527  14.647  0.00  0.00    +0.000 A 
ATOM     12  C   UNL     1       6.313   5.826  15.113  0.00  0.00    +0.000 A 
ATOM     13  C   UNL     1       5.600   6.197  16.254  0.00  0.00    +0.000 A 
ATOM     14  C   UNL     1       4.721   5.312  16.942  0.00  0.00    +0.000 A 
ATOM     15  C   UNL     1       4.720   3.985  16.507  0.00  0.00    +0.000 A 
ATOM     16  C   UNL     1       5.448   3.602  15.365  0.00  0.00    +0.000 A 
BRANCH  11  17
ATOM     17  O   UNL     1       6.812   4.056  13.516  0.00  0.00    +0.000 OA
BRANCH  17  18
ATOM     18  C   UNL     1       5.960   3.385  12.585  0.00  0.00    +0.000 C 
BRANCH  18  20
ATOM     19  C   UNL     1       6.210   1.280  11.214  0.00  0.00    +0.000 C 
ATOM     20  C   UNL     1       6.826   2.621  11.588  0.00  0.00    +0.000 C 
ENDBRANCH  18  20
ENDBRANCH  17  18
ENDBRANCH  11  17
ENDBRANCH   1  14
BRANCH   3  21
ATOM     21  C   UNL     1       1.973   4.377  20.775  0.00  0.00    +0.000 C 
ATOM     22  O   UNL     1       2.282   3.943  21.871  0.00  0.00    +0.000 OA
BRANCH  21  23
ATOM     23  O   UNL     1       0.799   4.120  20.139  0.00  0.00    +0.000 OA
ATOM     24  C   UNL     1       0.817   2.893  19.413  0.00  0.00    +0.000 C 
ENDBRANCH  21  23
ENDBRANCH   3  21
BRANCH   6  25
ATOM     25  O   UNL     1       0.584   8.998  22.337  0.00  0.00    +0.000 OA
ATOM     26  C   UNL     1      -0.293  10.105  22.408  0.00  0.00    +0.000 C 
ENDBRANCH   6  25
TORSDOF 7
ENDMDL
MODEL 6
REMARK VINA RESULT:      -7.4      1.977      8.069
REMARK  Name = 
REMARK  10 active torsions:
REMARK  status: ('A' for Active; 'I' for Inactive)
REMARK    1  A    between atoms: C_1  and  C_2
REMARK    2  A    between atoms: C_2  and  C_3
REMARK    3  A    between atoms: C_3  and  O_4
REMARK    4  A    between atoms: O_4  and  C_5
REMARK    5  A    between atoms: C_8  and  C_9
REMARK    6  A    between atoms: C_11  and  C_12
REMARK    7  A    between atoms: C_12  and  O_14
REMARK    8  A    between atoms: O_14  and  C_15
REMARK    9  A    between atoms: C_18  and  O_19
REMARK   10  A    between atoms: O_19  and  C_20
REMARK                            x       y       z     vdW  Elec       q    Type
REMARK                         _______ _______ _______ _____ _____    ______ ____
ROOT
ATOM      1  C   UNL     1       2.869   6.960  18.349  0.00  0.00    +0.000 A 
ATOM      2  C   UNL     1       2.286   5.732  18.103  0.00  0.00    +0.000 A 
ATOM      3  C   UNL     1       3.077   4.705  17.640  0.00  0.00    +0.000 A 
ATOM      4  C   UNL     1       4.260   5.014  16.985  0.00  0.00    +0.000 A 
ATOM      5  C   UNL     1       4.835   4.103  16.081  0.00  0.00    +0.000 A 
ATOM      6  C   UNL     1       6.000   4.393  15.398  0.00  0.00    +0.000 A 
ATOM      7  C   UNL     1       6.652   5.577  15.709  0.00  0.00    +0.000 A 
ATOM      8  C   UNL     1       6.067   6.494  16.621  0.00  0.00    +0.000 A 
ATOM      9  C   UNL     1       4.815   6.277  17.213  0.00  0.00    +0.000 A 
ATOM     10  N   UNL     1       4.152   7.215  17.958  0.00  0.00    +0.000 NA
ENDROOT
BRANCH   1  14
ATOM     11  C   UNL     1       0.227   9.726  20.376  0.00  0.00    +0.000 A 
ATOM     12  C   UNL     1       0.804   8.678  21.070  0.00  0.00    +0.000 A 
ATOM     13  C   UNL     1       1.730   7.856  20.426  0.00  0.00    +0.000 A 
ATOM     14  C   UNL     1       2.074   8.002  19.051  0.00  0.00    +0.000 A 
ATOM     15  C   UNL     1       1.549   9.122  18.402  0.00  0.00    +0.000 A 
ATOM     16  C   UNL     1       0.626   9.963  19.051  0.00  0.00    +0.000 A 
BRANCH  11  17
ATOM     17  O   UNL     1      -0.731  10.558  20.865  0.00  0.00    +0.000 OA
BRANCH  17  18
ATOM     18  C   UNL     1      -0.422  11.953  20.868  0.00  0.00    +0.000 C 
BRANCH  18  20
ATOM     19  C   UNL     1      -2.483  12.150  19.423  0.00  0.00    +0.000 C 
ATOM     20  C   UNL     1      -1.698  12.741  20.587  0.00  0.00    +0.000 C 
ENDBRANCH  18  20
ENDBRANCH  17  18
ENDBRANCH  11  17
ENDBRANCH   1  14
BRANCH   3  21
ATOM     21  C   UNL     1       2.863   3.338  18.193  0.00  0.00    +0.000 C 
ATOM     22  O   UNL     1       3.552   2.842  19.067  0.00  0.00    +0.000 OA
BRANCH  21  23
ATOM     23  O   UNL     1       1.674   2.839  17.763  0.00  0.00    +0.000 OA
ATOM     24  C   UNL     1       0.844   2.384  18.828  0.00  0.00    +0.000 C 
ENDBRANCH  21  23
ENDBRANCH   3  21
BRANCH   6  25
ATOM     25  O   UNL     1       6.340   3.430  14.501  0.00  0.00    +0.000 OA
ATOM     26  C   UNL     1       6.179   3.689  13.120  0.00  0.00    +0.000 C 
ENDBRANCH   6  25
TORSDOF 7
ENDMDL
MODEL 7
REMARK VINA RESULT:      -7.3      1.708      8.213
REMARK  Name = 
REMARK  10 active torsions:
REMARK  status: ('A' for Active; 'I' for Inactive)
REMARK    1  A    between atoms: C_1  and  C_2
REMARK    2  A    between atoms: C_2  and  C_3
REMARK    3  A    between atoms: C_3  and  O_4
REMARK    4  A    between atoms: O_4  and  C_5
REMARK    5  A    between atoms: C_8  and  C_9
REMARK    6  A    between atoms: C_11  and  C_12
REMARK    7  A    between atoms: C_12  and  O_14
REMARK    8  A    between atoms: O_14  and  C_15
REMARK    9  A    between atoms: C_18  and  O_19
REMARK   10  A    between atoms: O_19  and  C_20
REMARK                            x       y       z     vdW  Elec       q    Type
REMARK                         _______ _______ _______ _____ _____    ______ ____
ROOT
ATOM      1  C   UNL     1       2.730   6.874  18.819  0.00  0.00    +0.000 A 
ATOM      2  C   UNL     1       2.542   5.520  19.013  0.00  0.00    +0.000 A 
ATOM      3  C   UNL     1       3.436   4.640  18.448  0.00  0.00    +0.000 A 
ATOM      4  C   UNL     1       4.174   5.051  17.347  0.00  0.00    +0.000 A 
ATOM      5  C   UNL     1       4.698   4.107  16.446  0.00  0.00    +0.000 A 
ATOM      6  C   UNL     1       5.418   4.487  15.330  0.00  0.00    +0.000 A 
ATOM      7  C   UNL     1       5.702   5.836  15.176  0.00  0.00    +0.000 A 
ATOM      8  C   UNL     1       5.169   6.785  16.087  0.00  0.00    +0.000 A 
ATOM      9  C   UNL     1       4.320   6.426  17.143  0.00  0.00    +0.000 A 
ATOM     10  N   UNL     1       3.658   7.331  17.929  0.00  0.00    +0.000 NA
ENDROOT
BRANCH   1  14
ATOM     11  C   UNL     1       0.671   9.897  21.135  0.00  0.00    +0.000 A 
ATOM     12  C   UNL     1       0.916  10.098  19.789  0.00  0.00    +0.000 A 
ATOM     13  C   UNL     1       1.491   9.073  19.037  0.00  0.00    +0.000 A 
ATOM     14  C   UNL     1       1.903   7.831  19.601  0.00  0.00    +0.000 A 
ATOM     15  C   UNL     1       1.559   7.621  20.939  0.00  0.00    +0.000 A 
ATOM     16  C   UNL     1       0.966   8.646  21.699  0.00  0.00    +0.000 A 
BRANCH  11  17
ATOM     17  O   UNL     1       0.176  10.831  21.991  0.00  0.00    +0.000 OA
BRANCH  17  18
ATOM     18  C   UNL     1      -0.208  12.083  21.416  0.00  0.00    +0.000 C 
BRANCH  18  20
ATOM     19  C   UNL     1      -2.156  12.114  23.020  0.00  0.00    +0.000 C 
ATOM     20  C   UNL     1      -0.973  12.890  22.459  0.00  0.00    +0.000 C 
ENDBRANCH  18  20
ENDBRANCH  17  18
ENDBRANCH  11  17
ENDBRANCH   1  14
BRANCH   3  21
ATOM     21  C   UNL     1       3.877   3.462  19.247  0.00  0.00    +0.000 C 
ATOM     22  O   UNL     1       5.022   3.288  19.627  0.00  0.00    +0.000 OA
BRANCH  21  23
ATOM     23  O   UNL     1       2.798   2.761  19.683  0.00  0.00    +0.000 OA
ATOM     24  C   UNL     1       2.748   2.642  21.102  0.00  0.00    +0.000 C 
ENDBRANCH  21  23
ENDBRANCH   3  21
BRANCH   6  25
ATOM     25  O   UNL     1       5.752   3.437  14.534  0.00  0.00    +0.000 OA
ATOM     26  C   UNL     1       6.094   3.680  13.184  0.00  0.00    +0.000 C 
ENDBRANCH   6  25
TORSDOF 7
ENDMDL
MODEL 8
REMARK VINA RESULT:      -7.1      1.871      7.931
REMARK  Name = 
REMARK  10 active torsions:
REMARK  status: ('A' for Active; 'I' for Inactive)
REMARK    1  A    between atoms: C_1  and  C_2
REMARK    2  A    between atoms: C_2  and  C_3
REMARK    3  A    between atoms: C_3  and  O_4
REMARK    4  A    between atoms: O_4  and  C_5
REMARK    5  A    between atoms: C_8  and  C_9
REMARK    6  A    between atoms: C_11  and  C_12
REMARK    7  A    between atoms: C_12  and  O_14
REMARK    8  A    between atoms: O_14  and  C_15
REMARK    9  A    between atoms: C_18  and  O_19
REMARK   10  A    between atoms: O_19  and  C_20
REMARK                            x       y       z     vdW  Elec       q    Type
REMARK                         _______ _______ _______ _____ _____    ______ ____
ROOT
ATOM      1  C   UNL     1       2.894   6.763  18.281  0.00  0.00    +0.000 A 
ATOM      2  C   UNL     1       2.330   5.534  17.999  0.00  0.00    +0.000 A 
ATOM      3  C   UNL     1       3.135   4.533  17.505  0.00  0.00    +0.000 A 
ATOM      4  C   UNL     1       4.313   4.880  16.859  0.00  0.00    +0.000 A 
ATOM      5  C   UNL     1       4.900   4.005  15.928  0.00  0.00    +0.000 A 
ATOM      6  C   UNL     1       6.061   4.332  15.254  0.00  0.00    +0.000 A 
ATOM      7  C   UNL     1       6.695   5.517  15.599  0.00  0.00    +0.000 A 
ATOM      8  C   UNL     1       6.096   6.398  16.538  0.00  0.00    +0.000 A 
ATOM      9  C   UNL     1       4.849   6.144  17.124  0.00  0.00    +0.000 A 
ATOM     10  N   UNL     1       4.172   7.049  17.897  0.00  0.00    +0.000 NA
ENDROOT
BRANCH   1  14
ATOM     11  C   UNL     1       0.886   9.938  20.433  0.00  0.00    +0.000 A 
ATOM     12  C   UNL     1       1.106  10.049  19.072  0.00  0.00    +0.000 A 
ATOM     13  C   UNL     1       1.664   8.975  18.377  0.00  0.00    +0.000 A 
ATOM     14  C   UNL     1       2.084   7.772  19.014  0.00  0.00    +0.000 A 
ATOM     15  C   UNL     1       1.765   7.651  20.369  0.00  0.00    +0.000 A 
ATOM     16  C   UNL     1       1.189   8.725  21.071  0.00  0.00    +0.000 A 
BRANCH  11  17
ATOM     17  O   UNL     1       0.410  10.928  21.234  0.00  0.00    +0.000 OA
BRANCH  17  18
ATOM     18  C   UNL     1       0.034  12.146  20.587  0.00  0.00    +0.000 C 
BRANCH  18  20
ATOM     19  C   UNL     1       2.049  13.539  19.979  0.00  0.00    +0.000 C 
ATOM     20  C   UNL     1       0.985  13.253  21.030  0.00  0.00    +0.000 C 
ENDBRANCH  18  20
ENDBRANCH  17  18
ENDBRANCH  11  17
ENDBRANCH   1  14
BRANCH   3  21
ATOM     21  C   UNL     1       2.943   3.148  18.017  0.00  0.00    +0.000 C 
ATOM     22  O   UNL     1       2.197   2.331  17.506  0.00  0.00    +0.000 OA
BRANCH  21  23
ATOM     23  O   UNL     1       3.877   2.863  18.962  0.00  0.00    +0.000 OA
ATOM     24  C   UNL     1       3.328   2.757  20.273  0.00  0.00    +0.000 C 
ENDBRANCH  21  23
ENDBRANCH   3  21
BRANCH   6  25
ATOM     25  O   UNL     1       6.414   3.402  14.328  0.00  0.00    +0.000 OA
ATOM     26  C   UNL     1       6.345   3.737  12.956  0.00  0.00    +0.000 C 
ENDBRANCH   6  25
TORSDOF 7
ENDMDL
MODEL 9
REMARK VINA RESULT:      -7.1      1.948      8.051
REMARK  Name = 
REMARK  10 active torsions:
REMARK  status: ('A' for Active; 'I' for Inactive)
REMARK    1  A    between atoms: C_1  and  C_2
REMARK    2  A    between atoms: C_2  and  C_3
REMARK    3  A    between atoms: C_3  and  O_4
REMARK    4  A    between atoms: O_4  and  C_5
REMARK    5  A    between atoms: C_8  and  C_9
REMARK    6  A    between atoms: C_11  and  C_12
REMARK    7  A    between atoms: C_12  and  O_14
REMARK    8  A    between atoms: O_14  and  C_15
REMARK    9  A    between atoms: C_18  and  O_19
REMARK   10  A    between atoms: O_19  and  C_20
REMARK                            x       y       z     vdW  Elec       q    Type
REMARK                         _______ _______ _______ _____ _____    ______ ____
ROOT
ATOM      1  C   UNL     1       2.806   6.977  18.417  0.00  0.00    +0.000 A 
ATOM      2  C   UNL     1       2.189   5.786  18.084  0.00  0.00    +0.000 A 
ATOM      3  C   UNL     1       2.962   4.746  17.622  0.00  0.00    +0.000 A 
ATOM      4  C   UNL     1       4.193   5.031  17.050  0.00  0.00    +0.000 A 
ATOM      5  C   UNL     1       4.782   4.134  16.141  0.00  0.00    +0.000 A 
ATOM      6  C   UNL     1       5.997   4.401  15.538  0.00  0.00    +0.000 A 
ATOM      7  C   UNL     1       6.677   5.543  15.937  0.00  0.00    +0.000 A 
ATOM      8  C   UNL     1       6.077   6.446  16.853  0.00  0.00    +0.000 A 
ATOM      9  C   UNL     1       4.785   6.258  17.364  0.00  0.00    +0.000 A 
ATOM     10  N   UNL     1       4.118   7.193  18.111  0.00  0.00    +0.000 NA
ENDROOT
BRANCH   1  14
ATOM     11  C   UNL     1       0.171   9.756  20.436  0.00  0.00    +0.000 A 
ATOM     12  C   UNL     1       0.734   8.700  21.130  0.00  0.00    +0.000 A 
ATOM     13  C   UNL     1       1.658   7.873  20.489  0.00  0.00    +0.000 A 
ATOM     14  C   UNL     1       2.014   8.023  19.117  0.00  0.00    +0.000 A 
ATOM     15  C   UNL     1       1.503   9.150  18.469  0.00  0.00    +0.000 A 
ATOM     16  C   UNL     1       0.582   9.995  19.116  0.00  0.00    +0.000 A 
BRANCH  11  17
ATOM     17  O   UNL     1      -0.784  10.593  20.922  0.00  0.00    +0.000 OA
BRANCH  17  18
ATOM     18  C   UNL     1      -0.758  11.938  20.438  0.00  0.00    +0.000 C 
BRANCH  18  20
ATOM     19  C   UNL     1       0.999  13.748  20.549  0.00  0.00    +0.000 C 
ATOM     20  C   UNL     1       0.144  12.770  21.344  0.00  0.00    +0.000 C 
ENDBRANCH  18  20
ENDBRANCH  17  18
ENDBRANCH  11  17
ENDBRANCH   1  14
BRANCH   3  21
ATOM     21  C   UNL     1       2.661   3.368  18.102  0.00  0.00    +0.000 C 
ATOM     22  O   UNL     1       2.232   2.478  17.389  0.00  0.00    +0.000 OA
BRANCH  21  23
ATOM     23  O   UNL     1       3.153   3.191  19.356  0.00  0.00    +0.000 OA
ATOM     24  C   UNL     1       4.090   2.120  19.440  0.00  0.00    +0.000 C 
ENDBRANCH  21  23
ENDBRANCH   3  21
BRANCH   6  25
ATOM     25  O   UNL     1       6.348   3.463  14.621  0.00  0.00    +0.000 OA
ATOM     26  C   UNL     1       6.097   3.712  13.251  0.00  0.00    +0.000 C 
ENDBRANCH   6  25
TORSDOF 7
ENDMDL
