MODEL 1
REMARK VINA RESULT:      -8.0      0.000      0.000
REMARK  Name = 
REMARK  7 active torsions:
REMARK  status: ('A' for Active; 'I' for Inactive)
REMARK    1  A    between atoms: C_1  and  C_2
REMARK    2  A    between atoms: C_2  and  C_3
REMARK    3  A    between atoms: C_6  and  C_8
REMARK    4  A    between atoms: C_8  and  C_9
REMARK    5  A    between atoms: C_12  and  N_13
REMARK    6  A    between atoms: C_18  and  O_19
REMARK    7  A    between atoms: C_18  and  C_20
REMARK                            x       y       z     vdW  Elec       q    Type
REMARK                         _______ _______ _______ _____ _____    ______ ____
ROOT
ATOM      1  C   UNL     1       2.056   5.884  19.948  0.00  0.00    +0.000 C 
ATOM      2  N   UNL     1       3.223   5.449  19.581  0.00  0.00    +0.000 NA
ATOM      3  N   UNL     1       3.134   4.081  19.524  0.00  0.00    +0.000 N 
ATOM      4  C   UNL     1       4.244   3.323  19.189  0.00  0.00    +0.000 C 
ATOM      5  O   UNL     1       4.222   2.092  19.158  0.00  0.00    +0.000 OA
ATOM      6  C   UNL     1       1.879   3.583  20.148  0.00  0.00    +0.000 C 
ATOM      7  C   UNL     1       1.005   4.841  20.120  0.00  0.00    +0.000 C 
ENDROOT
BRANCH   6   8
ATOM      8  C   UNL     1       2.072   3.096  21.619  0.00  0.00    +0.000 C 
ATOM      9  F   UNL     1       0.962   2.548  22.149  0.00  0.00    +0.000 F 
ATOM     10  F   UNL     1       3.046   2.159  21.731  0.00  0.00    +0.000 F 
ATOM     11  F   UNL     1       2.432   4.128  22.424  0.00  0.00    +0.000 F 
ENDBRANCH   6   8
BRANCH   1  13
ATOM     12  C   UNL     1       2.105   8.147  18.942  0.00  0.00    +0.000 C 
ATOM     13  C   UNL     1       1.786   7.334  20.182  0.00  0.00    +0.000 C 
ENDBRANCH   1  13
BRANCH   6  14
ATOM     14  O   UNL     1       1.248   2.612  19.293  0.00  0.00    +0.000 OA
ATOM     15  H   UNL     1       1.669   1.750  19.484  0.00  0.00    +0.000 HD
ENDBRANCH   6  14
BRANCH   4  16
ATOM     16  C   UNL     1       5.529   4.129  18.881  0.00  0.00    +0.000 C 
BRANCH  16  17
ATOM     17  C   UNL     1       5.909   4.291  17.413  0.00  0.00    +0.000 A 
ATOM     18  C   UNL     1       5.044   3.988  16.354  0.00  0.00    +0.000 A 
ATOM     19  C   UNL     1       5.441   4.135  15.020  0.00  0.00    +0.000 A 
ATOM     20  C   UNL     1       6.730   4.596  14.728  0.00  0.00    +0.000 A 
ATOM     21  C   UNL     1       7.613   4.909  15.767  0.00  0.00    +0.000 A 
ATOM     22  C   UNL     1       7.199   4.758  17.096  0.00  0.00    +0.000 A 
BRANCH  20  23
ATOM     23  N   UNL     1       7.140   4.758  13.327  0.00  0.00    +0.000 N 
ATOM     24  O   UNL     1       7.962   5.642  13.062  0.00  0.00    +0.000 OA
ATOM     25  O   UNL     1       6.629   3.995  12.487  0.00  0.00    +0.000 OA
ENDBRANCH  20  23
ENDBRANCH  16  17
ENDBRANCH   4  16
TORSDOF 6
ENDMDL
MODEL 2
REMARK VINA RESULT:      -7.9      4.300      6.827
REMARK  Name = 
REMARK  7 active torsions:
REMARK  status: ('A' for Active; 'I' for Inactive)
REMARK    1  A    between atoms: C_1  and  C_2
REMARK    2  A    between atoms: C_2  and  C_3
REMARK    3  A    between atoms: C_6  and  C_8
REMARK    4  A    between atoms: C_8  and  C_9
REMARK    5  A    between atoms: C_12  and  N_13
REMARK    6  A    between atoms: C_18  and  O_19
REMARK    7  A    between atoms: C_18  and  C_20
REMARK                            x       y       z     vdW  Elec       q    Type
REMARK                         _______ _______ _______ _____ _____    ______ ____
ROOT
ATOM      1  C   UNL     1       6.998   5.435  18.325  0.00  0.00    +0.000 C 
ATOM      2  N   UNL     1       5.772   5.442  18.751  0.00  0.00    +0.000 NA
ATOM      3  N   UNL     1       5.039   4.703  17.857  0.00  0.00    +0.000 N 
ATOM      4  C   UNL     1       3.673   4.555  18.028  0.00  0.00    +0.000 C 
ATOM      5  O   UNL     1       2.969   3.930  17.233  0.00  0.00    +0.000 OA
ATOM      6  C   UNL     1       5.814   4.407  16.621  0.00  0.00    +0.000 C 
ATOM      7  C   UNL     1       7.252   4.617  17.105  0.00  0.00    +0.000 C 
ENDROOT
BRANCH   6   8
ATOM      8  C   UNL     1       5.494   5.382  15.444  0.00  0.00    +0.000 C 
ATOM      9  F   UNL     1       4.696   4.839  14.505  0.00  0.00    +0.000 F 
ATOM     10  F   UNL     1       4.871   6.512  15.862  0.00  0.00    +0.000 F 
ATOM     11  F   UNL     1       6.634   5.774  14.822  0.00  0.00    +0.000 F 
ENDBRANCH   6   8
BRANCH   1  13
ATOM     12  C   UNL     1       8.222   7.586  18.425  0.00  0.00    +0.000 C 
ATOM     13  C   UNL     1       8.083   6.196  19.014  0.00  0.00    +0.000 C 
ENDBRANCH   1  13
BRANCH   6  14
ATOM     14  O   UNL     1       5.685   3.015  16.274  0.00  0.00    +0.000 OA
ATOM     15  H   UNL     1       6.591   2.661  16.180  0.00  0.00    +0.000 HD
ENDBRANCH   6  14
BRANCH   4  16
ATOM     16  C   UNL     1       3.081   5.253  19.275  0.00  0.00    +0.000 C 
BRANCH  16  17
ATOM     17  C   UNL     1       2.539   6.666  19.086  0.00  0.00    +0.000 A 
ATOM     18  C   UNL     1       2.650   7.380  17.887  0.00  0.00    +0.000 A 
ATOM     19  C   UNL     1       2.153   8.683  17.762  0.00  0.00    +0.000 A 
ATOM     20  C   UNL     1       1.528   9.293  18.855  0.00  0.00    +0.000 A 
ATOM     21  C   UNL     1       1.400   8.600  20.064  0.00  0.00    +0.000 A 
ATOM     22  C   UNL     1       1.901   7.297  20.171  0.00  0.00    +0.000 A 
BRANCH  20  23
ATOM     23  N   UNL     1       0.998  10.656  18.718  0.00  0.00    +0.000 N 
ATOM     24  O   UNL     1      -0.223  10.816  18.811  0.00  0.00    +0.000 OA
ATOM     25  O   UNL     1       1.816  11.572  18.511  0.00  0.00    +0.000 OA
ENDBRANCH  20  23
ENDBRANCH  16  17
ENDBRANCH   4  16
TORSDOF 6
ENDMDL
MODEL 3
REMARK VINA RESULT:      -7.9      0.241      1.021
REMARK  Name = 
REMARK  7 active torsions:
REMARK  status: ('A' for Active; 'I' for Inactive)
REMARK    1  A    between atoms: C_1  and  C_2
REMARK    2  A    between atoms: C_2  and  C_3
REMARK    3  A    between atoms: C_6  and  C_8
REMARK    4  A    between atoms: C_8  and  C_9
REMARK    5  A    between atoms: C_12  and  N_13
REMARK    6  A    between atoms: C_18  and  O_19
REMARK    7  A    between atoms: C_18  and  C_20
REMARK                            x       y       z     vdW  Elec       q    Type
REMARK                         _______ _______ _______ _____ _____    ______ ____
ROOT
ATOM      1  C   UNL     1       1.922   5.752  20.224  0.00  0.00    +0.000 C 
ATOM      2  N   UNL     1       3.098   5.390  19.811  0.00  0.00    +0.000 NA
ATOM      3  N   UNL     1       3.069   4.024  19.682  0.00  0.00    +0.000 N 
ATOM      4  C   UNL     1       4.203   3.336  19.285  0.00  0.00    +0.000 C 
ATOM      5  O   UNL     1       4.235   2.109  19.189  0.00  0.00    +0.000 OA
ATOM      6  C   UNL     1       1.851   3.438  20.304  0.00  0.00    +0.000 C 
ATOM      7  C   UNL     1       0.921   4.655  20.360  0.00  0.00    +0.000 C 
ENDROOT
BRANCH   6   8
ATOM      8  C   UNL     1       2.098   2.883  21.743  0.00  0.00    +0.000 C 
ATOM      9  F   UNL     1       3.054   1.937  21.790  0.00  0.00    +0.000 F 
ATOM     10  F   UNL     1       2.480   3.851  22.612  0.00  0.00    +0.000 F 
ATOM     11  F   UNL     1       0.965   2.332  22.246  0.00  0.00    +0.000 F 
ENDBRANCH   6   8
BRANCH   1  13
ATOM     12  C   UNL     1       2.017   8.089  19.408  0.00  0.00    +0.000 C 
ATOM     13  C   UNL     1       1.593   7.174  20.540  0.00  0.00    +0.000 C 
ENDBRANCH   1  13
BRANCH   6  14
ATOM     14  O   UNL     1       1.245   2.486  19.410  0.00  0.00    +0.000 OA
ATOM     15  H   UNL     1       1.835   2.410  18.634  0.00  0.00    +0.000 HD
ENDBRANCH   6  14
BRANCH   4  16
ATOM     16  C   UNL     1       5.444   4.215  18.995  0.00  0.00    +0.000 C 
BRANCH  16  17
ATOM     17  C   UNL     1       5.864   4.360  17.537  0.00  0.00    +0.000 A 
ATOM     18  C   UNL     1       5.048   3.992  16.459  0.00  0.00    +0.000 A 
ATOM     19  C   UNL     1       5.481   4.126  15.134  0.00  0.00    +0.000 A 
ATOM     20  C   UNL     1       6.755   4.640  14.871  0.00  0.00    +0.000 A 
ATOM     21  C   UNL     1       7.590   5.018  15.929  0.00  0.00    +0.000 A 
ATOM     22  C   UNL     1       7.141   4.879  17.248  0.00  0.00    +0.000 A 
BRANCH  20  23
ATOM     23  N   UNL     1       7.203   4.789  13.480  0.00  0.00    +0.000 N 
ATOM     24  O   UNL     1       6.679   4.070  12.623  0.00  0.00    +0.000 OA
ATOM     25  O   UNL     1       8.089   5.632  13.249  0.00  0.00    +0.000 OA
ENDBRANCH  20  23
ENDBRANCH  16  17
ENDBRANCH   4  16
TORSDOF 6
ENDMDL
MODEL 4
REMARK VINA RESULT:      -7.8      4.134      6.771
REMARK  Name = 
REMARK  7 active torsions:
REMARK  status: ('A' for Active; 'I' for Inactive)
REMARK    1  A    between atoms: C_1  and  C_2
REMARK    2  A    between atoms: C_2  and  C_3
REMARK    3  A    between atoms: C_6  and  C_8
REMARK    4  A    between atoms: C_8  and  C_9
REMARK    5  A    between atoms: C_12  and  N_13
REMARK    6  A    between atoms: C_18  and  O_19
REMARK    7  A    between atoms: C_18  and  C_20
REMARK                            x       y       z     vdW  Elec       q    Type
REMARK                         _______ _______ _______ _____ _____    ______ ____
ROOT
ATOM      1  C   UNL     1       7.000   5.143  18.308  0.00  0.00    +0.000 C 
ATOM      2  N   UNL     1       5.775   5.009  18.715  0.00  0.00    +0.000 NA
ATOM      3  N   UNL     1       5.105   4.326  17.732  0.00  0.00    +0.000 N 
ATOM      4  C   UNL     1       3.753   4.058  17.866  0.00  0.00    +0.000 C 
ATOM      5  O   UNL     1       3.101   3.479  16.996  0.00  0.00    +0.000 OA
ATOM      6  C   UNL     1       5.905   4.234  16.481  0.00  0.00    +0.000 C 
ATOM      7  C   UNL     1       7.320   4.493  17.004  0.00  0.00    +0.000 C 
ENDROOT
BRANCH   6   8
ATOM      8  C   UNL     1       5.518   5.313  15.420  0.00  0.00    +0.000 C 
ATOM      9  F   UNL     1       6.583   5.867  14.811  0.00  0.00    +0.000 F 
ATOM     10  F   UNL     1       4.737   4.810  14.432  0.00  0.00    +0.000 F 
ATOM     11  F   UNL     1       4.816   6.322  15.995  0.00  0.00    +0.000 F 
ENDBRANCH   6   8
BRANCH   1  13
ATOM     12  C   UNL     1       8.215   7.290  18.527  0.00  0.00    +0.000 C 
ATOM     13  C   UNL     1       8.022   5.897  19.094  0.00  0.00    +0.000 C 
ENDBRANCH   1  13
BRANCH   6  14
ATOM     14  O   UNL     1       5.882   2.886  15.974  0.00  0.00    +0.000 OA
ATOM     15  H   UNL     1       5.096   2.814  15.397  0.00  0.00    +0.000 HD
ENDBRANCH   6  14
BRANCH   4  16
ATOM     16  C   UNL     1       3.104   4.562  19.178  0.00  0.00    +0.000 C 
BRANCH  16  17
ATOM     17  C   UNL     1       2.577   5.992  19.185  0.00  0.00    +0.000 A 
ATOM     18  C   UNL     1       2.634   6.841  18.073  0.00  0.00    +0.000 A 
ATOM     19  C   UNL     1       2.154   8.155  18.129  0.00  0.00    +0.000 A 
ATOM     20  C   UNL     1       1.601   8.639  19.319  0.00  0.00    +0.000 A 
ATOM     21  C   UNL     1       1.528   7.812  20.445  0.00  0.00    +0.000 A 
ATOM     22  C   UNL     1       2.011   6.500  20.371  0.00  0.00    +0.000 A 
BRANCH  20  23
ATOM     23  N   UNL     1       1.088  10.015  19.371  0.00  0.00    +0.000 N 
ATOM     24  O   UNL     1       0.963  10.546  20.480  0.00  0.00    +0.000 OA
ATOM     25  O   UNL     1       0.807  10.564  18.290  0.00  0.00    +0.000 OA
ENDBRANCH  20  23
ENDBRANCH  16  17
ENDBRANCH   4  16
TORSDOF 6
ENDMDL
MODEL 5
REMARK VINA RESULT:      -7.8      0.356      1.511
REMARK  Name = 
REMARK  7 active torsions:
REMARK  status: ('A' for Active; 'I' for Inactive)
REMARK    1  A    between atoms: C_1  and  C_2
REMARK    2  A    between atoms: C_2  and  C_3
REMARK    3  A    between atoms: C_6  and  C_8
REMARK    4  A    between atoms: C_8  and  C_9
REMARK    5  A    between atoms: C_12  and  N_13
REMARK    6  A    between atoms: C_18  and  O_19
REMARK    7  A    between atoms: C_18  and  C_20
REMARK                            x       y       z     vdW  Elec       q    Type
REMARK                         _______ _______ _______ _____ _____    ______ ____
ROOT
ATOM      1  C   UNL     1       2.151   6.083  20.042  0.00  0.00    +0.000 C 
ATOM      2  N   UNL     1       3.299   5.621  19.652  0.00  0.00    +0.000 NA
ATOM      3  N   UNL     1       3.158   4.261  19.533  0.00  0.00    +0.000 N 
ATOM      4  C   UNL     1       4.237   3.478  19.160  0.00  0.00    +0.000 C 
ATOM      5  O   UNL     1       4.169   2.251  19.073  0.00  0.00    +0.000 OA
ATOM      6  C   UNL     1       1.886   3.784  20.138  0.00  0.00    +0.000 C 
ATOM      7  C   UNL     1       1.060   5.074  20.170  0.00  0.00    +0.000 C 
ENDROOT
BRANCH   6   8
ATOM      8  C   UNL     1       2.063   3.223  21.585  0.00  0.00    +0.000 C 
ATOM      9  F   UNL     1       2.971   2.231  21.663  0.00  0.00    +0.000 F 
ATOM     10  F   UNL     1       2.465   4.174  22.464  0.00  0.00    +0.000 F 
ATOM     11  F   UNL     1       0.890   2.729  22.055  0.00  0.00    +0.000 F 
ENDBRANCH   6   8
BRANCH   1  13
ATOM     12  C   UNL     1       0.773   7.714  21.298  0.00  0.00    +0.000 C 
ATOM     13  C   UNL     1       1.936   7.530  20.343  0.00  0.00    +0.000 C 
ENDBRANCH   1  13
BRANCH   6  14
ATOM     14  O   UNL     1       1.217   2.877  19.241  0.00  0.00    +0.000 OA
ATOM     15  H   UNL     1       1.295   3.257  18.344  0.00  0.00    +0.000 HD
ENDBRANCH   6  14
BRANCH   4  16
ATOM     16  C   UNL     1       5.552   4.248  18.884  0.00  0.00    +0.000 C 
BRANCH  16  17
ATOM     17  C   UNL     1       5.992   4.368  17.429  0.00  0.00    +0.000 A 
ATOM     18  C   UNL     1       7.258   4.824  17.042  0.00  0.00    +0.000 A 
ATOM     19  C   UNL     1       7.614   4.936  15.692  0.00  0.00    +0.000 A 
ATOM     20  C   UNL     1       6.691   4.586  14.701  0.00  0.00    +0.000 A 
ATOM     21  C   UNL     1       5.420   4.124  15.061  0.00  0.00    +0.000 A 
ATOM     22  C   UNL     1       5.080   4.016  16.415  0.00  0.00    +0.000 A 
BRANCH  20  23
ATOM     23  N   UNL     1       7.071   4.695  13.287  0.00  0.00    +0.000 N 
ATOM     24  O   UNL     1       6.535   3.927  12.481  0.00  0.00    +0.000 OA
ATOM     25  O   UNL     1       7.917   5.556  12.985  0.00  0.00    +0.000 OA
ENDBRANCH  20  23
ENDBRANCH  16  17
ENDBRANCH   4  16
TORSDOF 6
ENDMDL
MODEL 6
REMARK VINA RESULT:      -7.8      4.151      6.685
REMARK  Name = 
REMARK  7 active torsions:
REMARK  status: ('A' for Active; 'I' for Inactive)
REMARK    1  A    between atoms: C_1  and  C_2
REMARK    2  A    between atoms: C_2  and  C_3
REMARK    3  A    between atoms: C_6  and  C_8
REMARK    4  A    between atoms: C_8  and  C_9
REMARK    5  A    between atoms: C_12  and  N_13
REMARK    6  A    between atoms: C_18  and  O_19
REMARK    7  A    between atoms: C_18  and  C_20
REMARK                            x       y       z     vdW  Elec       q    Type
REMARK                         _______ _______ _______ _____ _____    ______ ____
ROOT
ATOM      1  C   UNL     1       6.961   5.148  18.290  0.00  0.00    +0.000 C 
ATOM      2  N   UNL     1       5.731   4.987  18.671  0.00  0.00    +0.000 NA
ATOM      3  N   UNL     1       5.097   4.290  17.673  0.00  0.00    +0.000 N 
ATOM      4  C   UNL     1       3.748   3.993  17.779  0.00  0.00    +0.000 C 
ATOM      5  O   UNL     1       3.128   3.400  16.894  0.00  0.00    +0.000 OA
ATOM      6  C   UNL     1       5.926   4.216  16.440  0.00  0.00    +0.000 C 
ATOM      7  C   UNL     1       7.324   4.505  16.994  0.00  0.00    +0.000 C 
ENDROOT
BRANCH   6   8
ATOM      8  C   UNL     1       5.538   5.286  15.371  0.00  0.00    +0.000 C 
ATOM      9  F   UNL     1       6.596   5.758  14.684  0.00  0.00    +0.000 F 
ATOM     10  F   UNL     1       4.671   4.804  14.446  0.00  0.00    +0.000 F 
ATOM     11  F   UNL     1       4.933   6.351  15.955  0.00  0.00    +0.000 F 
ENDBRANCH   6   8
BRANCH   1  13
ATOM     12  C   UNL     1       8.152   7.308  18.514  0.00  0.00    +0.000 C 
ATOM     13  C   UNL     1       7.949   5.924  19.098  0.00  0.00    +0.000 C 
ENDBRANCH   1  13
BRANCH   6  14
ATOM     14  O   UNL     1       5.943   2.868  15.933  0.00  0.00    +0.000 OA
ATOM     15  H   UNL     1       6.511   2.346  16.534  0.00  0.00    +0.000 HD
ENDBRANCH   6  14
BRANCH   4  16
ATOM     16  C   UNL     1       3.060   4.482  19.076  0.00  0.00    +0.000 C 
BRANCH  16  17
ATOM     17  C   UNL     1       2.604   5.937  19.112  0.00  0.00    +0.000 A 
ATOM     18  C   UNL     1       2.127   6.567  20.268  0.00  0.00    +0.000 A 
ATOM     19  C   UNL     1       1.701   7.901  20.252  0.00  0.00    +0.000 A 
ATOM     20  C   UNL     1       1.752   8.629  19.058  0.00  0.00    +0.000 A 
ATOM     21  C   UNL     1       2.228   8.025  17.889  0.00  0.00    +0.000 A 
ATOM     22  C   UNL     1       2.651   6.691  17.923  0.00  0.00    +0.000 A 
BRANCH  20  23
ATOM     23  N   UNL     1       1.314  10.031  19.047  0.00  0.00    +0.000 N 
ATOM     24  O   UNL     1       0.471  10.382  19.879  0.00  0.00    +0.000 OA
ATOM     25  O   UNL     1       1.819  10.783  18.194  0.00  0.00    +0.000 OA
ENDBRANCH  20  23
ENDBRANCH  16  17
ENDBRANCH   4  16
TORSDOF 6
ENDMDL
MODEL 7
REMARK VINA RESULT:      -7.7      4.171      7.532
REMARK  Name = 
REMARK  7 active torsions:
REMARK  status: ('A' for Active; 'I' for Inactive)
REMARK    1  A    between atoms: C_1  and  C_2
REMARK    2  A    between atoms: C_2  and  C_3
REMARK    3  A    between atoms: C_6  and  C_8
REMARK    4  A    between atoms: C_8  and  C_9
REMARK    5  A    between atoms: C_12  and  N_13
REMARK    6  A    between atoms: C_18  and  O_19
REMARK    7  A    between atoms: C_18  and  C_20
REMARK                            x       y       z     vdW  Elec       q    Type
REMARK                         _______ _______ _______ _____ _____    ______ ____
ROOT
ATOM      1  C   UNL     1       6.953   7.139  17.508  0.00  0.00    +0.000 C 
ATOM      2  N   UNL     1       5.662   7.269  17.491  0.00  0.00    +0.000 NA
ATOM      3  N   UNL     1       5.136   6.004  17.583  0.00  0.00    +0.000 N 
ATOM      4  C   UNL     1       3.765   5.815  17.555  0.00  0.00    +0.000 C 
ATOM      5  O   UNL     1       3.248   4.697  17.599  0.00  0.00    +0.000 OA
ATOM      6  C   UNL     1       6.178   4.960  17.390  0.00  0.00    +0.000 C 
ATOM      7  C   UNL     1       7.458   5.747  17.685  0.00  0.00    +0.000 C 
ENDROOT
BRANCH   6   8
ATOM      8  C   UNL     1       6.220   4.390  15.936  0.00  0.00    +0.000 C 
ATOM      9  F   UNL     1       5.492   5.110  15.062  0.00  0.00    +0.000 F 
ATOM     10  F   UNL     1       7.478   4.343  15.434  0.00  0.00    +0.000 F 
ATOM     11  F   UNL     1       5.741   3.121  15.905  0.00  0.00    +0.000 F 
ENDBRANCH   6   8
BRANCH   1  13
ATOM     12  C   UNL     1       8.585   8.597  18.669  0.00  0.00    +0.000 C 
ATOM     13  C   UNL     1       7.871   8.308  17.363  0.00  0.00    +0.000 C 
ENDBRANCH   1  13
BRANCH   6  14
ATOM     14  O   UNL     1       6.062   3.947  18.407  0.00  0.00    +0.000 OA
ATOM     15  H   UNL     1       6.972   3.677  18.644  0.00  0.00    +0.000 HD
ENDBRANCH   6  14
BRANCH   4  16
ATOM     16  C   UNL     1       2.919   7.105  17.436  0.00  0.00    +0.000 C 
BRANCH  16  17
ATOM     17  C   UNL     1       2.292   7.643  18.717  0.00  0.00    +0.000 A 
ATOM     18  C   UNL     1       2.283   6.936  19.927  0.00  0.00    +0.000 A 
ATOM     19  C   UNL     1       1.679   7.460  21.076  0.00  0.00    +0.000 A 
ATOM     20  C   UNL     1       1.069   8.718  21.025  0.00  0.00    +0.000 A 
ATOM     21  C   UNL     1       1.067   9.447  19.830  0.00  0.00    +0.000 A 
ATOM     22  C   UNL     1       1.677   8.909  18.691  0.00  0.00    +0.000 A 
BRANCH  20  23
ATOM     23  N   UNL     1       0.446   9.270  22.235  0.00  0.00    +0.000 N 
ATOM     24  O   UNL     1      -0.788   9.295  22.293  0.00  0.00    +0.000 OA
ATOM     25  O   UNL     1       1.202   9.683  23.133  0.00  0.00    +0.000 OA
ENDBRANCH  20  23
ENDBRANCH  16  17
ENDBRANCH   4  16
TORSDOF 6
ENDMDL
MODEL 8
REMARK VINA RESULT:      -7.6      4.652      5.893
REMARK  Name = 
REMARK  7 active torsions:
REMARK  status: ('A' for Active; 'I' for Inactive)
REMARK    1  A    between atoms: C_1  and  C_2
REMARK    2  A    between atoms: C_2  and  C_3
REMARK    3  A    between atoms: C_6  and  C_8
REMARK    4  A    between atoms: C_8  and  C_9
REMARK    5  A    between atoms: C_12  and  N_13
REMARK    6  A    between atoms: C_18  and  O_19
REMARK    7  A    between atoms: C_18  and  C_20
REMARK                            x       y       z     vdW  Elec       q    Type
REMARK                         _______ _______ _______ _____ _____    ______ ____
ROOT
ATOM      1  C   UNL     1       0.872   9.549  21.330  0.00  0.00    +0.000 C 
ATOM      2  N   UNL     1       1.325   8.609  20.558  0.00  0.00    +0.000 NA
ATOM      3  N   UNL     1       1.541   9.179  19.328  0.00  0.00    +0.000 N 
ATOM      4  C   UNL     1       1.998   8.409  18.272  0.00  0.00    +0.000 C 
ATOM      5  O   UNL     1       2.173   8.868  17.143  0.00  0.00    +0.000 OA
ATOM      6  C   UNL     1       0.940  10.537  19.237  0.00  0.00    +0.000 C 
ATOM      7  C   UNL     1       0.791  10.905  20.716  0.00  0.00    +0.000 C 
ENDROOT
BRANCH   6   8
ATOM      8  C   UNL     1      -0.456  10.549  18.537  0.00  0.00    +0.000 C 
ATOM      9  F   UNL     1      -1.465  10.196  19.356  0.00  0.00    +0.000 F 
ATOM     10  F   UNL     1      -0.779  11.771  18.045  0.00  0.00    +0.000 F 
ATOM     11  F   UNL     1      -0.474   9.689  17.487  0.00  0.00    +0.000 F 
ENDBRANCH   6   8
BRANCH   1  13
ATOM     12  C   UNL     1      -0.755  10.117  23.109  0.00  0.00    +0.000 C 
ATOM     13  C   UNL     1       0.459   9.287  22.742  0.00  0.00    +0.000 C 
ENDBRANCH   1  13
BRANCH   6  14
ATOM     14  O   UNL     1       1.884  11.462  18.665  0.00  0.00    +0.000 OA
ATOM     15  H   UNL     1       2.701  10.957  18.484  0.00  0.00    +0.000 HD
ENDBRANCH   6  14
BRANCH   4  16
ATOM     16  C   UNL     1       2.249   6.917  18.600  0.00  0.00    +0.000 C 
BRANCH  16  17
ATOM     17  C   UNL     1       3.635   6.363  18.288  0.00  0.00    +0.000 A 
ATOM     18  C   UNL     1       4.312   6.610  17.087  0.00  0.00    +0.000 A 
ATOM     19  C   UNL     1       5.577   6.066  16.834  0.00  0.00    +0.000 A 
ATOM     20  C   UNL     1       6.188   5.258  17.799  0.00  0.00    +0.000 A 
ATOM     21  C   UNL     1       5.536   4.999  19.010  0.00  0.00    +0.000 A 
ATOM     22  C   UNL     1       4.272   5.552  19.247  0.00  0.00    +0.000 A 
BRANCH  20  23
ATOM     23  N   UNL     1       7.520   4.698  17.536  0.00  0.00    +0.000 N 
ATOM     24  O   UNL     1       7.843   4.498  16.360  0.00  0.00    +0.000 OA
ATOM     25  O   UNL     1       8.245   4.454  18.518  0.00  0.00    +0.000 OA
ENDBRANCH  20  23
ENDBRANCH  16  17
ENDBRANCH   4  16
TORSDOF 6
ENDMDL
MODEL 9
REMARK VINA RESULT:      -7.6      4.059      7.539
REMARK  Name = 
REMARK  7 active torsions:
REMARK  status: ('A' for Active; 'I' for Inactive)
REMARK    1  A    between atoms: C_1  and  C_2
REMARK    2  A    between atoms: C_2  and  C_3
REMARK    3  A    between atoms: C_6  and  C_8
REMARK    4  A    between atoms: C_8  and  C_9
REMARK    5  A    between atoms: C_12  and  N_13
REMARK    6  A    between atoms: C_18  and  O_19
REMARK    7  A    between atoms: C_18  and  C_20
REMARK                            x       y       z     vdW  Elec       q    Type
REMARK                         _______ _______ _______ _____ _____    ______ ____
ROOT
ATOM      1  C   UNL     1       6.626   6.714  17.533  0.00  0.00    +0.000 C 
ATOM      2  N   UNL     1       5.385   7.080  17.623  0.00  0.00    +0.000 NA
ATOM      3  N   UNL     1       4.677   5.978  18.033  0.00  0.00    +0.000 N 
ATOM      4  C   UNL     1       3.303   6.050  18.188  0.00  0.00    +0.000 C 
ATOM      5  O   UNL     1       2.621   5.079  18.520  0.00  0.00    +0.000 OA
ATOM      6  C   UNL     1       5.495   4.738  17.958  0.00  0.00    +0.000 C 
ATOM      7  C   UNL     1       6.916   5.310  17.945  0.00  0.00    +0.000 C 
ENDROOT
BRANCH   6   8
ATOM      8  C   UNL     1       5.238   3.907  16.660  0.00  0.00    +0.000 C 
ATOM      9  F   UNL     1       6.368   3.447  16.091  0.00  0.00    +0.000 F 
ATOM     10  F   UNL     1       4.459   2.820  16.887  0.00  0.00    +0.000 F 
ATOM     11  F   UNL     1       4.598   4.657  15.729  0.00  0.00    +0.000 F 
ENDBRANCH   6   8
BRANCH   1  13
ATOM     12  C   UNL     1       8.202   8.513  18.180  0.00  0.00    +0.000 C 
ATOM     13  C   UNL     1       7.695   7.638  17.050  0.00  0.00    +0.000 C 
ENDBRANCH   1  13
BRANCH   6  14
ATOM     14  O   UNL     1       5.358   3.976  19.172  0.00  0.00    +0.000 OA
ATOM     15  H   UNL     1       5.232   3.043  18.908  0.00  0.00    +0.000 HD
ENDBRANCH   6  14
BRANCH   4  16
ATOM     16  C   UNL     1       2.673   7.432  17.889  0.00  0.00    +0.000 C 
BRANCH  16  17
ATOM     17  C   UNL     1       1.975   8.140  19.045  0.00  0.00    +0.000 A 
ATOM     18  C   UNL     1       1.877   7.600  20.333  0.00  0.00    +0.000 A 
ATOM     19  C   UNL     1       1.210   8.277  21.362  0.00  0.00    +0.000 A 
ATOM     20  C   UNL     1       0.628   9.523  21.106  0.00  0.00    +0.000 A 
ATOM     21  C   UNL     1       0.714  10.087  19.828  0.00  0.00    +0.000 A 
ATOM     22  C   UNL     1       1.385   9.397  18.811  0.00  0.00    +0.000 A 
BRANCH  20  23
ATOM     23  N   UNL     1      -0.061  10.236  22.190  0.00  0.00    +0.000 N 
ATOM     24  O   UNL     1       0.316  10.035  23.348  0.00  0.00    +0.000 OA
ATOM     25  O   UNL     1      -0.991  11.001  21.873  0.00  0.00    +0.000 OA
ENDBRANCH  20  23
ENDBRANCH  16  17
ENDBRANCH   4  16
TORSDOF 6
ENDMDL
