MODEL 1
REMARK VINA RESULT:      -7.0      0.000      0.000
REMARK  Name = 
REMARK  13 active torsions:
REMARK  status: ('A' for Active; 'I' for Inactive)
REMARK    1  A    between atoms: C_1  and  C_2
REMARK    2  A    between atoms: C_2  and  C_3
REMARK    3  A    between atoms: C_3  and  O_4
REMARK    4  A    between atoms: O_4  and  C_5
REMARK    5  A    between atoms: C_8  and  C_9
REMARK    6  A    between atoms: C_9  and  N_10
REMARK    7  A    between atoms: C_11  and  C_13
REMARK    8  A    between atoms: C_13  and  N_14
REMARK    9  A    between atoms: C_13  and  C_23
REMARK   10  A    between atoms: N_14  and  S_15
REMARK   11  A    between atoms: S_15  and  C_18
REMARK   12  A    between atoms: C_23  and  C_24
REMARK   13  A    between atoms: C_23  and  C_25
REMARK                            x       y       z     vdW  Elec       q    Type
REMARK                         _______ _______ _______ _____ _____    ______ ____
ROOT
ATOM      1  N   UNL     1       3.570   6.474  18.794  0.00  0.00    +0.000 N 
ATOM      2  C   UNL     1       4.157   5.441  18.073  0.00  0.00    +0.000 C 
ATOM      3  O   UNL     1       3.777   5.089  16.960  0.00  0.00    +0.000 OA
ATOM      4  H   UNL     1       3.643   6.411  19.799  0.00  0.00    +0.000 HD
ENDROOT
BRANCH   1   5
ATOM      5  C   UNL     1       2.389   7.168  18.295  0.00  0.00    +0.000 C 
BRANCH   5   9
ATOM      6  C   UNL     1       0.746  10.050  21.090  0.00  0.00    +0.000 A 
ATOM      7  C   UNL     1       0.932  10.356  19.742  0.00  0.00    +0.000 A 
ATOM      8  C   UNL     1       1.412   9.398  18.858  0.00  0.00    +0.000 A 
ATOM      9  C   UNL     1       1.772   8.119  19.293  0.00  0.00    +0.000 A 
ATOM     10  C   UNL     1       1.575   7.800  20.643  0.00  0.00    +0.000 A 
ATOM     11  C   UNL     1       1.052   8.759  21.532  0.00  0.00    +0.000 A 
BRANCH   6  12
ATOM     12  O   UNL     1       0.280  10.943  22.028  0.00  0.00    +0.000 OA
BRANCH  12  13
ATOM     13  C   UNL     1      -0.318  12.119  21.470  0.00  0.00    +0.000 C 
BRANCH  13  15
ATOM     14  C   UNL     1      -2.134  11.933  23.166  0.00  0.00    +0.000 C 
ATOM     15  C   UNL     1      -1.824  12.143  21.690  0.00  0.00    +0.000 C 
ENDBRANCH  13  15
ENDBRANCH  12  13
ENDBRANCH   6  12
ENDBRANCH   5   9
ENDBRANCH   1   5
BRANCH   2  16
ATOM     16  C   UNL     1       5.347   4.752  18.774  0.00  0.00    +0.000 C 
BRANCH  16  17
ATOM     17  C   UNL     1       6.711   5.401  18.425  0.00  0.00    +0.000 C 
ATOM     18  C   UNL     1       7.611   5.595  19.658  0.00  0.00    +0.000 C 
ATOM     19  C   UNL     1       7.512   4.572  17.413  0.00  0.00    +0.000 C 
ENDBRANCH  16  17
BRANCH  16  20
ATOM     20  N   UNL     1       5.347   3.287  18.501  0.00  0.00    +0.000 NA
ATOM     21  H   UNL     1       6.264   2.873  18.338  0.00  0.00    +0.000 HD
BRANCH  20  22
ATOM     22  S   UNL     1       4.403   2.221  19.405  0.00  0.00    +0.000 S 
ATOM     23  O   UNL     1       4.101   1.131  18.498  0.00  0.00    +0.000 OA
ATOM     24  O   UNL     1       5.046   1.962  20.670  0.00  0.00    +0.000 OA
BRANCH  22  25
ATOM     25  C   UNL     1       2.839   2.959  19.815  0.00  0.00    +0.000 A 
ATOM     26  C   UNL     1       2.451   3.791  20.852  0.00  0.00    +0.000 A 
ATOM     27  C   UNL     1       1.069   4.133  20.790  0.00  0.00    +0.000 A 
ATOM     28  C   UNL     1       0.445   3.557  19.705  0.00  0.00    +0.000 A 
ATOM     29  S   UNL     1       1.519   2.592  18.786  0.00  0.00    +0.000 S 
ENDBRANCH  22  25
ENDBRANCH  20  22
ENDBRANCH  16  20
ENDBRANCH   2  16
TORSDOF 10
ENDMDL
MODEL 2
REMARK VINA RESULT:      -6.9      2.074      4.001
REMARK  Name = 
REMARK  13 active torsions:
REMARK  status: ('A' for Active; 'I' for Inactive)
REMARK    1  A    between atoms: C_1  and  C_2
REMARK    2  A    between atoms: C_2  and  C_3
REMARK    3  A    between atoms: C_3  and  O_4
REMARK    4  A    between atoms: O_4  and  C_5
REMARK    5  A    between atoms: C_8  and  C_9
REMARK    6  A    between atoms: C_9  and  N_10
REMARK    7  A    between atoms: C_11  and  C_13
REMARK    8  A    between atoms: C_13  and  N_14
REMARK    9  A    between atoms: C_13  and  C_23
REMARK   10  A    between atoms: N_14  and  S_15
REMARK   11  A    between atoms: S_15  and  C_18
REMARK   12  A    between atoms: C_23  and  C_24
REMARK   13  A    between atoms: C_23  and  C_25
REMARK                            x       y       z     vdW  Elec       q    Type
REMARK                         _______ _______ _______ _____ _____    ______ ____
ROOT
ATOM      1  N   UNL     1       1.739   7.853  18.277  0.00  0.00    +0.000 N 
ATOM      2  C   UNL     1       3.012   7.359  18.019  0.00  0.00    +0.000 C 
ATOM      3  O   UNL     1       3.945   8.056  17.631  0.00  0.00    +0.000 OA
ATOM      4  H   UNL     1       0.979   7.198  18.169  0.00  0.00    +0.000 HD
ENDROOT
BRANCH   1   5
ATOM      5  C   UNL     1       1.405   9.248  18.023  0.00  0.00    +0.000 C 
BRANCH   5   9
ATOM      6  C   UNL     1      -0.219  11.449  21.390  0.00  0.00    +0.000 A 
ATOM      7  C   UNL     1      -0.100  12.024  20.125  0.00  0.00    +0.000 A 
ATOM      8  C   UNL     1       0.376  11.280  19.052  0.00  0.00    +0.000 A 
ATOM      9  C   UNL     1       0.797   9.957  19.211  0.00  0.00    +0.000 A 
ATOM     10  C   UNL     1       0.665   9.369  20.476  0.00  0.00    +0.000 A 
ATOM     11  C   UNL     1       0.148  10.111  21.555  0.00  0.00    +0.000 A 
BRANCH   6  12
ATOM     12  O   UNL     1      -0.677  12.118  22.503  0.00  0.00    +0.000 OA
BRANCH  12  13
ATOM     13  C   UNL     1      -1.760  11.463  23.175  0.00  0.00    +0.000 C 
BRANCH  13  15
ATOM     14  C   UNL     1      -3.585  12.723  22.039  0.00  0.00    +0.000 C 
ATOM     15  C   UNL     1      -2.942  12.399  23.381  0.00  0.00    +0.000 C 
ENDBRANCH  13  15
ENDBRANCH  12  13
ENDBRANCH   6  12
ENDBRANCH   5   9
ENDBRANCH   1   5
BRANCH   2  16
ATOM     16  C   UNL     1       3.184   5.844  18.260  0.00  0.00    +0.000 C 
BRANCH  16  17
ATOM     17  C   UNL     1       1.842   5.122  18.541  0.00  0.00    +0.000 C 
ATOM     18  C   UNL     1       1.655   3.858  17.683  0.00  0.00    +0.000 C 
ATOM     19  C   UNL     1       1.705   4.691  20.006  0.00  0.00    +0.000 C 
ENDBRANCH  16  17
BRANCH  16  20
ATOM     20  N   UNL     1       4.184   5.589  19.336  0.00  0.00    +0.000 NA
ATOM     21  H   UNL     1       3.794   5.397  20.257  0.00  0.00    +0.000 HD
BRANCH  20  22
ATOM     22  S   UNL     1       5.525   4.600  19.078  0.00  0.00    +0.000 S 
ATOM     23  O   UNL     1       6.634   5.312  19.682  0.00  0.00    +0.000 OA
ATOM     24  O   UNL     1       5.215   3.251  19.484  0.00  0.00    +0.000 OA
BRANCH  22  25
ATOM     25  C   UNL     1       5.903   4.494  17.344  0.00  0.00    +0.000 A 
ATOM     26  C   UNL     1       5.432   3.662  16.343  0.00  0.00    +0.000 A 
ATOM     27  C   UNL     1       6.035   3.931  15.080  0.00  0.00    +0.000 A 
ATOM     28  C   UNL     1       6.945   4.963  15.154  0.00  0.00    +0.000 A 
ATOM     29  S   UNL     1       7.083   5.582  16.743  0.00  0.00    +0.000 S 
ENDBRANCH  22  25
ENDBRANCH  20  22
ENDBRANCH  16  20
ENDBRANCH   2  16
TORSDOF 10
ENDMDL
MODEL 3
REMARK VINA RESULT:      -6.7      1.714      2.198
REMARK  Name = 
REMARK  13 active torsions:
REMARK  status: ('A' for Active; 'I' for Inactive)
REMARK    1  A    between atoms: C_1  and  C_2
REMARK    2  A    between atoms: C_2  and  C_3
REMARK    3  A    between atoms: C_3  and  O_4
REMARK    4  A    between atoms: O_4  and  C_5
REMARK    5  A    between atoms: C_8  and  C_9
REMARK    6  A    between atoms: C_9  and  N_10
REMARK    7  A    between atoms: C_11  and  C_13
REMARK    8  A    between atoms: C_13  and  N_14
REMARK    9  A    between atoms: C_13  and  C_23
REMARK   10  A    between atoms: N_14  and  S_15
REMARK   11  A    between atoms: S_15  and  C_18
REMARK   12  A    between atoms: C_23  and  C_24
REMARK   13  A    between atoms: C_23  and  C_25
REMARK                            x       y       z     vdW  Elec       q    Type
REMARK                         _______ _______ _______ _____ _____    ______ ____
ROOT
ATOM      1  N   UNL     1       2.736   7.281  18.616  0.00  0.00    +0.000 N 
ATOM      2  C   UNL     1       3.744   6.874  17.751  0.00  0.00    +0.000 C 
ATOM      3  O   UNL     1       4.100   7.523  16.772  0.00  0.00    +0.000 OA
ATOM      4  H   UNL     1       2.238   6.545  19.095  0.00  0.00    +0.000 HD
ENDROOT
BRANCH   1   5
ATOM      5  C   UNL     1       1.969   8.495  18.366  0.00  0.00    +0.000 C 
BRANCH   5   9
ATOM      6  C   UNL     1      -0.035   9.927  21.936  0.00  0.00    +0.000 A 
ATOM      7  C   UNL     1       0.709   8.749  21.934  0.00  0.00    +0.000 A 
ATOM      8  C   UNL     1       1.384   8.339  20.791  0.00  0.00    +0.000 A 
ATOM      9  C   UNL     1       1.299   9.060  19.596  0.00  0.00    +0.000 A 
ATOM     10  C   UNL     1       0.564  10.254  19.595  0.00  0.00    +0.000 A 
ATOM     11  C   UNL     1      -0.088  10.688  20.764  0.00  0.00    +0.000 A 
BRANCH   6  12
ATOM     12  O   UNL     1      -0.735  10.399  23.024  0.00  0.00    +0.000 OA
BRANCH  12  13
ATOM     13  C   UNL     1      -1.202  11.746  22.881  0.00  0.00    +0.000 C 
BRANCH  13  15
ATOM     14  C   UNL     1      -3.454  12.666  22.340  0.00  0.00    +0.000 C 
ATOM     15  C   UNL     1      -2.635  11.899  23.369  0.00  0.00    +0.000 C 
ENDBRANCH  13  15
ENDBRANCH  12  13
ENDBRANCH   6  12
ENDBRANCH   5   9
ENDBRANCH   1   5
BRANCH   2  16
ATOM     16  C   UNL     1       4.404   5.526  18.109  0.00  0.00    +0.000 C 
BRANCH  16  17
ATOM     17  C   UNL     1       5.952   5.579  18.053  0.00  0.00    +0.000 C 
ATOM     18  C   UNL     1       6.606   5.330  19.424  0.00  0.00    +0.000 C 
ATOM     19  C   UNL     1       6.538   4.544  17.084  0.00  0.00    +0.000 C 
ENDBRANCH  16  17
BRANCH  16  20
ATOM     20  N   UNL     1       3.858   4.427  17.263  0.00  0.00    +0.000 NA
ATOM     21  H   UNL     1       4.541   3.740  16.946  0.00  0.00    +0.000 HD
BRANCH  20  22
ATOM     22  S   UNL     1       2.416   3.645  17.653  0.00  0.00    +0.000 S 
ATOM     23  O   UNL     1       1.386   4.646  17.458  0.00  0.00    +0.000 OA
ATOM     24  O   UNL     1       2.348   2.382  16.960  0.00  0.00    +0.000 OA
BRANCH  22  25
ATOM     25  C   UNL     1       2.372   3.235  19.382  0.00  0.00    +0.000 A 
ATOM     26  C   UNL     1       3.344   2.759  20.247  0.00  0.00    +0.000 A 
ATOM     27  C   UNL     1       2.849   2.557  21.568  0.00  0.00    +0.000 A 
ATOM     28  C   UNL     1       1.516   2.889  21.674  0.00  0.00    +0.000 A 
ATOM     29  S   UNL     1       0.867   3.418  20.181  0.00  0.00    +0.000 S 
ENDBRANCH  22  25
ENDBRANCH  20  22
ENDBRANCH  16  20
ENDBRANCH   2  16
TORSDOF 10
ENDMDL
MODEL 4
REMARK VINA RESULT:      -6.7      3.175      7.995
REMARK  Name = 
REMARK  13 active torsions:
REMARK  status: ('A' for Active; 'I' for Inactive)
REMARK    1  A    between atoms: C_1  and  C_2
REMARK    2  A    between atoms: C_2  and  C_3
REMARK    3  A    between atoms: C_3  and  O_4
REMARK    4  A    between atoms: O_4  and  C_5
REMARK    5  A    between atoms: C_8  and  C_9
REMARK    6  A    between atoms: C_9  and  N_10
REMARK    7  A    between atoms: C_11  and  C_13
REMARK    8  A    between atoms: C_13  and  N_14
REMARK    9  A    between atoms: C_13  and  C_23
REMARK   10  A    between atoms: N_14  and  S_15
REMARK   11  A    between atoms: S_15  and  C_18
REMARK   12  A    between atoms: C_23  and  C_24
REMARK   13  A    between atoms: C_23  and  C_25
REMARK                            x       y       z     vdW  Elec       q    Type
REMARK                         _______ _______ _______ _____ _____    ______ ____
ROOT
ATOM      1  N   UNL     1       4.886   5.256  18.790  0.00  0.00    +0.000 N 
ATOM      2  C   UNL     1       4.152   6.371  18.405  0.00  0.00    +0.000 C 
ATOM      3  O   UNL     1       4.544   7.189  17.579  0.00  0.00    +0.000 OA
ATOM      4  H   UNL     1       4.707   4.908  19.721  0.00  0.00    +0.000 HD
ENDROOT
BRANCH   1   5
ATOM      5  C   UNL     1       6.233   5.026  18.283  0.00  0.00    +0.000 C 
BRANCH   5   9
ATOM      6  C   UNL     1       6.373   4.123  14.043  0.00  0.00    +0.000 A 
ATOM      7  C   UNL     1       5.374   3.613  14.870  0.00  0.00    +0.000 A 
ATOM      8  C   UNL     1       5.322   3.959  16.214  0.00  0.00    +0.000 A 
ATOM      9  C   UNL     1       6.292   4.783  16.793  0.00  0.00    +0.000 A 
ATOM     10  C   UNL     1       7.291   5.311  15.965  0.00  0.00    +0.000 A 
ATOM     11  C   UNL     1       7.321   4.991  14.594  0.00  0.00    +0.000 A 
BRANCH   6  12
ATOM     12  O   UNL     1       6.496   3.826  12.704  0.00  0.00    +0.000 OA
BRANCH  12  13
ATOM     13  C   UNL     1       5.351   3.170  12.144  0.00  0.00    +0.000 C 
BRANCH  13  15
ATOM     14  C   UNL     1       7.191   1.877  11.071  0.00  0.00    +0.000 C 
ATOM     15  C   UNL     1       5.726   1.851  11.485  0.00  0.00    +0.000 C 
ENDBRANCH  13  15
ENDBRANCH  12  13
ENDBRANCH   6  12
ENDBRANCH   5   9
ENDBRANCH   1   5
BRANCH   2  16
ATOM     16  C   UNL     1       2.778   6.516  19.093  0.00  0.00    +0.000 C 
BRANCH  16  17
ATOM     17  C   UNL     1       2.299   7.987  19.181  0.00  0.00    +0.000 C 
ATOM     18  C   UNL     1       1.523   8.436  17.930  0.00  0.00    +0.000 C 
ATOM     19  C   UNL     1       1.383   8.233  20.387  0.00  0.00    +0.000 C 
ENDBRANCH  16  17
BRANCH  16  20
ATOM     20  N   UNL     1       2.783   5.856  20.430  0.00  0.00    +0.000 NA
ATOM     21  H   UNL     1       2.626   6.476  21.223  0.00  0.00    +0.000 HD
BRANCH  20  22
ATOM     22  S   UNL     1       1.986   4.393  20.695  0.00  0.00    +0.000 S 
ATOM     23  O   UNL     1       2.427   3.962  22.007  0.00  0.00    +0.000 OA
ATOM     24  O   UNL     1       0.580   4.552  20.413  0.00  0.00    +0.000 OA
BRANCH  22  25
ATOM     25  C   UNL     1       2.556   3.151  19.558  0.00  0.00    +0.000 A 
ATOM     26  C   UNL     1       3.552   2.195  19.654  0.00  0.00    +0.000 A 
ATOM     27  C   UNL     1       3.669   1.407  18.472  0.00  0.00    +0.000 A 
ATOM     28  C   UNL     1       2.756   1.782  17.512  0.00  0.00    +0.000 A 
ATOM     29  S   UNL     1       1.783   3.091  18.030  0.00  0.00    +0.000 S 
ENDBRANCH  22  25
ENDBRANCH  20  22
ENDBRANCH  16  20
ENDBRANCH   2  16
TORSDOF 10
ENDMDL
MODEL 5
REMARK VINA RESULT:      -6.7      2.203      4.130
REMARK  Name = 
REMARK  13 active torsions:
REMARK  status: ('A' for Active; 'I' for Inactive)
REMARK    1  A    between atoms: C_1  and  C_2
REMARK    2  A    between atoms: C_2  and  C_3
REMARK    3  A    between atoms: C_3  and  O_4
REMARK    4  A    between atoms: O_4  and  C_5
REMARK    5  A    between atoms: C_8  and  C_9
REMARK    6  A    between atoms: C_9  and  N_10
REMARK    7  A    between atoms: C_11  and  C_13
REMARK    8  A    between atoms: C_13  and  N_14
REMARK    9  A    between atoms: C_13  and  C_23
REMARK   10  A    between atoms: N_14  and  S_15
REMARK   11  A    between atoms: S_15  and  C_18
REMARK   12  A    between atoms: C_23  and  C_24
REMARK   13  A    between atoms: C_23  and  C_25
REMARK                            x       y       z     vdW  Elec       q    Type
REMARK                         _______ _______ _______ _____ _____    ______ ____
ROOT
ATOM      1  N   UNL     1       1.843   7.786  18.257  0.00  0.00    +0.000 N 
ATOM      2  C   UNL     1       3.040   7.132  17.992  0.00  0.00    +0.000 C 
ATOM      3  O   UNL     1       3.969   7.642  17.375  0.00  0.00    +0.000 OA
ATOM      4  H   UNL     1       1.030   7.197  18.367  0.00  0.00    +0.000 HD
ENDROOT
BRANCH   1   5
ATOM      5  C   UNL     1       1.582   9.123  17.741  0.00  0.00    +0.000 C 
BRANCH   5   9
ATOM      6  C   UNL     1      -1.073  11.331  20.366  0.00  0.00    +0.000 A 
ATOM      7  C   UNL     1       0.189  10.910  20.782  0.00  0.00    +0.000 A 
ATOM      8  C   UNL     1       1.040  10.249  19.905  0.00  0.00    +0.000 A 
ATOM      9  C   UNL     1       0.646   9.939  18.601  0.00  0.00    +0.000 A 
ATOM     10  C   UNL     1      -0.616  10.373  18.170  0.00  0.00    +0.000 A 
ATOM     11  C   UNL     1      -1.464  11.076  19.048  0.00  0.00    +0.000 A 
BRANCH   6  12
ATOM     12  O   UNL     1      -1.975  11.986  21.174  0.00  0.00    +0.000 OA
BRANCH  12  13
ATOM     13  C   UNL     1      -1.483  13.215  21.723  0.00  0.00    +0.000 C 
BRANCH  13  15
ATOM     14  C   UNL     1      -1.386  14.538  23.833  0.00  0.00    +0.000 C 
ATOM     15  C   UNL     1      -1.344  13.138  23.237  0.00  0.00    +0.000 C 
ENDBRANCH  13  15
ENDBRANCH  12  13
ENDBRANCH   6  12
ENDBRANCH   5   9
ENDBRANCH   1   5
BRANCH   2  16
ATOM     16  C   UNL     1       3.129   5.691  18.538  0.00  0.00    +0.000 C 
BRANCH  16  17
ATOM     17  C   UNL     1       1.798   5.198  19.162  0.00  0.00    +0.000 C 
ATOM     18  C   UNL     1       1.348   3.836  18.605  0.00  0.00    +0.000 C 
ATOM     19  C   UNL     1       1.885   5.051  20.686  0.00  0.00    +0.000 C 
ENDBRANCH  16  17
BRANCH  16  20
ATOM     20  N   UNL     1       4.268   5.554  19.490  0.00  0.00    +0.000 NA
ATOM     21  H   UNL     1       4.008   5.444  20.468  0.00  0.00    +0.000 HD
BRANCH  20  22
ATOM     22  S   UNL     1       5.592   4.567  19.146  0.00  0.00    +0.000 S 
ATOM     23  O   UNL     1       6.728   5.253  19.728  0.00  0.00    +0.000 OA
ATOM     24  O   UNL     1       5.289   3.207  19.520  0.00  0.00    +0.000 OA
BRANCH  22  25
ATOM     25  C   UNL     1       5.899   4.515  17.396  0.00  0.00    +0.000 A 
ATOM     26  C   UNL     1       5.330   3.770  16.377  0.00  0.00    +0.000 A 
ATOM     27  C   UNL     1       5.907   4.054  15.105  0.00  0.00    +0.000 A 
ATOM     28  C   UNL     1       6.897   5.009  15.190  0.00  0.00    +0.000 A 
ATOM     29  S   UNL     1       7.137   5.539  16.799  0.00  0.00    +0.000 S 
ENDBRANCH  22  25
ENDBRANCH  20  22
ENDBRANCH  16  20
ENDBRANCH   2  16
TORSDOF 10
ENDMDL
MODEL 6
REMARK VINA RESULT:      -6.6      3.239      4.848
REMARK  Name = 
REMARK  13 active torsions:
REMARK  status: ('A' for Active; 'I' for Inactive)
REMARK    1  A    between atoms: C_1  and  C_2
REMARK    2  A    between atoms: C_2  and  C_3
REMARK    3  A    between atoms: C_3  and  O_4
REMARK    4  A    between atoms: O_4  and  C_5
REMARK    5  A    between atoms: C_8  and  C_9
REMARK    6  A    between atoms: C_9  and  N_10
REMARK    7  A    between atoms: C_11  and  C_13
REMARK    8  A    between atoms: C_13  and  N_14
REMARK    9  A    between atoms: C_13  and  C_23
REMARK   10  A    between atoms: N_14  and  S_15
REMARK   11  A    between atoms: S_15  and  C_18
REMARK   12  A    between atoms: C_23  and  C_24
REMARK   13  A    between atoms: C_23  and  C_25
REMARK                            x       y       z     vdW  Elec       q    Type
REMARK                         _______ _______ _______ _____ _____    ______ ____
ROOT
ATOM      1  N   UNL     1       1.825   8.428  18.926  0.00  0.00    +0.000 N 
ATOM      2  C   UNL     1       2.029   7.377  19.813  0.00  0.00    +0.000 C 
ATOM      3  O   UNL     1       1.788   7.447  21.014  0.00  0.00    +0.000 OA
ATOM      4  H   UNL     1       2.417   8.440  18.109  0.00  0.00    +0.000 HD
ENDROOT
BRANCH   1   5
ATOM      5  C   UNL     1       1.373   9.732  19.392  0.00  0.00    +0.000 C 
BRANCH   5   9
ATOM      6  C   UNL     1      -2.424  10.915  17.660  0.00  0.00    +0.000 A 
ATOM      7  C   UNL     1      -1.628   9.928  17.081  0.00  0.00    +0.000 A 
ATOM      8  C   UNL     1      -0.441   9.532  17.685  0.00  0.00    +0.000 A 
ATOM      9  C   UNL     1       0.021  10.139  18.855  0.00  0.00    +0.000 A 
ATOM     10  C   UNL     1      -0.781  11.122  19.451  0.00  0.00    +0.000 A 
ATOM     11  C   UNL     1      -2.003  11.497  18.859  0.00  0.00    +0.000 A 
BRANCH   6  12
ATOM     12  O   UNL     1      -3.609  11.366  17.124  0.00  0.00    +0.000 OA
BRANCH  12  13
ATOM     13  C   UNL     1      -4.601  11.707  18.101  0.00  0.00    +0.000 C 
BRANCH  13  15
ATOM     14  C   UNL     1      -7.081  11.882  18.268  0.00  0.00    +0.000 C 
ATOM     15  C   UNL     1      -5.856  12.274  17.453  0.00  0.00    +0.000 C 
ENDBRANCH  13  15
ENDBRANCH  12  13
ENDBRANCH   6  12
ENDBRANCH   5   9
ENDBRANCH   1   5
BRANCH   2  16
ATOM     16  C   UNL     1       2.587   6.087  19.176  0.00  0.00    +0.000 C 
BRANCH  16  17
ATOM     17  C   UNL     1       1.510   4.987  18.997  0.00  0.00    +0.000 C 
ATOM     18  C   UNL     1       1.691   4.182  17.698  0.00  0.00    +0.000 C 
ATOM     19  C   UNL     1       1.507   3.977  20.152  0.00  0.00    +0.000 C 
ENDBRANCH  16  17
BRANCH  16  20
ATOM     20  N   UNL     1       3.766   5.586  19.939  0.00  0.00    +0.000 NA
ATOM     21  H   UNL     1       3.549   5.097  20.805  0.00  0.00    +0.000 HD
BRANCH  20  22
ATOM     22  S   UNL     1       5.054   4.817  19.168  0.00  0.00    +0.000 S 
ATOM     23  O   UNL     1       6.240   5.330  19.825  0.00  0.00    +0.000 OA
ATOM     24  O   UNL     1       4.806   3.397  19.114  0.00  0.00    +0.000 OA
BRANCH  22  25
ATOM     25  C   UNL     1       5.174   5.338  17.473  0.00  0.00    +0.000 A 
ATOM     26  C   UNL     1       5.103   6.587  16.880  0.00  0.00    +0.000 A 
ATOM     27  C   UNL     1       5.242   6.529  15.463  0.00  0.00    +0.000 A 
ATOM     28  C   UNL     1       5.420   5.238  15.017  0.00  0.00    +0.000 A 
ATOM     29  S   UNL     1       5.395   4.107  16.301  0.00  0.00    +0.000 S 
ENDBRANCH  22  25
ENDBRANCH  20  22
ENDBRANCH  16  20
ENDBRANCH   2  16
TORSDOF 10
ENDMDL
MODEL 7
REMARK VINA RESULT:      -6.6      0.756      1.300
REMARK  Name = 
REMARK  13 active torsions:
REMARK  status: ('A' for Active; 'I' for Inactive)
REMARK    1  A    between atoms: C_1  and  C_2
REMARK    2  A    between atoms: C_2  and  C_3
REMARK    3  A    between atoms: C_3  and  O_4
REMARK    4  A    between atoms: O_4  and  C_5
REMARK    5  A    between atoms: C_8  and  C_9
REMARK    6  A    between atoms: C_9  and  N_10
REMARK    7  A    between atoms: C_11  and  C_13
REMARK    8  A    between atoms: C_13  and  N_14
REMARK    9  A    between atoms: C_13  and  C_23
REMARK   10  A    between atoms: N_14  and  S_15
REMARK   11  A    between atoms: S_15  and  C_18
REMARK   12  A    between atoms: C_23  and  C_24
REMARK   13  A    between atoms: C_23  and  C_25
REMARK                            x       y       z     vdW  Elec       q    Type
REMARK                         _______ _______ _______ _____ _____    ______ ____
ROOT
ATOM      1  N   UNL     1       4.091   6.816  17.970  0.00  0.00    +0.000 N 
ATOM      2  C   UNL     1       4.175   5.435  17.849  0.00  0.00    +0.000 C 
ATOM      3  O   UNL     1       3.403   4.765  17.170  0.00  0.00    +0.000 OA
ATOM      4  H   UNL     1       4.452   7.209  18.827  0.00  0.00    +0.000 HD
ENDROOT
BRANCH   1   5
ATOM      5  C   UNL     1       3.007   7.565  17.347  0.00  0.00    +0.000 C 
BRANCH   5   9
ATOM      6  C   UNL     1       0.622   9.832  20.173  0.00  0.00    +0.000 A 
ATOM      7  C   UNL     1       1.186   8.602  20.508  0.00  0.00    +0.000 A 
ATOM      8  C   UNL     1       1.988   7.920  19.601  0.00  0.00    +0.000 A 
ATOM      9  C   UNL     1       2.215   8.414  18.314  0.00  0.00    +0.000 A 
ATOM     10  C   UNL     1       1.663   9.657  17.975  0.00  0.00    +0.000 A 
ATOM     11  C   UNL     1       0.881  10.365  18.907  0.00  0.00    +0.000 A 
BRANCH   6  12
ATOM     12  O   UNL     1      -0.187  10.566  21.012  0.00  0.00    +0.000 OA
BRANCH  12  13
ATOM     13  C   UNL     1      -1.147  11.383  20.331  0.00  0.00    +0.000 C 
BRANCH  13  15
ATOM     14  C   UNL     1      -2.479  13.476  20.565  0.00  0.00    +0.000 C 
ATOM     15  C   UNL     1      -1.923  12.264  21.300  0.00  0.00    +0.000 C 
ENDBRANCH  13  15
ENDBRANCH  12  13
ENDBRANCH   6  12
ENDBRANCH   5   9
ENDBRANCH   1   5
BRANCH   2  16
ATOM     16  C   UNL     1       5.332   4.782  18.635  0.00  0.00    +0.000 C 
BRANCH  16  17
ATOM     17  C   UNL     1       6.714   5.399  18.300  0.00  0.00    +0.000 C 
ATOM     18  C   UNL     1       7.590   5.609  19.548  0.00  0.00    +0.000 C 
ATOM     19  C   UNL     1       7.522   4.531  17.328  0.00  0.00    +0.000 C 
ENDBRANCH  16  17
BRANCH  16  20
ATOM     20  N   UNL     1       5.329   3.302  18.452  0.00  0.00    +0.000 NA
ATOM     21  H   UNL     1       6.242   2.882  18.286  0.00  0.00    +0.000 HD
BRANCH  20  22
ATOM     22  S   UNL     1       4.419   2.291  19.448  0.00  0.00    +0.000 S 
ATOM     23  O   UNL     1       4.087   1.151  18.618  0.00  0.00    +0.000 OA
ATOM     24  O   UNL     1       5.104   2.107  20.704  0.00  0.00    +0.000 OA
BRANCH  22  25
ATOM     25  C   UNL     1       2.868   3.053  19.868  0.00  0.00    +0.000 A 
ATOM     26  C   UNL     1       2.544   4.068  20.753  0.00  0.00    +0.000 A 
ATOM     27  C   UNL     1       1.147   4.351  20.772  0.00  0.00    +0.000 A 
ATOM     28  C   UNL     1       0.448   3.547  19.898  0.00  0.00    +0.000 A 
ATOM     29  S   UNL     1       1.472   2.446  19.081  0.00  0.00    +0.000 S 
ENDBRANCH  22  25
ENDBRANCH  20  22
ENDBRANCH  16  20
ENDBRANCH   2  16
TORSDOF 10
ENDMDL
MODEL 8
REMARK VINA RESULT:      -6.6      1.967      3.937
REMARK  Name = 
REMARK  13 active torsions:
REMARK  status: ('A' for Active; 'I' for Inactive)
REMARK    1  A    between atoms: C_1  and  C_2
REMARK    2  A    between atoms: C_2  and  C_3
REMARK    3  A    between atoms: C_3  and  O_4
REMARK    4  A    between atoms: O_4  and  C_5
REMARK    5  A    between atoms: C_8  and  C_9
REMARK    6  A    between atoms: C_9  and  N_10
REMARK    7  A    between atoms: C_11  and  C_13
REMARK    8  A    between atoms: C_13  and  N_14
REMARK    9  A    between atoms: C_13  and  C_23
REMARK   10  A    between atoms: N_14  and  S_15
REMARK   11  A    between atoms: S_15  and  C_18
REMARK   12  A    between atoms: C_23  and  C_24
REMARK   13  A    between atoms: C_23  and  C_25
REMARK                            x       y       z     vdW  Elec       q    Type
REMARK                         _______ _______ _______ _____ _____    ______ ____
ROOT
ATOM      1  N   UNL     1       1.986   7.656  19.784  0.00  0.00    +0.000 N 
ATOM      2  C   UNL     1       2.428   6.725  18.852  0.00  0.00    +0.000 C 
ATOM      3  O   UNL     1       2.504   6.953  17.648  0.00  0.00    +0.000 OA
ATOM      4  H   UNL     1       1.563   7.281  20.619  0.00  0.00    +0.000 HD
ENDROOT
BRANCH   1   5
ATOM      5  C   UNL     1       1.502   8.967  19.370  0.00  0.00    +0.000 C 
BRANCH   5   9
ATOM      6  C   UNL     1      -0.601  11.193  22.442  0.00  0.00    +0.000 A 
ATOM      7  C   UNL     1      -0.047  11.822  21.328  0.00  0.00    +0.000 A 
ATOM      8  C   UNL     1       0.577  11.080  20.333  0.00  0.00    +0.000 A 
ATOM      9  C   UNL     1       0.716   9.693  20.437  0.00  0.00    +0.000 A 
ATOM     10  C   UNL     1       0.148   9.052  21.547  0.00  0.00    +0.000 A 
ATOM     11  C   UNL     1      -0.517   9.801  22.536  0.00  0.00    +0.000 A 
BRANCH   6  12
ATOM     12  O   UNL     1      -1.231  11.857  23.471  0.00  0.00    +0.000 OA
BRANCH  12  13
ATOM     13  C   UNL     1      -2.638  12.044  23.272  0.00  0.00    +0.000 C 
BRANCH  13  15
ATOM     14  C   UNL     1      -1.872  14.269  24.092  0.00  0.00    +0.000 C 
ATOM     15  C   UNL     1      -3.063  13.473  23.576  0.00  0.00    +0.000 C 
ENDBRANCH  13  15
ENDBRANCH  12  13
ENDBRANCH   6  12
ENDBRANCH   5   9
ENDBRANCH   1   5
BRANCH   2  16
ATOM     16  C   UNL     1       2.830   5.355  19.440  0.00  0.00    +0.000 C 
BRANCH  16  17
ATOM     17  C   UNL     1       1.783   4.797  20.439  0.00  0.00    +0.000 C 
ATOM     18  C   UNL     1       0.754   3.871  19.767  0.00  0.00    +0.000 C 
ATOM     19  C   UNL     1       2.429   3.996  21.576  0.00  0.00    +0.000 C 
ENDBRANCH  16  17
BRANCH  16  20
ATOM     20  N   UNL     1       4.191   5.417  20.045  0.00  0.00    +0.000 NA
ATOM     21  H   UNL     1       4.230   5.257  21.050  0.00  0.00    +0.000 HD
BRANCH  20  22
ATOM     22  S   UNL     1       5.518   4.681  19.308  0.00  0.00    +0.000 S 
ATOM     23  O   UNL     1       6.671   5.386  19.829  0.00  0.00    +0.000 OA
ATOM     24  O   UNL     1       5.412   3.249  19.445  0.00  0.00    +0.000 OA
BRANCH  22  25
ATOM     25  C   UNL     1       5.513   4.985  17.556  0.00  0.00    +0.000 A 
ATOM     26  C   UNL     1       5.894   6.085  16.806  0.00  0.00    +0.000 A 
ATOM     27  C   UNL     1       5.703   5.887  15.408  0.00  0.00    +0.000 A 
ATOM     28  C   UNL     1       5.185   4.640  15.132  0.00  0.00    +0.000 A 
ATOM     29  S   UNL     1       4.914   3.730  16.556  0.00  0.00    +0.000 S 
ENDBRANCH  22  25
ENDBRANCH  20  22
ENDBRANCH  16  20
ENDBRANCH   2  16
TORSDOF 10
ENDMDL
MODEL 9
REMARK VINA RESULT:      -6.6      0.626      1.333
REMARK  Name = 
REMARK  13 active torsions:
REMARK  status: ('A' for Active; 'I' for Inactive)
REMARK    1  A    between atoms: C_1  and  C_2
REMARK    2  A    between atoms: C_2  and  C_3
REMARK    3  A    between atoms: C_3  and  O_4
REMARK    4  A    between atoms: O_4  and  C_5
REMARK    5  A    between atoms: C_8  and  C_9
REMARK    6  A    between atoms: C_9  and  N_10
REMARK    7  A    between atoms: C_11  and  C_13
REMARK    8  A    between atoms: C_13  and  N_14
REMARK    9  A    between atoms: C_13  and  C_23
REMARK   10  A    between atoms: N_14  and  S_15
REMARK   11  A    between atoms: S_15  and  C_18
REMARK   12  A    between atoms: C_23  and  C_24
REMARK   13  A    between atoms: C_23  and  C_25
REMARK                            x       y       z     vdW  Elec       q    Type
REMARK                         _______ _______ _______ _____ _____    ______ ____
ROOT
ATOM      1  N   UNL     1       3.463   6.407  19.027  0.00  0.00    +0.000 N 
ATOM      2  C   UNL     1       4.113   5.483  18.218  0.00  0.00    +0.000 C 
ATOM      3  O   UNL     1       3.768   5.227  17.068  0.00  0.00    +0.000 OA
ATOM      4  H   UNL     1       3.525   6.247  20.022  0.00  0.00    +0.000 HD
ENDROOT
BRANCH   1   5
ATOM      5  C   UNL     1       2.256   7.089  18.577  0.00  0.00    +0.000 C 
BRANCH   5   9
ATOM      6  C   UNL     1       0.637   9.901  21.455  0.00  0.00    +0.000 A 
ATOM      7  C   UNL     1       1.057   8.626  21.831  0.00  0.00    +0.000 A 
ATOM      8  C   UNL     1       1.620   7.763  20.898  0.00  0.00    +0.000 A 
ATOM      9  C   UNL     1       1.736   8.119  19.552  0.00  0.00    +0.000 A 
ATOM     10  C   UNL     1       1.330   9.405  19.170  0.00  0.00    +0.000 A 
ATOM     11  C   UNL     1       0.794  10.293  20.123  0.00  0.00    +0.000 A 
BRANCH   6  12
ATOM     12  O   UNL     1       0.067  10.812  22.317  0.00  0.00    +0.000 OA
BRANCH  12  13
ATOM     13  C   UNL     1      -0.807  11.751  21.679  0.00  0.00    +0.000 C 
BRANCH  13  15
ATOM     14  C   UNL     1       0.053  14.068  21.999  0.00  0.00    +0.000 C 
ATOM     15  C   UNL     1      -0.947  13.030  22.492  0.00  0.00    +0.000 C 
ENDBRANCH  13  15
ENDBRANCH  12  13
ENDBRANCH   6  12
ENDBRANCH   5   9
ENDBRANCH   1   5
BRANCH   2  16
ATOM     16  C   UNL     1       5.326   4.786  18.870  0.00  0.00    +0.000 C 
BRANCH  16  17
ATOM     17  C   UNL     1       6.672   5.475  18.528  0.00  0.00    +0.000 C 
ATOM     18  C   UNL     1       7.636   4.551  17.762  0.00  0.00    +0.000 C 
ATOM     19  C   UNL     1       6.485   6.734  17.672  0.00  0.00    +0.000 C 
ENDBRANCH  16  17
BRANCH  16  20
ATOM     20  N   UNL     1       5.348   3.334  18.533  0.00  0.00    +0.000 NA
ATOM     21  H   UNL     1       6.270   2.942  18.353  0.00  0.00    +0.000 HD
BRANCH  20  22
ATOM     22  S   UNL     1       4.421   2.216  19.391  0.00  0.00    +0.000 S 
ATOM     23  O   UNL     1       4.118   1.172  18.432  0.00  0.00    +0.000 OA
ATOM     24  O   UNL     1       5.078   1.898  20.635  0.00  0.00    +0.000 OA
BRANCH  22  25
ATOM     25  C   UNL     1       2.856   2.920  19.854  0.00  0.00    +0.000 A 
ATOM     26  C   UNL     1       2.452   3.624  20.976  0.00  0.00    +0.000 A 
ATOM     27  C   UNL     1       1.076   3.991  20.925  0.00  0.00    +0.000 A 
ATOM     28  C   UNL     1       0.471   3.559  19.765  0.00  0.00    +0.000 A 
ATOM     29  S   UNL     1       1.557   2.700  18.759  0.00  0.00    +0.000 S 
ENDBRANCH  22  25
ENDBRANCH  20  22
ENDBRANCH  16  20
ENDBRANCH   2  16
TORSDOF 10
ENDMDL
