MODEL 1
REMARK VINA RESULT:      -7.5      0.000      0.000
REMARK  Name = 
REMARK  3 active torsions:
REMARK  status: ('A' for Active; 'I' for Inactive)
REMARK    1  A    between atoms: C_1  and  C_2
REMARK    2  A    between atoms: N_9  and  N_10
REMARK    3  A    between atoms: C_15  and  C_16
REMARK                            x       y       z     vdW  Elec       q    Type
REMARK                         _______ _______ _______ _____ _____    ______ ____
ROOT
ATOM      1  C   UNL     1       3.691   1.544  18.530  0.00  0.00    +0.000 C 
ATOM      2  C   UNL     1       2.928   2.394  19.505  0.00  0.00    +0.000 A 
ATOM      3  C   UNL     1       2.358   1.766  20.622  0.00  0.00    +0.000 A 
ATOM      4  C   UNL     1       1.626   2.516  21.519  0.00  0.00    +0.000 A 
ATOM      5  N   UNL     1       1.418   3.840  21.387  0.00  0.00    +0.000 NA
ATOM      6  C   UNL     1       1.975   4.460  20.311  0.00  0.00    +0.000 A 
ATOM      7  C   UNL     1       2.737   3.782  19.346  0.00  0.00    +0.000 A 
ATOM      8  C   UNL     1       3.296   4.565  18.194  0.00  0.00    +0.000 C 
ATOM      9  N   UNL     1       4.303   4.099  17.511  0.00  0.00    +0.000 NA
ATOM     10  C   UNL     1       2.624   5.898  17.913  0.00  0.00    +0.000 C 
ATOM     11  C   UNL     1       2.548   6.679  19.225  0.00  0.00    +0.000 C 
ATOM     12  C   UNL     1       1.649   5.927  20.209  0.00  0.00    +0.000 C 
ENDROOT
BRANCH   9  13
ATOM     13  N   UNL     1       4.691   4.892  16.429  0.00  0.00    +0.000 NA
ATOM     14  C   UNL     1       5.972   4.887  16.223  0.00  0.00    +0.000 C 
ATOM     15  N   UNL     1       6.889   4.209  16.957  0.00  0.00    +0.000 N 
ATOM     16  N   UNL     1       6.535   5.559  15.196  0.00  0.00    +0.000 N 
ATOM     17  H   UNL     1       6.438   3.878  17.806  0.00  0.00    +0.000 HD
ATOM     18  H   UNL     1       7.752   4.693  17.142  0.00  0.00    +0.000 HD
ATOM     19  H   UNL     1       5.904   6.215  14.754  0.00  0.00    +0.000 HD
ATOM     20  H   UNL     1       7.476   5.901  15.317  0.00  0.00    +0.000 HD
ENDBRANCH   9  13
BRANCH  11  21
ATOM     21  C   UNL     1       2.081   8.103  19.008  0.00  0.00    +0.000 A 
ATOM     22  C   UNL     1       2.342   8.891  17.838  0.00  0.00    +0.000 A 
ATOM     23  C   UNL     1       1.810  10.159  17.920  0.00  0.00    +0.000 A 
ATOM     24  S   UNL     1       0.996  10.416  19.398  0.00  0.00    +0.000 S 
ATOM     25  C   UNL     1       1.354   8.832  19.932  0.00  0.00    +0.000 A 
ENDBRANCH  11  21
TORSDOF 2
ENDMDL
MODEL 2
REMARK VINA RESULT:      -7.4      3.405      5.283
REMARK  Name = 
REMARK  3 active torsions:
REMARK  status: ('A' for Active; 'I' for Inactive)
REMARK    1  A    between atoms: C_1  and  C_2
REMARK    2  A    between atoms: N_9  and  N_10
REMARK    3  A    between atoms: C_15  and  C_16
REMARK                            x       y       z     vdW  Elec       q    Type
REMARK                         _______ _______ _______ _____ _____    ______ ____
ROOT
ATOM      1  C   UNL     1       1.341   6.270  21.105  0.00  0.00    +0.000 C 
ATOM      2  C   UNL     1       2.046   5.040  20.608  0.00  0.00    +0.000 A 
ATOM      3  C   UNL     1       1.910   3.858  21.350  0.00  0.00    +0.000 A 
ATOM      4  C   UNL     1       2.569   2.720  20.935  0.00  0.00    +0.000 A 
ATOM      5  N   UNL     1       3.352   2.671  19.841  0.00  0.00    +0.000 NA
ATOM      6  C   UNL     1       3.483   3.811  19.109  0.00  0.00    +0.000 A 
ATOM      7  C   UNL     1       2.849   5.017  19.450  0.00  0.00    +0.000 A 
ATOM      8  C   UNL     1       3.071   6.216  18.575  0.00  0.00    +0.000 C 
ATOM      9  N   UNL     1       2.232   7.212  18.603  0.00  0.00    +0.000 NA
ATOM     10  C   UNL     1       4.298   6.163  17.681  0.00  0.00    +0.000 C 
ATOM     11  C   UNL     1       4.285   4.832  16.931  0.00  0.00    +0.000 C 
ATOM     12  C   UNL     1       4.417   3.685  17.934  0.00  0.00    +0.000 C 
ENDROOT
BRANCH   9  13
ATOM     13  N   UNL     1       2.582   8.292  17.788  0.00  0.00    +0.000 NA
ATOM     14  C   UNL     1       1.967   9.391  18.102  0.00  0.00    +0.000 C 
ATOM     15  N   UNL     1       1.060   9.533  19.101  0.00  0.00    +0.000 N 
ATOM     16  N   UNL     1       2.204  10.553  17.457  0.00  0.00    +0.000 N 
ATOM     17  H   UNL     1       0.791   8.607  19.423  0.00  0.00    +0.000 HD
ATOM     18  H   UNL     1       0.266  10.116  18.896  0.00  0.00    +0.000 HD
ATOM     19  H   UNL     1       2.728  10.434  16.598  0.00  0.00    +0.000 HD
ATOM     20  H   UNL     1       1.451  11.220  17.398  0.00  0.00    +0.000 HD
ENDBRANCH   9  13
BRANCH  11  21
ATOM     21  C   UNL     1       5.357   4.775  15.862  0.00  0.00    +0.000 A 
ATOM     22  C   UNL     1       6.666   5.351  15.971  0.00  0.00    +0.000 A 
ATOM     23  C   UNL     1       7.428   5.158  14.840  0.00  0.00    +0.000 A 
ATOM     24  S   UNL     1       6.582   4.289  13.639  0.00  0.00    +0.000 S 
ATOM     25  C   UNL     1       5.193   4.168  14.629  0.00  0.00    +0.000 A 
ENDBRANCH  11  21
TORSDOF 2
ENDMDL
MODEL 3
REMARK VINA RESULT:      -7.3      1.895      2.464
REMARK  Name = 
REMARK  3 active torsions:
REMARK  status: ('A' for Active; 'I' for Inactive)
REMARK    1  A    between atoms: C_1  and  C_2
REMARK    2  A    between atoms: N_9  and  N_10
REMARK    3  A    between atoms: C_15  and  C_16
REMARK                            x       y       z     vdW  Elec       q    Type
REMARK                         _______ _______ _______ _____ _____    ______ ____
ROOT
ATOM      1  C   UNL     1       5.550   3.262  16.395  0.00  0.00    +0.000 C 
ATOM      2  C   UNL     1       4.233   3.424  17.099  0.00  0.00    +0.000 A 
ATOM      3  C   UNL     1       3.469   2.274  17.343  0.00  0.00    +0.000 A 
ATOM      4  C   UNL     1       2.242   2.396  17.961  0.00  0.00    +0.000 A 
ATOM      5  N   UNL     1       1.719   3.574  18.352  0.00  0.00    +0.000 NA
ATOM      6  C   UNL     1       2.458   4.695  18.128  0.00  0.00    +0.000 A 
ATOM      7  C   UNL     1       3.718   4.671  17.509  0.00  0.00    +0.000 A 
ATOM      8  C   UNL     1       4.441   5.970  17.303  0.00  0.00    +0.000 C 
ATOM      9  N   UNL     1       5.729   5.981  17.111  0.00  0.00    +0.000 NA
ATOM     10  C   UNL     1       3.579   7.221  17.352  0.00  0.00    +0.000 C 
ATOM     11  C   UNL     1       2.732   7.167  18.623  0.00  0.00    +0.000 C 
ATOM     12  C   UNL     1       1.779   5.973  18.545  0.00  0.00    +0.000 C 
ENDROOT
BRANCH   9  13
ATOM     13  N   UNL     1       6.273   7.245  16.874  0.00  0.00    +0.000 NA
ATOM     14  C   UNL     1       7.338   7.485  17.576  0.00  0.00    +0.000 C 
ATOM     15  N   UNL     1       7.902   6.637  18.471  0.00  0.00    +0.000 N 
ATOM     16  N   UNL     1       8.031   8.637  17.454  0.00  0.00    +0.000 N 
ATOM     17  H   UNL     1       7.248   5.880  18.652  0.00  0.00    +0.000 HD
ATOM     18  H   UNL     1       8.250   7.057  19.318  0.00  0.00    +0.000 HD
ATOM     19  H   UNL     1       7.532   9.352  16.940  0.00  0.00    +0.000 HD
ATOM     20  H   UNL     1       8.527   8.975  18.264  0.00  0.00    +0.000 HD
ENDBRANCH   9  13
BRANCH  11  21
ATOM     21  C   UNL     1       1.993   8.466  18.865  0.00  0.00    +0.000 A 
ATOM     22  C   UNL     1       1.889   9.547  17.928  0.00  0.00    +0.000 A 
ATOM     23  C   UNL     1       1.169  10.613  18.420  0.00  0.00    +0.000 A 
ATOM     24  S   UNL     1       0.614  10.329  20.010  0.00  0.00    +0.000 S 
ATOM     25  C   UNL     1       1.336   8.779  20.042  0.00  0.00    +0.000 A 
ENDBRANCH  11  21
TORSDOF 2
ENDMDL
MODEL 4
REMARK VINA RESULT:      -7.3      1.590      4.479
REMARK  Name = 
REMARK  3 active torsions:
REMARK  status: ('A' for Active; 'I' for Inactive)
REMARK    1  A    between atoms: C_1  and  C_2
REMARK    2  A    between atoms: N_9  and  N_10
REMARK    3  A    between atoms: C_15  and  C_16
REMARK                            x       y       z     vdW  Elec       q    Type
REMARK                         _______ _______ _______ _____ _____    ______ ____
ROOT
ATOM      1  C   UNL     1       4.435   2.766  17.464  0.00  0.00    +0.000 C 
ATOM      2  C   UNL     1       4.505   4.205  17.038  0.00  0.00    +0.000 A 
ATOM      3  C   UNL     1       5.356   4.536  15.974  0.00  0.00    +0.000 A 
ATOM      4  C   UNL     1       5.465   5.854  15.580  0.00  0.00    +0.000 A 
ATOM      5  N   UNL     1       4.792   6.863  16.166  0.00  0.00    +0.000 NA
ATOM      6  C   UNL     1       3.957   6.549  17.194  0.00  0.00    +0.000 A 
ATOM      7  C   UNL     1       3.779   5.238  17.663  0.00  0.00    +0.000 A 
ATOM      8  C   UNL     1       2.838   5.009  18.810  0.00  0.00    +0.000 C 
ATOM      9  N   UNL     1       2.340   3.824  19.023  0.00  0.00    +0.000 NA
ATOM     10  C   UNL     1       2.519   6.229  19.657  0.00  0.00    +0.000 C 
ATOM     11  C   UNL     1       2.103   7.363  18.721  0.00  0.00    +0.000 C 
ATOM     12  C   UNL     1       3.286   7.740  17.827  0.00  0.00    +0.000 C 
ENDROOT
BRANCH   9  13
ATOM     13  N   UNL     1       1.527   3.728  20.155  0.00  0.00    +0.000 NA
ATOM     14  C   UNL     1       2.027   2.971  21.083  0.00  0.00    +0.000 C 
ATOM     15  N   UNL     1       3.209   2.309  21.012  0.00  0.00    +0.000 N 
ATOM     16  N   UNL     1       1.409   2.790  22.269  0.00  0.00    +0.000 N 
ATOM     17  H   UNL     1       3.533   2.335  20.049  0.00  0.00    +0.000 HD
ATOM     18  H   UNL     1       3.217   1.380  21.398  0.00  0.00    +0.000 HD
ATOM     19  H   UNL     1       0.450   3.115  22.275  0.00  0.00    +0.000 HD
ATOM     20  H   UNL     1       1.555   1.913  22.746  0.00  0.00    +0.000 HD
ENDBRANCH   9  13
BRANCH  11  21
ATOM     21  C   UNL     1       1.567   8.557  19.483  0.00  0.00    +0.000 A 
ATOM     22  C   UNL     1       1.254   8.573  20.883  0.00  0.00    +0.000 A 
ATOM     23  C   UNL     1       0.769   9.792  21.306  0.00  0.00    +0.000 A 
ATOM     24  S   UNL     1       0.682  10.923  20.031  0.00  0.00    +0.000 S 
ATOM     25  C   UNL     1       1.293   9.786  18.909  0.00  0.00    +0.000 A 
ENDBRANCH  11  21
TORSDOF 2
ENDMDL
MODEL 5
REMARK VINA RESULT:      -7.3      1.602      2.055
REMARK  Name = 
REMARK  3 active torsions:
REMARK  status: ('A' for Active; 'I' for Inactive)
REMARK    1  A    between atoms: C_1  and  C_2
REMARK    2  A    between atoms: N_9  and  N_10
REMARK    3  A    between atoms: C_15  and  C_16
REMARK                            x       y       z     vdW  Elec       q    Type
REMARK                         _______ _______ _______ _____ _____    ______ ____
ROOT
ATOM      1  C   UNL     1       4.444   2.924  17.048  0.00  0.00    +0.000 C 
ATOM      2  C   UNL     1       3.303   3.107  18.007  0.00  0.00    +0.000 A 
ATOM      3  C   UNL     1       2.555   1.976  18.366  0.00  0.00    +0.000 A 
ATOM      4  C   UNL     1       1.483   2.118  19.222  0.00  0.00    +0.000 A 
ATOM      5  N   UNL     1       1.099   3.299  19.744  0.00  0.00    +0.000 NA
ATOM      6  C   UNL     1       1.824   4.401  19.408  0.00  0.00    +0.000 A 
ATOM      7  C   UNL     1       2.932   4.355  18.548  0.00  0.00    +0.000 A 
ATOM      8  C   UNL     1       3.653   5.635  18.239  0.00  0.00    +0.000 C 
ATOM      9  N   UNL     1       4.877   5.607  17.791  0.00  0.00    +0.000 NA
ATOM     10  C   UNL     1       2.872   6.912  18.496  0.00  0.00    +0.000 C 
ATOM     11  C   UNL     1       2.295   6.842  19.909  0.00  0.00    +0.000 C 
ATOM     12  C   UNL     1       1.296   5.685  19.990  0.00  0.00    +0.000 C 
ENDROOT
BRANCH   9  13
ATOM     13  N   UNL     1       5.415   6.859  17.486  0.00  0.00    +0.000 NA
ATOM     14  C   UNL     1       6.708   6.848  17.375  0.00  0.00    +0.000 C 
ATOM     15  N   UNL     1       7.507   5.764  17.538  0.00  0.00    +0.000 N 
ATOM     16  N   UNL     1       7.407   7.954  17.041  0.00  0.00    +0.000 N 
ATOM     17  H   UNL     1       6.955   5.021  17.959  0.00  0.00    +0.000 HD
ATOM     18  H   UNL     1       8.373   5.925  18.024  0.00  0.00    +0.000 HD
ATOM     19  H   UNL     1       6.861   8.805  17.099  0.00  0.00    +0.000 HD
ATOM     20  H   UNL     1       8.349   8.037  17.390  0.00  0.00    +0.000 HD
ENDBRANCH   9  13
BRANCH  11  21
ATOM     21  C   UNL     1       1.675   8.156  20.333  0.00  0.00    +0.000 A 
ATOM     22  C   UNL     1       1.343   8.518  21.681  0.00  0.00    +0.000 A 
ATOM     23  C   UNL     1       0.776   9.771  21.772  0.00  0.00    +0.000 A 
ATOM     24  S   UNL     1       0.634  10.520  20.245  0.00  0.00    +0.000 S 
ATOM     25  C   UNL     1       1.331   9.172  19.458  0.00  0.00    +0.000 A 
ENDBRANCH  11  21
TORSDOF 2
ENDMDL
MODEL 6
REMARK VINA RESULT:      -7.1      1.527      4.403
REMARK  Name = 
REMARK  3 active torsions:
REMARK  status: ('A' for Active; 'I' for Inactive)
REMARK    1  A    between atoms: C_1  and  C_2
REMARK    2  A    between atoms: N_9  and  N_10
REMARK    3  A    between atoms: C_15  and  C_16
REMARK                            x       y       z     vdW  Elec       q    Type
REMARK                         _______ _______ _______ _____ _____    ______ ____
ROOT
ATOM      1  C   UNL     1       4.513   2.702  17.037  0.00  0.00    +0.000 C 
ATOM      2  C   UNL     1       4.724   4.154  16.715  0.00  0.00    +0.000 A 
ATOM      3  C   UNL     1       5.740   4.487  15.807  0.00  0.00    +0.000 A 
ATOM      4  C   UNL     1       5.977   5.814  15.516  0.00  0.00    +0.000 A 
ATOM      5  N   UNL     1       5.281   6.831  16.059  0.00  0.00    +0.000 NA
ATOM      6  C   UNL     1       4.288   6.517  16.935  0.00  0.00    +0.000 A 
ATOM      7  C   UNL     1       3.971   5.196  17.291  0.00  0.00    +0.000 A 
ATOM      8  C   UNL     1       2.860   4.966  18.275  0.00  0.00    +0.000 C 
ATOM      9  N   UNL     1       2.272   3.805  18.340  0.00  0.00    +0.000 NA
ATOM     10  C   UNL     1       2.487   6.157  19.140  0.00  0.00    +0.000 C 
ATOM     11  C   UNL     1       2.276   7.364  18.226  0.00  0.00    +0.000 C 
ATOM     12  C   UNL     1       3.597   7.712  17.537  0.00  0.00    +0.000 C 
ENDROOT
BRANCH   9  13
ATOM     13  N   UNL     1       1.297   3.701  19.334  0.00  0.00    +0.000 NA
ATOM     14  C   UNL     1       1.714   3.086  20.398  0.00  0.00    +0.000 C 
ATOM     15  N   UNL     1       2.955   2.569  20.578  0.00  0.00    +0.000 N 
ATOM     16  N   UNL     1       0.930   2.924  21.486  0.00  0.00    +0.000 N 
ATOM     17  H   UNL     1       3.430   2.557  19.679  0.00  0.00    +0.000 HD
ATOM     18  H   UNL     1       2.998   1.680  21.049  0.00  0.00    +0.000 HD
ATOM     19  H   UNL     1      -0.046   3.131  21.309  0.00  0.00    +0.000 HD
ATOM     20  H   UNL     1       1.087   2.113  22.062  0.00  0.00    +0.000 HD
ENDBRANCH   9  13
BRANCH  11  21
ATOM     21  C   UNL     1       1.699   8.547  18.975  0.00  0.00    +0.000 A 
ATOM     22  C   UNL     1       1.469   9.848  18.416  0.00  0.00    +0.000 A 
ATOM     23  C   UNL     1       0.949  10.737  19.331  0.00  0.00    +0.000 A 
ATOM     24  S   UNL     1       0.736  10.021  20.866  0.00  0.00    +0.000 S 
ATOM     25  C   UNL     1       1.338   8.521  20.310  0.00  0.00    +0.000 A 
ENDBRANCH  11  21
TORSDOF 2
ENDMDL
MODEL 7
REMARK VINA RESULT:      -7.0      0.687      1.057
REMARK  Name = 
REMARK  3 active torsions:
REMARK  status: ('A' for Active; 'I' for Inactive)
REMARK    1  A    between atoms: C_1  and  C_2
REMARK    2  A    between atoms: N_9  and  N_10
REMARK    3  A    between atoms: C_15  and  C_16
REMARK                            x       y       z     vdW  Elec       q    Type
REMARK                         _______ _______ _______ _____ _____    ______ ____
ROOT
ATOM      1  C   UNL     1       4.160   1.954  18.748  0.00  0.00    +0.000 C 
ATOM      2  C   UNL     1       3.268   2.682  19.712  0.00  0.00    +0.000 A 
ATOM      3  C   UNL     1       2.711   1.954  20.773  0.00  0.00    +0.000 A 
ATOM      4  C   UNL     1       1.864   2.588  21.658  0.00  0.00    +0.000 A 
ATOM      5  N   UNL     1       1.529   3.889  21.563  0.00  0.00    +0.000 NA
ATOM      6  C   UNL     1       2.071   4.606  20.541  0.00  0.00    +0.000 A 
ATOM      7  C   UNL     1       2.945   4.049  19.594  0.00  0.00    +0.000 A 
ATOM      8  C   UNL     1       3.476   4.931  18.503  0.00  0.00    +0.000 C 
ATOM      9  N   UNL     1       4.558   4.597  17.857  0.00  0.00    +0.000 NA
ATOM     10  C   UNL     1       2.686   6.201  18.236  0.00  0.00    +0.000 C 
ATOM     11  C   UNL     1       2.467   6.915  19.569  0.00  0.00    +0.000 C 
ATOM     12  C   UNL     1       1.603   6.036  20.476  0.00  0.00    +0.000 C 
ENDROOT
BRANCH   9  13
ATOM     13  N   UNL     1       4.915   5.470  16.827  0.00  0.00    +0.000 NA
ATOM     14  C   UNL     1       5.671   4.918  15.927  0.00  0.00    +0.000 C 
ATOM     15  N   UNL     1       6.108   3.634  15.940  0.00  0.00    +0.000 N 
ATOM     16  N   UNL     1       6.084   5.589  14.830  0.00  0.00    +0.000 N 
ATOM     17  H   UNL     1       5.922   3.242  16.859  0.00  0.00    +0.000 HD
ATOM     18  H   UNL     1       7.058   3.489  15.643  0.00  0.00    +0.000 HD
ATOM     19  H   UNL     1       5.931   6.588  14.891  0.00  0.00    +0.000 HD
ATOM     20  H   UNL     1       6.969   5.326  14.425  0.00  0.00    +0.000 HD
ENDBRANCH   9  13
BRANCH  11  21
ATOM     21  C   UNL     1       1.869   8.293  19.381  0.00  0.00    +0.000 A 
ATOM     22  C   UNL     1       1.126   9.015  20.373  0.00  0.00    +0.000 A 
ATOM     23  C   UNL     1       0.688  10.242  19.923  0.00  0.00    +0.000 A 
ATOM     24  S   UNL     1       1.161  10.536  18.309  0.00  0.00    +0.000 S 
ATOM     25  C   UNL     1       1.953   9.024  18.209  0.00  0.00    +0.000 A 
ENDBRANCH  11  21
TORSDOF 2
ENDMDL
MODEL 8
REMARK VINA RESULT:      -6.9      1.953      4.425
REMARK  Name = 
REMARK  3 active torsions:
REMARK  status: ('A' for Active; 'I' for Inactive)
REMARK    1  A    between atoms: C_1  and  C_2
REMARK    2  A    between atoms: N_9  and  N_10
REMARK    3  A    between atoms: C_15  and  C_16
REMARK                            x       y       z     vdW  Elec       q    Type
REMARK                         _______ _______ _______ _____ _____    ______ ____
ROOT
ATOM      1  C   UNL     1       5.478   2.919  16.273  0.00  0.00    +0.000 C 
ATOM      2  C   UNL     1       5.728   4.390  16.445  0.00  0.00    +0.000 A 
ATOM      3  C   UNL     1       6.971   4.899  16.041  0.00  0.00    +0.000 A 
ATOM      4  C   UNL     1       7.240   6.241  16.214  0.00  0.00    +0.000 A 
ATOM      5  N   UNL     1       6.368   7.111  16.757  0.00  0.00    +0.000 NA
ATOM      6  C   UNL     1       5.156   6.628  17.144  0.00  0.00    +0.000 A 
ATOM      7  C   UNL     1       4.790   5.280  17.006  0.00  0.00    +0.000 A 
ATOM      8  C   UNL     1       3.428   4.855  17.475  0.00  0.00    +0.000 C 
ATOM      9  N   UNL     1       2.895   3.753  17.029  0.00  0.00    +0.000 NA
ATOM     10  C   UNL     1       2.749   5.788  18.462  0.00  0.00    +0.000 C 
ATOM     11  C   UNL     1       2.803   7.206  17.893  0.00  0.00    +0.000 C 
ATOM     12  C   UNL     1       4.262   7.653  17.790  0.00  0.00    +0.000 C 
ENDROOT
BRANCH   9  13
ATOM     13  N   UNL     1       1.654   3.439  17.586  0.00  0.00    +0.000 NA
ATOM     14  C   UNL     1       1.658   2.327  18.255  0.00  0.00    +0.000 C 
ATOM     15  N   UNL     1       2.727   1.508  18.420  0.00  0.00    +0.000 N 
ATOM     16  N   UNL     1       0.563   1.876  18.903  0.00  0.00    +0.000 N 
ATOM     17  H   UNL     1       3.456   1.797  17.772  0.00  0.00    +0.000 HD
ATOM     18  H   UNL     1       2.538   0.521  18.372  0.00  0.00    +0.000 HD
ATOM     19  H   UNL     1      -0.285   2.364  18.643  0.00  0.00    +0.000 HD
ATOM     20  H   UNL     1       0.456   0.879  19.008  0.00  0.00    +0.000 HD
ENDBRANCH   9  13
BRANCH  11  21
ATOM     21  C   UNL     1       1.970   8.174  18.706  0.00  0.00    +0.000 A 
ATOM     22  C   UNL     1       1.345   9.360  18.195  0.00  0.00    +0.000 A 
ATOM     23  C   UNL     1       0.661  10.061  19.164  0.00  0.00    +0.000 A 
ATOM     24  S   UNL     1       0.763   9.306  20.691  0.00  0.00    +0.000 S 
ATOM     25  C   UNL     1       1.723   8.040  20.061  0.00  0.00    +0.000 A 
ENDBRANCH  11  21
TORSDOF 2
ENDMDL
MODEL 9
REMARK VINA RESULT:      -6.9      1.377      1.658
REMARK  Name = 
REMARK  3 active torsions:
REMARK  status: ('A' for Active; 'I' for Inactive)
REMARK    1  A    between atoms: C_1  and  C_2
REMARK    2  A    between atoms: N_9  and  N_10
REMARK    3  A    between atoms: C_15  and  C_16
REMARK                            x       y       z     vdW  Elec       q    Type
REMARK                         _______ _______ _______ _____ _____    ______ ____
ROOT
ATOM      1  C   UNL     1       4.578   2.692  18.744  0.00  0.00    +0.000 C 
ATOM      2  C   UNL     1       3.432   3.176  19.586  0.00  0.00    +0.000 A 
ATOM      3  C   UNL     1       2.747   2.236  20.369  0.00  0.00    +0.000 A 
ATOM      4  C   UNL     1       1.671   2.645  21.130  0.00  0.00    +0.000 A 
ATOM      5  N   UNL     1       1.227   3.916  21.168  0.00  0.00    +0.000 NA
ATOM      6  C   UNL     1       1.892   4.837  20.418  0.00  0.00    +0.000 A 
ATOM      7  C   UNL     1       2.998   4.517  19.615  0.00  0.00    +0.000 A 
ATOM      8  C   UNL     1       3.649   5.612  18.822  0.00  0.00    +0.000 C 
ATOM      9  N   UNL     1       4.871   5.472  18.390  0.00  0.00    +0.000 NA
ATOM     10  C   UNL     1       2.803   6.851  18.588  0.00  0.00    +0.000 C 
ATOM     11  C   UNL     1       2.236   7.303  19.933  0.00  0.00    +0.000 C 
ATOM     12  C   UNL     1       1.300   6.221  20.475  0.00  0.00    +0.000 C 
ENDROOT
BRANCH   9  13
ATOM     13  N   UNL     1       5.341   6.535  17.615  0.00  0.00    +0.000 NA
ATOM     14  C   UNL     1       6.636   6.603  17.570  0.00  0.00    +0.000 C 
ATOM     15  N   UNL     1       7.495   5.763  18.200  0.00  0.00    +0.000 N 
ATOM     16  N   UNL     1       7.279   7.536  16.837  0.00  0.00    +0.000 N 
ATOM     17  H   UNL     1       6.967   5.208  18.869  0.00  0.00    +0.000 HD
ATOM     18  H   UNL     1       8.308   6.190  18.610  0.00  0.00    +0.000 HD
ATOM     19  H   UNL     1       6.672   8.280  16.515  0.00  0.00    +0.000 HD
ATOM     20  H   UNL     1       8.183   7.845  17.158  0.00  0.00    +0.000 HD
ENDBRANCH   9  13
BRANCH  11  21
ATOM     21  C   UNL     1       1.548   8.648  19.834  0.00  0.00    +0.000 A 
ATOM     22  C   UNL     1       0.901   9.328  20.919  0.00  0.00    +0.000 A 
ATOM     23  C   UNL     1       0.346  10.530  20.539  0.00  0.00    +0.000 A 
ATOM     24  S   UNL     1       0.594  10.852  18.881  0.00  0.00    +0.000 S 
ATOM     25  C   UNL     1       1.444   9.385  18.668  0.00  0.00    +0.000 A 
ENDBRANCH  11  21
TORSDOF 2
ENDMDL
