MODEL 1
REMARK VINA RESULT:      -6.9      0.000      0.000
REMARK  Name = 
REMARK  13 active torsions:
REMARK  status: ('A' for Active; 'I' for Inactive)
REMARK    1  A    between atoms: C_2  and  C_3
REMARK    2  A    between atoms: C_3  and  C_4
REMARK    3  A    between atoms: C_6  and  C_7
REMARK    4  A    between atoms: C_7  and  O_8
REMARK    5  A    between atoms: O_8  and  C_9
REMARK    6  A    between atoms: C_9  and  C_10
REMARK    7  A    between atoms: C_16  and  O_17
REMARK    8  A    between atoms: O_17  and  C_18
REMARK    9  A    between atoms: C_18  and  C_19
REMARK   10  A    between atoms: C_25  and  O_26
REMARK   11  A    between atoms: O_26  and  C_27
REMARK   12  A    between atoms: C_27  and  C_28
REMARK   13  A    between atoms: C_34  and  O_35
REMARK                            x       y       z     vdW  Elec       q    Type
REMARK                         _______ _______ _______ _____ _____    ______ ____
ROOT
ATOM      1  C   UNL     1       0.797  10.013  19.035  0.00  0.00    +0.000 C 
ATOM      2  O   UNL     1       0.857   9.875  20.445  0.00  0.00    +0.000 OA
ATOM      3  C   UNL     1       0.736   8.533  20.864  0.00  0.00    +0.000 C 
ATOM      4  C   UNL     1       1.992   7.755  20.379  0.00  0.00    +0.000 C 
ATOM      5  C   UNL     1       2.157   7.883  18.797  0.00  0.00    +0.000 C 
ATOM      6  C   UNL     1       1.967   9.352  18.365  0.00  0.00    +0.000 C 
ENDROOT
BRANCH   6   7
ATOM      7  O   UNL     1       1.830   9.451  16.938  0.00  0.00    +0.000 OA
ATOM      8  H   UNL     1       0.891   9.366  16.720  0.00  0.00    +0.000 HD
ENDBRANCH   6   7
BRANCH   1   9
ATOM      9  C   UNL     1       0.857  11.515  18.808  0.00  0.00    +0.000 C 
BRANCH   9  11
ATOM     10  C   UNL     1      -1.756  12.581  18.719  0.00  0.00    +0.000 C 
ATOM     11  C   UNL     1      -0.550  12.089  18.760  0.00  0.00    +0.000 C 
ENDBRANCH   9  11
ENDBRANCH   1   9
BRANCH   3  12
ATOM     12  C   UNL     1       0.616   8.572  22.357  0.00  0.00    +0.000 C 
BRANCH  12  13
ATOM     13  O   UNL     1       0.400   9.919  22.841  0.00  0.00    +0.000 OA
BRANCH  13  14
ATOM     14  C   UNL     1      -0.937  10.172  23.244  0.00  0.00    +0.000 C 
BRANCH  14  15
ATOM     15  C   UNL     1      -1.311  11.599  22.916  0.00  0.00    +0.000 A 
ATOM     16  C   UNL     1      -0.377  12.475  22.360  0.00  0.00    +0.000 A 
ATOM     17  C   UNL     1      -0.733  13.791  22.049  0.00  0.00    +0.000 A 
ATOM     18  C   UNL     1      -2.017  14.251  22.314  0.00  0.00    +0.000 A 
ATOM     19  C   UNL     1      -2.966  13.370  22.834  0.00  0.00    +0.000 A 
ATOM     20  C   UNL     1      -2.618  12.060  23.153  0.00  0.00    +0.000 A 
ENDBRANCH  14  15
ENDBRANCH  13  14
ENDBRANCH  12  13
ENDBRANCH   3  12
BRANCH   4  21
ATOM     21  O   UNL     1       1.826   6.441  20.960  0.00  0.00    +0.000 OA
BRANCH  21  22
ATOM     22  C   UNL     1       1.019   5.434  20.327  0.00  0.00    +0.000 C 
BRANCH  22  23
ATOM     23  C   UNL     1       1.773   4.207  19.804  0.00  0.00    +0.000 A 
ATOM     24  C   UNL     1       2.990   3.829  20.384  0.00  0.00    +0.000 A 
ATOM     25  C   UNL     1       3.868   2.941  19.762  0.00  0.00    +0.000 A 
ATOM     26  C   UNL     1       3.490   2.296  18.596  0.00  0.00    +0.000 A 
ATOM     27  C   UNL     1       2.239   2.562  18.049  0.00  0.00    +0.000 A 
ATOM     28  C   UNL     1       1.382   3.503  18.652  0.00  0.00    +0.000 A 
ENDBRANCH  22  23
ENDBRANCH  21  22
ENDBRANCH   4  21
BRANCH   5  29
ATOM     29  O   UNL     1       3.481   7.627  18.183  0.00  0.00    +0.000 OA
BRANCH  29  30
ATOM     30  C   UNL     1       3.548   6.359  17.606  0.00  0.00    +0.000 C 
BRANCH  30  31
ATOM     31  C   UNL     1       4.810   5.588  17.377  0.00  0.00    +0.000 A 
ATOM     32  C   UNL     1       4.915   4.715  16.283  0.00  0.00    +0.000 A 
ATOM     33  C   UNL     1       6.127   4.138  15.978  0.00  0.00    +0.000 A 
ATOM     34  C   UNL     1       7.268   4.430  16.725  0.00  0.00    +0.000 A 
ATOM     35  C   UNL     1       7.208   5.411  17.722  0.00  0.00    +0.000 A 
ATOM     36  C   UNL     1       5.988   5.997  18.027  0.00  0.00    +0.000 A 
ENDBRANCH  30  31
ENDBRANCH  29  30
ENDBRANCH   5  29
TORSDOF 13
ENDMDL
MODEL 2
REMARK VINA RESULT:      -6.8      0.572      1.075
REMARK  Name = 
REMARK  13 active torsions:
REMARK  status: ('A' for Active; 'I' for Inactive)
REMARK    1  A    between atoms: C_2  and  C_3
REMARK    2  A    between atoms: C_3  and  C_4
REMARK    3  A    between atoms: C_6  and  C_7
REMARK    4  A    between atoms: C_7  and  O_8
REMARK    5  A    between atoms: O_8  and  C_9
REMARK    6  A    between atoms: C_9  and  C_10
REMARK    7  A    between atoms: C_16  and  O_17
REMARK    8  A    between atoms: O_17  and  C_18
REMARK    9  A    between atoms: C_18  and  C_19
REMARK   10  A    between atoms: C_25  and  O_26
REMARK   11  A    between atoms: O_26  and  C_27
REMARK   12  A    between atoms: C_27  and  C_28
REMARK   13  A    between atoms: C_34  and  O_35
REMARK                            x       y       z     vdW  Elec       q    Type
REMARK                         _______ _______ _______ _____ _____    ______ ____
ROOT
ATOM      1  C   UNL     1       0.880  10.160  19.045  0.00  0.00    +0.000 C 
ATOM      2  O   UNL     1       0.808  10.008  20.453  0.00  0.00    +0.000 OA
ATOM      3  C   UNL     1       0.547   8.678  20.842  0.00  0.00    +0.000 C 
ATOM      4  C   UNL     1       1.775   7.807  20.456  0.00  0.00    +0.000 C 
ATOM      5  C   UNL     1       2.086   7.932  18.896  0.00  0.00    +0.000 C 
ATOM      6  C   UNL     1       2.050   9.414  18.468  0.00  0.00    +0.000 C 
ENDROOT
BRANCH   6   7
ATOM      7  O   UNL     1       2.044   9.532  17.037  0.00  0.00    +0.000 OA
ATOM      8  H   UNL     1       1.368  10.179  16.792  0.00  0.00    +0.000 HD
ENDBRANCH   6   7
BRANCH   1   9
ATOM      9  C   UNL     1       1.077  11.654  18.844  0.00  0.00    +0.000 C 
BRANCH   9  11
ATOM     10  C   UNL     1      -1.429  12.953  18.765  0.00  0.00    +0.000 C 
ATOM     11  C   UNL     1      -0.272  12.353  18.801  0.00  0.00    +0.000 C 
ENDBRANCH   9  11
ENDBRANCH   1   9
BRANCH   3  12
ATOM     12  C   UNL     1       0.302   8.716  22.319  0.00  0.00    +0.000 C 
BRANCH  12  13
ATOM     13  O   UNL     1       0.163  10.073  22.803  0.00  0.00    +0.000 OA
BRANCH  13  14
ATOM     14  C   UNL     1      -1.138  10.377  23.281  0.00  0.00    +0.000 C 
BRANCH  14  15
ATOM     15  C   UNL     1      -1.505  11.795  22.907  0.00  0.00    +0.000 A 
ATOM     16  C   UNL     1      -2.833  12.224  22.940  0.00  0.00    +0.000 A 
ATOM     17  C   UNL     1      -3.163  13.540  22.603  0.00  0.00    +0.000 A 
ATOM     18  C   UNL     1      -2.175  14.431  22.205  0.00  0.00    +0.000 A 
ATOM     19  C   UNL     1      -0.842  14.020  22.208  0.00  0.00    +0.000 A 
ATOM     20  C   UNL     1      -0.505  12.710  22.535  0.00  0.00    +0.000 A 
ENDBRANCH  14  15
ENDBRANCH  13  14
ENDBRANCH  12  13
ENDBRANCH   3  12
BRANCH   4  21
ATOM     21  O   UNL     1       1.457   6.506  21.003  0.00  0.00    +0.000 OA
BRANCH  21  22
ATOM     22  C   UNL     1       2.459   5.487  21.154  0.00  0.00    +0.000 C 
BRANCH  22  23
ATOM     23  C   UNL     1       2.190   4.172  20.414  0.00  0.00    +0.000 A 
ATOM     24  C   UNL     1       3.255   3.345  20.038  0.00  0.00    +0.000 A 
ATOM     25  C   UNL     1       3.110   2.323  19.100  0.00  0.00    +0.000 A 
ATOM     26  C   UNL     1       1.854   2.008  18.607  0.00  0.00    +0.000 A 
ATOM     27  C   UNL     1       0.753   2.737  19.044  0.00  0.00    +0.000 A 
ATOM     28  C   UNL     1       0.915   3.804  19.947  0.00  0.00    +0.000 A 
ENDBRANCH  22  23
ENDBRANCH  21  22
ENDBRANCH   4  21
BRANCH   5  29
ATOM     29  O   UNL     1       3.434   7.575  18.394  0.00  0.00    +0.000 OA
BRANCH  29  30
ATOM     30  C   UNL     1       3.428   6.359  17.711  0.00  0.00    +0.000 C 
BRANCH  30  31
ATOM     31  C   UNL     1       4.653   5.620  17.269  0.00  0.00    +0.000 A 
ATOM     32  C   UNL     1       4.532   4.451  16.503  0.00  0.00    +0.000 A 
ATOM     33  C   UNL     1       5.654   3.868  15.957  0.00  0.00    +0.000 A 
ATOM     34  C   UNL     1       6.915   4.440  16.130  0.00  0.00    +0.000 A 
ATOM     35  C   UNL     1       7.028   5.683  16.765  0.00  0.00    +0.000 A 
ATOM     36  C   UNL     1       5.897   6.273  17.310  0.00  0.00    +0.000 A 
ENDBRANCH  30  31
ENDBRANCH  29  30
ENDBRANCH   5  29
TORSDOF 13
ENDMDL
MODEL 3
REMARK VINA RESULT:      -6.8      3.399      8.193
REMARK  Name = 
REMARK  13 active torsions:
REMARK  status: ('A' for Active; 'I' for Inactive)
REMARK    1  A    between atoms: C_2  and  C_3
REMARK    2  A    between atoms: C_3  and  C_4
REMARK    3  A    between atoms: C_6  and  C_7
REMARK    4  A    between atoms: C_7  and  O_8
REMARK    5  A    between atoms: O_8  and  C_9
REMARK    6  A    between atoms: C_9  and  C_10
REMARK    7  A    between atoms: C_16  and  O_17
REMARK    8  A    between atoms: O_17  and  C_18
REMARK    9  A    between atoms: C_18  and  C_19
REMARK   10  A    between atoms: C_25  and  O_26
REMARK   11  A    between atoms: O_26  and  C_27
REMARK   12  A    between atoms: C_27  and  C_28
REMARK   13  A    between atoms: C_34  and  O_35
REMARK                            x       y       z     vdW  Elec       q    Type
REMARK                         _______ _______ _______ _____ _____    ______ ____
ROOT
ATOM      1  C   UNL     1       6.504   5.258  15.176  0.00  0.00    +0.000 C 
ATOM      2  O   UNL     1       6.868   6.260  16.111  0.00  0.00    +0.000 OA
ATOM      3  C   UNL     1       5.777   6.700  16.888  0.00  0.00    +0.000 C 
ATOM      4  C   UNL     1       5.317   5.523  17.794  0.00  0.00    +0.000 C 
ATOM      5  C   UNL     1       4.957   4.242  16.913  0.00  0.00    +0.000 C 
ATOM      6  C   UNL     1       6.060   3.998  15.862  0.00  0.00    +0.000 C 
ENDROOT
BRANCH   6   7
ATOM      7  O   UNL     1       5.631   3.037  14.884  0.00  0.00    +0.000 OA
ATOM      8  H   UNL     1       5.914   2.161  15.180  0.00  0.00    +0.000 HD
ENDBRANCH   6   7
BRANCH   1   9
ATOM      9  C   UNL     1       7.783   4.996  14.398  0.00  0.00    +0.000 C 
BRANCH   9  11
ATOM     10  C   UNL     1       7.189   4.621  11.664  0.00  0.00    +0.000 C 
ATOM     11  C   UNL     1       7.463   4.794  12.926  0.00  0.00    +0.000 C 
ENDBRANCH   9  11
ENDBRANCH   1   9
BRANCH   3  12
ATOM     12  C   UNL     1       6.270   7.878  17.671  0.00  0.00    +0.000 C 
BRANCH  12  13
ATOM     13  O   UNL     1       7.599   8.276  17.258  0.00  0.00    +0.000 OA
BRANCH  13  14
ATOM     14  C   UNL     1       8.530   8.345  18.327  0.00  0.00    +0.000 C 
BRANCH  14  15
ATOM     15  C   UNL     1       8.812   9.790  18.669  0.00  0.00    +0.000 A 
ATOM     16  C   UNL     1       9.196  10.160  19.959  0.00  0.00    +0.000 A 
ATOM     17  C   UNL     1       9.467  11.497  20.265  0.00  0.00    +0.000 A 
ATOM     18  C   UNL     1       9.332  12.480  19.293  0.00  0.00    +0.000 A 
ATOM     19  C   UNL     1       8.987  12.113  17.992  0.00  0.00    +0.000 A 
ATOM     20  C   UNL     1       8.709  10.784  17.680  0.00  0.00    +0.000 A 
ENDBRANCH  14  15
ENDBRANCH  13  14
ENDBRANCH  12  13
ENDBRANCH   3  12
BRANCH   4  21
ATOM     21  O   UNL     1       4.289   6.111  18.624  0.00  0.00    +0.000 OA
BRANCH  21  22
ATOM     22  C   UNL     1       2.974   6.386  18.114  0.00  0.00    +0.000 C 
BRANCH  22  23
ATOM     23  C   UNL     1       2.317   7.674  18.622  0.00  0.00    +0.000 A 
ATOM     24  C   UNL     1       1.949   7.792  19.968  0.00  0.00    +0.000 A 
ATOM     25  C   UNL     1       1.074   8.781  20.417  0.00  0.00    +0.000 A 
ATOM     26  C   UNL     1       0.644   9.772  19.549  0.00  0.00    +0.000 A 
ATOM     27  C   UNL     1       1.079   9.751  18.228  0.00  0.00    +0.000 A 
ATOM     28  C   UNL     1       1.917   8.717  17.768  0.00  0.00    +0.000 A 
ENDBRANCH  22  23
ENDBRANCH  21  22
ENDBRANCH   4  21
BRANCH   5  29
ATOM     29  O   UNL     1       4.939   2.905  17.550  0.00  0.00    +0.000 OA
BRANCH  29  30
ATOM     30  C   UNL     1       3.639   2.465  17.796  0.00  0.00    +0.000 C 
BRANCH  30  31
ATOM     31  C   UNL     1       2.832   2.814  19.008  0.00  0.00    +0.000 A 
ATOM     32  C   UNL     1       1.459   3.074  18.890  0.00  0.00    +0.000 A 
ATOM     33  C   UNL     1       0.688   3.228  20.020  0.00  0.00    +0.000 A 
ATOM     34  C   UNL     1       1.247   3.101  21.291  0.00  0.00    +0.000 A 
ATOM     35  C   UNL     1       2.581   2.695  21.421  0.00  0.00    +0.000 A 
ATOM     36  C   UNL     1       3.357   2.534  20.282  0.00  0.00    +0.000 A 
ENDBRANCH  30  31
ENDBRANCH  29  30
ENDBRANCH   5  29
TORSDOF 13
ENDMDL
MODEL 4
REMARK VINA RESULT:      -6.7      2.861      5.815
REMARK  Name = 
REMARK  13 active torsions:
REMARK  status: ('A' for Active; 'I' for Inactive)
REMARK    1  A    between atoms: C_2  and  C_3
REMARK    2  A    between atoms: C_3  and  C_4
REMARK    3  A    between atoms: C_6  and  C_7
REMARK    4  A    between atoms: C_7  and  O_8
REMARK    5  A    between atoms: O_8  and  C_9
REMARK    6  A    between atoms: C_9  and  C_10
REMARK    7  A    between atoms: C_16  and  O_17
REMARK    8  A    between atoms: O_17  and  C_18
REMARK    9  A    between atoms: C_18  and  C_19
REMARK   10  A    between atoms: C_25  and  O_26
REMARK   11  A    between atoms: O_26  and  C_27
REMARK   12  A    between atoms: C_27  and  C_28
REMARK   13  A    between atoms: C_34  and  O_35
REMARK                            x       y       z     vdW  Elec       q    Type
REMARK                         _______ _______ _______ _____ _____    ______ ____
ROOT
ATOM      1  C   UNL     1       6.713   6.643  17.610  0.00  0.00    +0.000 C 
ATOM      2  O   UNL     1       5.920   6.117  18.662  0.00  0.00    +0.000 OA
ATOM      3  C   UNL     1       4.592   5.860  18.263  0.00  0.00    +0.000 C 
ATOM      4  C   UNL     1       4.610   4.703  17.224  0.00  0.00    +0.000 C 
ATOM      5  C   UNL     1       5.553   5.070  15.990  0.00  0.00    +0.000 C 
ATOM      6  C   UNL     1       6.891   5.645  16.502  0.00  0.00    +0.000 C 
ENDROOT
BRANCH   6   7
ATOM      7  O   UNL     1       7.636   6.239  15.427  0.00  0.00    +0.000 OA
ATOM      8  H   UNL     1       8.125   6.994  15.783  0.00  0.00    +0.000 HD
ENDBRANCH   6   7
BRANCH   1   9
ATOM      9  C   UNL     1       8.055   6.925  18.266  0.00  0.00    +0.000 C 
BRANCH   9  11
ATOM     10  C   UNL     1       8.589   9.697  18.213  0.00  0.00    +0.000 C 
ATOM     11  C   UNL     1       8.342   8.417  18.237  0.00  0.00    +0.000 C 
ENDBRANCH   9  11
ENDBRANCH   1   9
BRANCH   3  12
ATOM     12  C   UNL     1       3.842   5.508  19.511  0.00  0.00    +0.000 C 
BRANCH  12  13
ATOM     13  O   UNL     1       2.613   6.265  19.627  0.00  0.00    +0.000 OA
BRANCH  13  14
ATOM     14  C   UNL     1       2.592   7.441  18.833  0.00  0.00    +0.000 C 
BRANCH  14  15
ATOM     15  C   UNL     1       1.634   8.447  19.430  0.00  0.00    +0.000 A 
ATOM     16  C   UNL     1       1.326   8.422  20.791  0.00  0.00    +0.000 A 
ATOM     17  C   UNL     1       0.448   9.363  21.339  0.00  0.00    +0.000 A 
ATOM     18  C   UNL     1      -0.148  10.320  20.528  0.00  0.00    +0.000 A 
ATOM     19  C   UNL     1       0.186  10.375  19.175  0.00  0.00    +0.000 A 
ATOM     20  C   UNL     1       1.053   9.438  18.620  0.00  0.00    +0.000 A 
ENDBRANCH  14  15
ENDBRANCH  13  14
ENDBRANCH  12  13
ENDBRANCH   3  12
BRANCH   4  21
ATOM     21  O   UNL     1       3.209   4.442  16.979  0.00  0.00    +0.000 OA
BRANCH  21  22
ATOM     22  C   UNL     1       2.632   3.146  17.215  0.00  0.00    +0.000 C 
BRANCH  22  23
ATOM     23  C   UNL     1       2.267   2.834  18.671  0.00  0.00    +0.000 A 
ATOM     24  C   UNL     1       1.001   3.168  19.166  0.00  0.00    +0.000 A 
ATOM     25  C   UNL     1       0.723   3.209  20.533  0.00  0.00    +0.000 A 
ATOM     26  C   UNL     1       1.673   2.783  21.446  0.00  0.00    +0.000 A 
ATOM     27  C   UNL     1       2.906   2.336  20.983  0.00  0.00    +0.000 A 
ATOM     28  C   UNL     1       3.200   2.352  19.606  0.00  0.00    +0.000 A 
ENDBRANCH  22  23
ENDBRANCH  21  22
ENDBRANCH   4  21
BRANCH   5  29
ATOM     29  O   UNL     1       6.077   3.984  15.130  0.00  0.00    +0.000 OA
BRANCH  29  30
ATOM     30  C   UNL     1       6.244   4.402  13.810  0.00  0.00    +0.000 C 
BRANCH  30  31
ATOM     31  C   UNL     1       6.312   3.490  12.625  0.00  0.00    +0.000 A 
ATOM     32  C   UNL     1       7.555   3.109  12.099  0.00  0.00    +0.000 A 
ATOM     33  C   UNL     1       7.621   2.143  11.121  0.00  0.00    +0.000 A 
ATOM     34  C   UNL     1       6.467   1.509  10.660  0.00  0.00    +0.000 A 
ATOM     35  C   UNL     1       5.240   1.773  11.282  0.00  0.00    +0.000 A 
ATOM     36  C   UNL     1       5.174   2.743  12.271  0.00  0.00    +0.000 A 
ENDBRANCH  30  31
ENDBRANCH  29  30
ENDBRANCH   5  29
TORSDOF 13
ENDMDL
MODEL 5
REMARK VINA RESULT:      -6.7      3.391      8.235
REMARK  Name = 
REMARK  13 active torsions:
REMARK  status: ('A' for Active; 'I' for Inactive)
REMARK    1  A    between atoms: C_2  and  C_3
REMARK    2  A    between atoms: C_3  and  C_4
REMARK    3  A    between atoms: C_6  and  C_7
REMARK    4  A    between atoms: C_7  and  O_8
REMARK    5  A    between atoms: O_8  and  C_9
REMARK    6  A    between atoms: C_9  and  C_10
REMARK    7  A    between atoms: C_16  and  O_17
REMARK    8  A    between atoms: O_17  and  C_18
REMARK    9  A    between atoms: C_18  and  C_19
REMARK   10  A    between atoms: C_25  and  O_26
REMARK   11  A    between atoms: O_26  and  C_27
REMARK   12  A    between atoms: C_27  and  C_28
REMARK   13  A    between atoms: C_34  and  O_35
REMARK                            x       y       z     vdW  Elec       q    Type
REMARK                         _______ _______ _______ _____ _____    ______ ____
ROOT
ATOM      1  C   UNL     1       6.405   5.223  15.010  0.00  0.00    +0.000 C 
ATOM      2  O   UNL     1       6.794   6.258  15.899  0.00  0.00    +0.000 OA
ATOM      3  C   UNL     1       5.727   6.713  16.701  0.00  0.00    +0.000 C 
ATOM      4  C   UNL     1       5.311   5.562  17.660  0.00  0.00    +0.000 C 
ATOM      5  C   UNL     1       4.931   4.251  16.833  0.00  0.00    +0.000 C 
ATOM      6  C   UNL     1       5.998   3.982  15.752  0.00  0.00    +0.000 C 
ENDROOT
BRANCH   6   7
ATOM      7  O   UNL     1       5.543   2.987  14.821  0.00  0.00    +0.000 OA
ATOM      8  H   UNL     1       6.137   2.226  14.880  0.00  0.00    +0.000 HD
ENDBRANCH   6   7
BRANCH   1   9
ATOM      9  C   UNL     1       7.658   4.946  14.196  0.00  0.00    +0.000 C 
BRANCH   9  11
ATOM     10  C   UNL     1       6.952   3.944  11.652  0.00  0.00    +0.000 C 
ATOM     11  C   UNL     1       7.278   4.407  12.827  0.00  0.00    +0.000 C 
ENDBRANCH   9  11
ENDBRANCH   1   9
BRANCH   3  12
ATOM     12  C   UNL     1       6.237   7.920  17.428  0.00  0.00    +0.000 C 
BRANCH  12  13
ATOM     13  O   UNL     1       7.643   8.147  17.167  0.00  0.00    +0.000 OA
BRANCH  13  14
ATOM     14  C   UNL     1       8.418   8.329  18.342  0.00  0.00    +0.000 C 
BRANCH  14  15
ATOM     15  C   UNL     1       8.752   9.794  18.514  0.00  0.00    +0.000 A 
ATOM     16  C   UNL     1       8.334  10.739  17.576  0.00  0.00    +0.000 A 
ATOM     17  C   UNL     1       8.637  12.093  17.748  0.00  0.00    +0.000 A 
ATOM     18  C   UNL     1       9.381  12.512  18.844  0.00  0.00    +0.000 A 
ATOM     19  C   UNL     1       9.768  11.578  19.805  0.00  0.00    +0.000 A 
ATOM     20  C   UNL     1       9.476  10.226  19.638  0.00  0.00    +0.000 A 
ENDBRANCH  14  15
ENDBRANCH  13  14
ENDBRANCH  12  13
ENDBRANCH   3  12
BRANCH   4  21
ATOM     21  O   UNL     1       4.308   6.169  18.508  0.00  0.00    +0.000 OA
BRANCH  21  22
ATOM     22  C   UNL     1       2.925   6.218  18.121  0.00  0.00    +0.000 C 
BRANCH  22  23
ATOM     23  C   UNL     1       2.116   7.392  18.685  0.00  0.00    +0.000 A 
ATOM     24  C   UNL     1       1.866   8.518  17.893  0.00  0.00    +0.000 A 
ATOM     25  C   UNL     1       1.430   9.728  18.435  0.00  0.00    +0.000 A 
ATOM     26  C   UNL     1       1.099   9.807  19.778  0.00  0.00    +0.000 A 
ATOM     27  C   UNL     1       1.229   8.674  20.574  0.00  0.00    +0.000 A 
ATOM     28  C   UNL     1       1.724   7.472  20.033  0.00  0.00    +0.000 A 
ENDBRANCH  22  23
ENDBRANCH  21  22
ENDBRANCH   4  21
BRANCH   5  29
ATOM     29  O   UNL     1       4.949   2.935  17.513  0.00  0.00    +0.000 OA
BRANCH  29  30
ATOM     30  C   UNL     1       3.660   2.464  17.765  0.00  0.00    +0.000 C 
BRANCH  30  31
ATOM     31  C   UNL     1       2.842   2.811  18.970  0.00  0.00    +0.000 A 
ATOM     32  C   UNL     1       1.447   2.923  18.866  0.00  0.00    +0.000 A 
ATOM     33  C   UNL     1       0.684   3.074  20.002  0.00  0.00    +0.000 A 
ATOM     34  C   UNL     1       1.274   3.091  21.266  0.00  0.00    +0.000 A 
ATOM     35  C   UNL     1       2.645   2.832  21.390  0.00  0.00    +0.000 A 
ATOM     36  C   UNL     1       3.414   2.673  20.247  0.00  0.00    +0.000 A 
ENDBRANCH  30  31
ENDBRANCH  29  30
ENDBRANCH   5  29
TORSDOF 13
ENDMDL
MODEL 6
REMARK VINA RESULT:      -6.7      2.273      5.660
REMARK  Name = 
REMARK  13 active torsions:
REMARK  status: ('A' for Active; 'I' for Inactive)
REMARK    1  A    between atoms: C_2  and  C_3
REMARK    2  A    between atoms: C_3  and  C_4
REMARK    3  A    between atoms: C_6  and  C_7
REMARK    4  A    between atoms: C_7  and  O_8
REMARK    5  A    between atoms: O_8  and  C_9
REMARK    6  A    between atoms: C_9  and  C_10
REMARK    7  A    between atoms: C_16  and  O_17
REMARK    8  A    between atoms: O_17  and  C_18
REMARK    9  A    between atoms: C_18  and  C_19
REMARK   10  A    between atoms: C_25  and  O_26
REMARK   11  A    between atoms: O_26  and  C_27
REMARK   12  A    between atoms: C_27  and  C_28
REMARK   13  A    between atoms: C_34  and  O_35
REMARK                            x       y       z     vdW  Elec       q    Type
REMARK                         _______ _______ _______ _____ _____    ______ ____
ROOT
ATOM      1  C   UNL     1       3.347   3.998  19.977  0.00  0.00    +0.000 C 
ATOM      2  O   UNL     1       2.512   5.137  19.852  0.00  0.00    +0.000 OA
ATOM      3  C   UNL     1       3.183   6.243  19.290  0.00  0.00    +0.000 C 
ATOM      4  C   UNL     1       3.536   5.901  17.815  0.00  0.00    +0.000 C 
ATOM      5  C   UNL     1       4.402   4.564  17.739  0.00  0.00    +0.000 C 
ATOM      6  C   UNL     1       3.773   3.476  18.634  0.00  0.00    +0.000 C 
ENDROOT
BRANCH   6   7
ATOM      7  O   UNL     1       4.674   2.370  18.805  0.00  0.00    +0.000 OA
ATOM      8  H   UNL     1       5.418   2.494  18.200  0.00  0.00    +0.000 HD
ENDBRANCH   6   7
BRANCH   1   9
ATOM      9  C   UNL     1       2.468   2.970  20.671  0.00  0.00    +0.000 C 
BRANCH   9  11
ATOM     10  C   UNL     1       0.431   2.104  18.918  0.00  0.00    +0.000 C 
ATOM     11  C   UNL     1       1.371   2.504  19.727  0.00  0.00    +0.000 C 
ENDBRANCH   9  11
ENDBRANCH   1   9
BRANCH   3  12
ATOM     12  C   UNL     1       2.246   7.405  19.410  0.00  0.00    +0.000 C 
BRANCH  12  13
ATOM     13  O   UNL     1       1.892   7.666  20.789  0.00  0.00    +0.000 OA
BRANCH  13  14
ATOM     14  C   UNL     1       0.495   7.618  21.036  0.00  0.00    +0.000 C 
BRANCH  14  15
ATOM     15  C   UNL     1      -0.002   8.989  21.438  0.00  0.00    +0.000 A 
ATOM     16  C   UNL     1      -0.264   9.292  22.774  0.00  0.00    +0.000 A 
ATOM     17  C   UNL     1      -0.713  10.566  23.140  0.00  0.00    +0.000 A 
ATOM     18  C   UNL     1      -0.928  11.537  22.172  0.00  0.00    +0.000 A 
ATOM     19  C   UNL     1      -0.631  11.253  20.838  0.00  0.00    +0.000 A 
ATOM     20  C   UNL     1      -0.190   9.986  20.465  0.00  0.00    +0.000 A 
ENDBRANCH  14  15
ENDBRANCH  13  14
ENDBRANCH  12  13
ENDBRANCH   3  12
BRANCH   4  21
ATOM     21  O   UNL     1       4.102   7.131  17.305  0.00  0.00    +0.000 OA
BRANCH  21  22
ATOM     22  C   UNL     1       5.280   7.133  16.481  0.00  0.00    +0.000 C 
BRANCH  22  23
ATOM     23  C   UNL     1       6.603   7.398  17.208  0.00  0.00    +0.000 A 
ATOM     24  C   UNL     1       7.193   6.393  17.983  0.00  0.00    +0.000 A 
ATOM     25  C   UNL     1       8.200   6.663  18.911  0.00  0.00    +0.000 A 
ATOM     26  C   UNL     1       8.743   7.934  18.994  0.00  0.00    +0.000 A 
ATOM     27  C   UNL     1       8.258   8.934  18.158  0.00  0.00    +0.000 A 
ATOM     28  C   UNL     1       7.202   8.669  17.265  0.00  0.00    +0.000 A 
ENDBRANCH  22  23
ENDBRANCH  21  22
ENDBRANCH   4  21
BRANCH   5  29
ATOM     29  O   UNL     1       4.464   3.811  16.464  0.00  0.00    +0.000 OA
BRANCH  29  30
ATOM     30  C   UNL     1       5.765   3.742  15.965  0.00  0.00    +0.000 C 
BRANCH  30  31
ATOM     31  C   UNL     1       6.168   4.104  14.569  0.00  0.00    +0.000 A 
ATOM     32  C   UNL     1       7.269   4.944  14.349  0.00  0.00    +0.000 A 
ATOM     33  C   UNL     1       7.740   5.139  13.069  0.00  0.00    +0.000 A 
ATOM     34  C   UNL     1       7.153   4.489  11.983  0.00  0.00    +0.000 A 
ATOM     35  C   UNL     1       6.152   3.536  12.208  0.00  0.00    +0.000 A 
ATOM     36  C   UNL     1       5.681   3.335  13.497  0.00  0.00    +0.000 A 
ENDBRANCH  30  31
ENDBRANCH  29  30
ENDBRANCH   5  29
TORSDOF 13
ENDMDL
MODEL 7
REMARK VINA RESULT:      -6.6      1.535      9.067
REMARK  Name = 
REMARK  13 active torsions:
REMARK  status: ('A' for Active; 'I' for Inactive)
REMARK    1  A    between atoms: C_2  and  C_3
REMARK    2  A    between atoms: C_3  and  C_4
REMARK    3  A    between atoms: C_6  and  C_7
REMARK    4  A    between atoms: C_7  and  O_8
REMARK    5  A    between atoms: O_8  and  C_9
REMARK    6  A    between atoms: C_9  and  C_10
REMARK    7  A    between atoms: C_16  and  O_17
REMARK    8  A    between atoms: O_17  and  C_18
REMARK    9  A    between atoms: C_18  and  C_19
REMARK   10  A    between atoms: C_25  and  O_26
REMARK   11  A    between atoms: O_26  and  C_27
REMARK   12  A    between atoms: C_27  and  C_28
REMARK   13  A    between atoms: C_34  and  O_35
REMARK                            x       y       z     vdW  Elec       q    Type
REMARK                         _______ _______ _______ _____ _____    ______ ____
ROOT
ATOM      1  C   UNL     1       2.648   8.595  18.457  0.00  0.00    +0.000 C 
ATOM      2  O   UNL     1       2.049   7.580  19.246  0.00  0.00    +0.000 OA
ATOM      3  C   UNL     1       1.470   8.084  20.429  0.00  0.00    +0.000 C 
ATOM      4  C   UNL     1       0.263   8.983  20.037  0.00  0.00    +0.000 C 
ATOM      5  C   UNL     1       0.726  10.145  19.046  0.00  0.00    +0.000 C 
ATOM      6  C   UNL     1       1.625   9.563  17.935  0.00  0.00    +0.000 C 
ENDROOT
BRANCH   6   7
ATOM      7  O   UNL     1       2.279  10.613  17.204  0.00  0.00    +0.000 OA
ATOM      8  H   UNL     1       2.250  11.416  17.742  0.00  0.00    +0.000 HD
ENDBRANCH   6   7
BRANCH   1   9
ATOM      9  C   UNL     1       3.276   7.838  17.298  0.00  0.00    +0.000 C 
BRANCH   9  11
ATOM     10  C   UNL     1       4.860   5.716  18.279  0.00  0.00    +0.000 C 
ATOM     11  C   UNL     1       4.129   6.696  17.826  0.00  0.00    +0.000 C 
ENDBRANCH   9  11
ENDBRANCH   1   9
BRANCH   3  12
ATOM     12  C   UNL     1       1.066   6.890  21.238  0.00  0.00    +0.000 C 
BRANCH  12  13
ATOM     13  O   UNL     1       1.865   5.727  20.910  0.00  0.00    +0.000 OA
BRANCH  13  14
ATOM     14  C   UNL     1       1.094   4.582  20.581  0.00  0.00    +0.000 C 
BRANCH  14  15
ATOM     15  C   UNL     1       1.823   3.753  19.548  0.00  0.00    +0.000 A 
ATOM     16  C   UNL     1       1.659   4.001  18.185  0.00  0.00    +0.000 A 
ATOM     17  C   UNL     1       2.345   3.237  17.235  0.00  0.00    +0.000 A 
ATOM     18  C   UNL     1       3.179   2.203  17.638  0.00  0.00    +0.000 A 
ATOM     19  C   UNL     1       3.378   1.974  19.000  0.00  0.00    +0.000 A 
ATOM     20  C   UNL     1       2.694   2.726  19.952  0.00  0.00    +0.000 A 
ENDBRANCH  14  15
ENDBRANCH  13  14
ENDBRANCH  12  13
ENDBRANCH   3  12
BRANCH   4  21
ATOM     21  O   UNL     1      -0.323   9.342  21.309  0.00  0.00    +0.000 OA
BRANCH  21  22
ATOM     22  C   UNL     1       0.264  10.346  22.153  0.00  0.00    +0.000 C 
BRANCH  22  23
ATOM     23  C   UNL     1      -0.644  11.525  22.519  0.00  0.00    +0.000 A 
ATOM     24  C   UNL     1      -1.839  11.303  23.214  0.00  0.00    +0.000 A 
ATOM     25  C   UNL     1      -2.847  12.265  23.290  0.00  0.00    +0.000 A 
ATOM     26  C   UNL     1      -2.630  13.536  22.785  0.00  0.00    +0.000 A 
ATOM     27  C   UNL     1      -1.409  13.828  22.187  0.00  0.00    +0.000 A 
ATOM     28  C   UNL     1      -0.419  12.836  22.062  0.00  0.00    +0.000 A 
ENDBRANCH  22  23
ENDBRANCH  21  22
ENDBRANCH   4  21
BRANCH   5  29
ATOM     29  O   UNL     1      -0.284  10.821  18.200  0.00  0.00    +0.000 OA
BRANCH  29  30
ATOM     30  C   UNL     1      -1.240  11.488  18.966  0.00  0.00    +0.000 C 
BRANCH  30  31
ATOM     31  C   UNL     1      -2.705  11.531  18.661  0.00  0.00    +0.000 A 
ATOM     32  C   UNL     1      -3.591  12.162  19.546  0.00  0.00    +0.000 A 
ATOM     33  C   UNL     1      -4.907  12.348  19.185  0.00  0.00    +0.000 A 
ATOM     34  C   UNL     1      -5.371  11.942  17.934  0.00  0.00    +0.000 A 
ATOM     35  C   UNL     1      -4.464  11.448  16.989  0.00  0.00    +0.000 A 
ATOM     36  C   UNL     1      -3.137  11.265  17.350  0.00  0.00    +0.000 A 
ENDBRANCH  30  31
ENDBRANCH  29  30
ENDBRANCH   5  29
TORSDOF 13
ENDMDL
MODEL 8
REMARK VINA RESULT:      -6.6      3.077      6.568
REMARK  Name = 
REMARK  13 active torsions:
REMARK  status: ('A' for Active; 'I' for Inactive)
REMARK    1  A    between atoms: C_2  and  C_3
REMARK    2  A    between atoms: C_3  and  C_4
REMARK    3  A    between atoms: C_6  and  C_7
REMARK    4  A    between atoms: C_7  and  O_8
REMARK    5  A    between atoms: O_8  and  C_9
REMARK    6  A    between atoms: C_9  and  C_10
REMARK    7  A    between atoms: C_16  and  O_17
REMARK    8  A    between atoms: O_17  and  C_18
REMARK    9  A    between atoms: C_18  and  C_19
REMARK   10  A    between atoms: C_25  and  O_26
REMARK   11  A    between atoms: O_26  and  C_27
REMARK   12  A    between atoms: C_27  and  C_28
REMARK   13  A    between atoms: C_34  and  O_35
REMARK                            x       y       z     vdW  Elec       q    Type
REMARK                         _______ _______ _______ _____ _____    ______ ____
ROOT
ATOM      1  C   UNL     1       3.650   4.805  18.535  0.00  0.00    +0.000 C 
ATOM      2  O   UNL     1       3.159   5.957  17.869  0.00  0.00    +0.000 OA
ATOM      3  C   UNL     1       4.002   7.077  18.032  0.00  0.00    +0.000 C 
ATOM      4  C   UNL     1       5.342   6.790  17.298  0.00  0.00    +0.000 C 
ATOM      5  C   UNL     1       6.007   5.447  17.846  0.00  0.00    +0.000 C 
ATOM      6  C   UNL     1       4.944   4.332  17.937  0.00  0.00    +0.000 C 
ENDROOT
BRANCH   6   7
ATOM      7  O   UNL     1       5.444   3.211  18.684  0.00  0.00    +0.000 OA
ATOM      8  H   UNL     1       4.688   2.669  18.953  0.00  0.00    +0.000 HD
ENDBRANCH   6   7
BRANCH   1   9
ATOM      9  C   UNL     1       2.569   3.760  18.309  0.00  0.00    +0.000 C 
BRANCH   9  11
ATOM     10  C   UNL     1       1.204   3.248  20.727  0.00  0.00    +0.000 C 
ATOM     11  C   UNL     1       1.834   3.485  19.611  0.00  0.00    +0.000 C 
ENDBRANCH   9  11
ENDBRANCH   1   9
BRANCH   3  12
ATOM     12  C   UNL     1       3.260   8.244  17.454  0.00  0.00    +0.000 C 
BRANCH  12  13
ATOM     13  O   UNL     1       1.876   8.260  17.878  0.00  0.00    +0.000 OA
BRANCH  13  14
ATOM     14  C   UNL     1       1.373   9.564  18.128  0.00  0.00    +0.000 C 
BRANCH  14  15
ATOM     15  C   UNL     1       0.878   9.658  19.553  0.00  0.00    +0.000 A 
ATOM     16  C   UNL     1       1.218   8.687  20.496  0.00  0.00    +0.000 A 
ATOM     17  C   UNL     1       0.766   8.787  21.816  0.00  0.00    +0.000 A 
ATOM     18  C   UNL     1      -0.050   9.843  22.199  0.00  0.00    +0.000 A 
ATOM     19  C   UNL     1      -0.361  10.839  21.272  0.00  0.00    +0.000 A 
ATOM     20  C   UNL     1       0.079  10.743  19.954  0.00  0.00    +0.000 A 
ENDBRANCH  14  15
ENDBRANCH  13  14
ENDBRANCH  12  13
ENDBRANCH   3  12
BRANCH   4  21
ATOM     21  O   UNL     1       6.072   8.032  17.421  0.00  0.00    +0.000 OA
BRANCH  21  22
ATOM     22  C   UNL     1       7.507   8.058  17.506  0.00  0.00    +0.000 C 
BRANCH  22  23
ATOM     23  C   UNL     1       8.118   9.337  18.089  0.00  0.00    +0.000 A 
ATOM     24  C   UNL     1       7.883  10.572  17.475  0.00  0.00    +0.000 A 
ATOM     25  C   UNL     1       8.653  11.702  17.754  0.00  0.00    +0.000 A 
ATOM     26  C   UNL     1       9.602  11.661  18.763  0.00  0.00    +0.000 A 
ATOM     27  C   UNL     1       9.786  10.480  19.472  0.00  0.00    +0.000 A 
ATOM     28  C   UNL     1       9.045   9.327  19.147  0.00  0.00    +0.000 A 
ENDBRANCH  22  23
ENDBRANCH  21  22
ENDBRANCH   4  21
BRANCH   5  29
ATOM     29  O   UNL     1       7.013   4.745  17.015  0.00  0.00    +0.000 OA
BRANCH  29  30
ATOM     30  C   UNL     1       7.087   5.279  15.729  0.00  0.00    +0.000 C 
BRANCH  30  31
ATOM     31  C   UNL     1       6.726   4.544  14.475  0.00  0.00    +0.000 A 
ATOM     32  C   UNL     1       5.427   4.046  14.298  0.00  0.00    +0.000 A 
ATOM     33  C   UNL     1       5.051   3.522  13.082  0.00  0.00    +0.000 A 
ATOM     34  C   UNL     1       5.938   3.503  12.005  0.00  0.00    +0.000 A 
ATOM     35  C   UNL     1       7.184   4.131  12.125  0.00  0.00    +0.000 A 
ATOM     36  C   UNL     1       7.560   4.664  13.349  0.00  0.00    +0.000 A 
ENDBRANCH  30  31
ENDBRANCH  29  30
ENDBRANCH   5  29
TORSDOF 13
ENDMDL
MODEL 9
REMARK VINA RESULT:      -6.6      3.042      6.564
REMARK  Name = 
REMARK  13 active torsions:
REMARK  status: ('A' for Active; 'I' for Inactive)
REMARK    1  A    between atoms: C_2  and  C_3
REMARK    2  A    between atoms: C_3  and  C_4
REMARK    3  A    between atoms: C_6  and  C_7
REMARK    4  A    between atoms: C_7  and  O_8
REMARK    5  A    between atoms: O_8  and  C_9
REMARK    6  A    between atoms: C_9  and  C_10
REMARK    7  A    between atoms: C_16  and  O_17
REMARK    8  A    between atoms: O_17  and  C_18
REMARK    9  A    between atoms: C_18  and  C_19
REMARK   10  A    between atoms: C_25  and  O_26
REMARK   11  A    between atoms: O_26  and  C_27
REMARK   12  A    between atoms: C_27  and  C_28
REMARK   13  A    between atoms: C_34  and  O_35
REMARK                            x       y       z     vdW  Elec       q    Type
REMARK                         _______ _______ _______ _____ _____    ______ ____
ROOT
ATOM      1  C   UNL     1       3.579   4.742  18.653  0.00  0.00    +0.000 C 
ATOM      2  O   UNL     1       3.162   5.906  17.959  0.00  0.00    +0.000 OA
ATOM      3  C   UNL     1       4.108   6.950  18.031  0.00  0.00    +0.000 C 
ATOM      4  C   UNL     1       5.379   6.511  17.251  0.00  0.00    +0.000 C 
ATOM      5  C   UNL     1       5.948   5.137  17.830  0.00  0.00    +0.000 C 
ATOM      6  C   UNL     1       4.795   4.128  18.020  0.00  0.00    +0.000 C 
ENDROOT
BRANCH   6   7
ATOM      7  O   UNL     1       5.228   2.998  18.794  0.00  0.00    +0.000 OA
ATOM      8  H   UNL     1       4.442   2.529  19.106  0.00  0.00    +0.000 HD
ENDBRANCH   6   7
BRANCH   1   9
ATOM      9  C   UNL     1       2.400   3.793  18.524  0.00  0.00    +0.000 C 
BRANCH   9  11
ATOM     10  C   UNL     1       1.350   3.209  21.080  0.00  0.00    +0.000 C 
ATOM     11  C   UNL     1       1.834   3.479  19.900  0.00  0.00    +0.000 C 
ENDBRANCH   9  11
ENDBRANCH   1   9
BRANCH   3  12
ATOM     12  C   UNL     1       3.447   8.155  17.435  0.00  0.00    +0.000 C 
BRANCH  12  13
ATOM     13  O   UNL     1       2.037   8.207  17.760  0.00  0.00    +0.000 OA
BRANCH  13  14
ATOM     14  C   UNL     1       1.568   9.514  18.052  0.00  0.00    +0.000 C 
BRANCH  14  15
ATOM     15  C   UNL     1       0.982   9.550  19.445  0.00  0.00    +0.000 A 
ATOM     16  C   UNL     1       0.021  10.500  19.794  0.00  0.00    +0.000 A 
ATOM     17  C   UNL     1      -0.525  10.520  21.082  0.00  0.00    +0.000 A 
ATOM     18  C   UNL     1      -0.098   9.608  22.038  0.00  0.00    +0.000 A 
ATOM     19  C   UNL     1       0.833   8.631  21.685  0.00  0.00    +0.000 A 
ATOM     20  C   UNL     1       1.387   8.609  20.408  0.00  0.00    +0.000 A 
ENDBRANCH  14  15
ENDBRANCH  13  14
ENDBRANCH  12  13
ENDBRANCH   3  12
BRANCH   4  21
ATOM     21  O   UNL     1       6.223   7.685  17.285  0.00  0.00    +0.000 OA
BRANCH  21  22
ATOM     22  C   UNL     1       7.521   7.663  17.904  0.00  0.00    +0.000 C 
BRANCH  22  23
ATOM     23  C   UNL     1       8.201   9.026  18.075  0.00  0.00    +0.000 A 
ATOM     24  C   UNL     1       9.125   9.227  19.108  0.00  0.00    +0.000 A 
ATOM     25  C   UNL     1       9.525  10.500  19.512  0.00  0.00    +0.000 A 
ATOM     26  C   UNL     1       9.113  11.615  18.800  0.00  0.00    +0.000 A 
ATOM     27  C   UNL     1       8.284  11.445  17.697  0.00  0.00    +0.000 A 
ATOM     28  C   UNL     1       7.837  10.161  17.329  0.00  0.00    +0.000 A 
ENDBRANCH  22  23
ENDBRANCH  21  22
ENDBRANCH   4  21
BRANCH   5  29
ATOM     29  O   UNL     1       6.845   4.312  16.988  0.00  0.00    +0.000 OA
BRANCH  29  30
ATOM     30  C   UNL     1       7.311   5.018  15.879  0.00  0.00    +0.000 C 
BRANCH  30  31
ATOM     31  C   UNL     1       6.928   4.735  14.460  0.00  0.00    +0.000 A 
ATOM     32  C   UNL     1       7.750   5.166  13.408  0.00  0.00    +0.000 A 
ATOM     33  C   UNL     1       7.487   4.761  12.119  0.00  0.00    +0.000 A 
ATOM     34  C   UNL     1       6.425   3.900  11.841  0.00  0.00    +0.000 A 
ATOM     35  C   UNL     1       5.691   3.346  12.898  0.00  0.00    +0.000 A 
ATOM     36  C   UNL     1       5.959   3.750  14.197  0.00  0.00    +0.000 A 
ENDBRANCH  30  31
ENDBRANCH  29  30
ENDBRANCH   5  29
TORSDOF 13
ENDMDL
