MODEL 1
REMARK VINA RESULT:      -8.7      0.000      0.000
REMARK  Name = 
REMARK  10 active torsions:
REMARK  status: ('A' for Active; 'I' for Inactive)
REMARK    1  A    between atoms: C_1  and  C_2
REMARK    2  A    between atoms: C_2  and  C_3
REMARK    3  A    between atoms: C_4  and  C_5
REMARK    4  A    between atoms: C_7  and  O_8
REMARK    5  A    between atoms: C_12  and  C_13
REMARK    6  A    between atoms: C_15  and  C_16
REMARK    7  A    between atoms: C_17  and  C_18
REMARK    8  A    between atoms: C_21  and  C_22
REMARK    9  A    between atoms: C_26  and  O_27
REMARK   10  A    between atoms: O_27  and  C_28
REMARK                            x       y       z     vdW  Elec       q    Type
REMARK                         _______ _______ _______ _____ _____    ______ ____
ROOT
ATOM      1  C   UNL     1       3.456   3.556  19.165  0.00  0.00    +0.000 C 
ATOM      2  C   UNL     1       2.845   3.602  17.722  0.00  0.00    +0.000 C 
ATOM      3  C   UNL     1       1.496   4.357  17.670  0.00  0.00    +0.000 C 
ATOM      4  C   UNL     1       3.798   4.152  16.595  0.00  0.00    +0.000 C 
ATOM      5  C   UNL     1       5.282   4.571  16.933  0.00  0.00    +0.000 C 
ATOM      6  C   UNL     1       5.702   5.975  16.593  0.00  0.00    +0.000 C 
ATOM      7  O   UNL     1       5.542   6.489  15.496  0.00  0.00    +0.000 OA
ATOM      8  O   UNL     1       6.523   6.517  17.518  0.00  0.00    +0.000 OA
ATOM      9  C   UNL     1       6.609   5.751  18.661  0.00  0.00    +0.000 C 
ATOM     10  C   UNL     1       8.012   5.230  18.981  0.00  0.00    +0.000 C 
ATOM     11  C   UNL     1       5.629   4.580  18.441  0.00  0.00    +0.000 C 
ATOM     12  C   UNL     1       4.416   4.736  19.391  0.00  0.00    +0.000 C 
ENDROOT
BRANCH   1  14
ATOM     13  C   UNL     1       3.773   1.100  18.422  0.00  0.00    +0.000 C 
ATOM     14  C   UNL     1       4.127   2.182  19.461  0.00  0.00    +0.000 C 
ENDBRANCH   1  14
BRANCH   5  15
ATOM     15  O   UNL     1       6.165   3.715  16.246  0.00  0.00    +0.000 OA
ATOM     16  H   UNL     1       5.673   2.868  16.059  0.00  0.00    +0.000 HD
ENDBRANCH   5  15
BRANCH  12  17
ATOM     17  C   UNL     1       3.709   6.046  19.242  0.00  0.00    +0.000 C 
ATOM     18  C   UNL     1       2.708   6.403  20.055  0.00  0.00    +0.000 C 
BRANCH  18  19
ATOM     19  C   UNL     1       2.011   7.667  19.821  0.00  0.00    +0.000 A 
ATOM     20  C   UNL     1       2.040   8.289  18.574  0.00  0.00    +0.000 A 
ATOM     21  C   UNL     1       1.399   9.517  18.418  0.00  0.00    +0.000 A 
ATOM     22  C   UNL     1       0.747  10.125  19.514  0.00  0.00    +0.000 A 
ATOM     23  C   UNL     1       0.745   9.448  20.740  0.00  0.00    +0.000 A 
ATOM     24  N   UNL     1       1.362   8.259  20.855  0.00  0.00    +0.000 NA
BRANCH  22  25
ATOM     25  C   UNL     1       0.081  11.444  19.400  0.00  0.00    +0.000 A 
ATOM     26  C   UNL     1       0.702  12.509  18.718  0.00  0.00    +0.000 A 
ATOM     27  C   UNL     1       0.073  13.745  18.608  0.00  0.00    +0.000 A 
ATOM     28  C   UNL     1      -1.175  13.953  19.190  0.00  0.00    +0.000 A 
ATOM     29  C   UNL     1      -1.811  12.914  19.886  0.00  0.00    +0.000 A 
ATOM     30  C   UNL     1      -1.183  11.662  19.971  0.00  0.00    +0.000 A 
BRANCH  29  31
ATOM     31  O   UNL     1      -3.014  13.162  20.466  0.00  0.00    +0.000 OA
ATOM     32  C   UNL     1      -4.225  12.645  20.045  0.00  0.00    +0.000 C 
ENDBRANCH  29  31
ENDBRANCH  22  25
ENDBRANCH  18  19
ENDBRANCH  12  17
TORSDOF 6
ENDMDL
MODEL 2
REMARK VINA RESULT:      -8.6      0.941      1.702
REMARK  Name = 
REMARK  10 active torsions:
REMARK  status: ('A' for Active; 'I' for Inactive)
REMARK    1  A    between atoms: C_1  and  C_2
REMARK    2  A    between atoms: C_2  and  C_3
REMARK    3  A    between atoms: C_4  and  C_5
REMARK    4  A    between atoms: C_7  and  O_8
REMARK    5  A    between atoms: C_12  and  C_13
REMARK    6  A    between atoms: C_15  and  C_16
REMARK    7  A    between atoms: C_17  and  C_18
REMARK    8  A    between atoms: C_21  and  C_22
REMARK    9  A    between atoms: C_26  and  O_27
REMARK   10  A    between atoms: O_27  and  C_28
REMARK                            x       y       z     vdW  Elec       q    Type
REMARK                         _______ _______ _______ _____ _____    ______ ____
ROOT
ATOM      1  C   UNL     1       3.467   3.524  19.164  0.00  0.00    +0.000 C 
ATOM      2  C   UNL     1       2.848   3.588  17.725  0.00  0.00    +0.000 C 
ATOM      3  C   UNL     1       1.492   4.329  17.693  0.00  0.00    +0.000 C 
ATOM      4  C   UNL     1       3.789   4.165  16.602  0.00  0.00    +0.000 C 
ATOM      5  C   UNL     1       5.271   4.594  16.939  0.00  0.00    +0.000 C 
ATOM      6  C   UNL     1       5.675   6.007  16.619  0.00  0.00    +0.000 C 
ATOM      7  O   UNL     1       5.503   6.537  15.533  0.00  0.00    +0.000 OA
ATOM      8  O   UNL     1       6.496   6.542  17.549  0.00  0.00    +0.000 OA
ATOM      9  C   UNL     1       6.596   5.758  18.678  0.00  0.00    +0.000 C 
ATOM     10  C   UNL     1       8.006   5.246  18.982  0.00  0.00    +0.000 C 
ATOM     11  C   UNL     1       5.626   4.581  18.445  0.00  0.00    +0.000 C 
ATOM     12  C   UNL     1       4.418   4.709  19.404  0.00  0.00    +0.000 C 
ENDROOT
BRANCH   1  14
ATOM     13  C   UNL     1       3.780   1.075  18.396  0.00  0.00    +0.000 C 
ATOM     14  C   UNL     1       4.153   2.152  19.433  0.00  0.00    +0.000 C 
ENDBRANCH   1  14
BRANCH   5  15
ATOM     15  O   UNL     1       6.158   3.758  16.232  0.00  0.00    +0.000 OA
ATOM     16  H   UNL     1       6.334   4.189  15.350  0.00  0.00    +0.000 HD
ENDBRANCH   5  15
BRANCH  12  17
ATOM     17  C   UNL     1       3.696   6.014  19.280  0.00  0.00    +0.000 C 
ATOM     18  C   UNL     1       2.715   6.359  20.122  0.00  0.00    +0.000 C 
BRANCH  18  19
ATOM     19  C   UNL     1       2.002   7.619  19.914  0.00  0.00    +0.000 A 
ATOM     20  C   UNL     1       2.015   8.262  18.676  0.00  0.00    +0.000 A 
ATOM     21  C   UNL     1       1.360   9.484  18.545  0.00  0.00    +0.000 A 
ATOM     22  C   UNL     1       0.710  10.067  19.655  0.00  0.00    +0.000 A 
ATOM     23  C   UNL     1       0.723   9.371  20.870  0.00  0.00    +0.000 A 
ATOM     24  N   UNL     1       1.354   8.187  20.961  0.00  0.00    +0.000 NA
BRANCH  22  25
ATOM     25  C   UNL     1       0.027  11.381  19.566  0.00  0.00    +0.000 A 
ATOM     26  C   UNL     1      -1.342  11.505  19.877  0.00  0.00    +0.000 A 
ATOM     27  C   UNL     1      -1.979  12.738  19.797  0.00  0.00    +0.000 A 
ATOM     28  C   UNL     1      -1.275  13.868  19.387  0.00  0.00    +0.000 A 
ATOM     29  C   UNL     1       0.086  13.771  19.059  0.00  0.00    +0.000 A 
ATOM     30  C   UNL     1       0.729  12.529  19.166  0.00  0.00    +0.000 A 
BRANCH  29  31
ATOM     31  O   UNL     1       0.732  14.887  18.634  0.00  0.00    +0.000 OA
ATOM     32  C   UNL     1       1.914  15.375  19.161  0.00  0.00    +0.000 C 
ENDBRANCH  29  31
ENDBRANCH  22  25
ENDBRANCH  18  19
ENDBRANCH  12  17
TORSDOF 6
ENDMDL
MODEL 3
REMARK VINA RESULT:      -8.3      1.078      1.345
REMARK  Name = 
REMARK  10 active torsions:
REMARK  status: ('A' for Active; 'I' for Inactive)
REMARK    1  A    between atoms: C_1  and  C_2
REMARK    2  A    between atoms: C_2  and  C_3
REMARK    3  A    between atoms: C_4  and  C_5
REMARK    4  A    between atoms: C_7  and  O_8
REMARK    5  A    between atoms: C_12  and  C_13
REMARK    6  A    between atoms: C_15  and  C_16
REMARK    7  A    between atoms: C_17  and  C_18
REMARK    8  A    between atoms: C_21  and  C_22
REMARK    9  A    between atoms: C_26  and  O_27
REMARK   10  A    between atoms: O_27  and  C_28
REMARK                            x       y       z     vdW  Elec       q    Type
REMARK                         _______ _______ _______ _____ _____    ______ ____
ROOT
ATOM      1  C   UNL     1       3.617   3.293  19.055  0.00  0.00    +0.000 C 
ATOM      2  C   UNL     1       2.973   3.417  17.631  0.00  0.00    +0.000 C 
ATOM      3  C   UNL     1       1.590   4.107  17.661  0.00  0.00    +0.000 C 
ATOM      4  C   UNL     1       3.874   4.093  16.531  0.00  0.00    +0.000 C 
ATOM      5  C   UNL     1       5.344   4.558  16.872  0.00  0.00    +0.000 C 
ATOM      6  C   UNL     1       5.690   6.002  16.630  0.00  0.00    +0.000 C 
ATOM      7  O   UNL     1       5.482   6.586  15.579  0.00  0.00    +0.000 OA
ATOM      8  O   UNL     1       6.506   6.512  17.578  0.00  0.00    +0.000 OA
ATOM      9  C   UNL     1       6.652   5.669  18.658  0.00  0.00    +0.000 C 
ATOM     10  C   UNL     1       8.085   5.194  18.912  0.00  0.00    +0.000 C 
ATOM     11  C   UNL     1       5.723   4.472  18.370  0.00  0.00    +0.000 C 
ATOM     12  C   UNL     1       4.526   4.498  19.351  0.00  0.00    +0.000 C 
ENDROOT
BRANCH   1  14
ATOM     13  C   UNL     1       4.823   1.687  20.682  0.00  0.00    +0.000 C 
ATOM     14  C   UNL     1       4.357   1.935  19.235  0.00  0.00    +0.000 C 
ENDBRANCH   1  14
BRANCH   5  15
ATOM     15  O   UNL     1       6.250   3.798  16.106  0.00  0.00    +0.000 OA
ATOM     16  H   UNL     1       6.726   4.429  15.497  0.00  0.00    +0.000 HD
ENDBRANCH   5  15
BRANCH  12  17
ATOM     17  C   UNL     1       3.755   5.780  19.314  0.00  0.00    +0.000 C 
ATOM     18  C   UNL     1       2.786   6.045  20.197  0.00  0.00    +0.000 C 
BRANCH  18  19
ATOM     19  C   UNL     1       2.023   7.286  20.072  0.00  0.00    +0.000 A 
ATOM     20  C   UNL     1       2.056   8.042  18.901  0.00  0.00    +0.000 A 
ATOM     21  C   UNL     1       1.349   9.242  18.852  0.00  0.00    +0.000 A 
ATOM     22  C   UNL     1       0.625   9.689  19.979  0.00  0.00    +0.000 A 
ATOM     23  C   UNL     1       0.621   8.883  21.125  0.00  0.00    +0.000 A 
ATOM     24  N   UNL     1       1.304   7.725  21.136  0.00  0.00    +0.000 NA
BRANCH  22  25
ATOM     25  C   UNL     1      -0.115  10.973  19.980  0.00  0.00    +0.000 A 
ATOM     26  C   UNL     1      -0.977  11.309  18.917  0.00  0.00    +0.000 A 
ATOM     27  C   UNL     1      -1.673  12.513  18.921  0.00  0.00    +0.000 A 
ATOM     28  C   UNL     1      -1.512  13.415  19.970  0.00  0.00    +0.000 A 
ATOM     29  C   UNL     1      -0.650  13.112  21.035  0.00  0.00    +0.000 A 
ATOM     30  C   UNL     1       0.030  11.885  21.037  0.00  0.00    +0.000 A 
BRANCH  29  31
ATOM     31  O   UNL     1      -0.495  14.029  22.025  0.00  0.00    +0.000 OA
ATOM     32  C   UNL     1      -1.176  14.029  23.227  0.00  0.00    +0.000 C 
ENDBRANCH  29  31
ENDBRANCH  22  25
ENDBRANCH  18  19
ENDBRANCH  12  17
TORSDOF 6
ENDMDL
MODEL 4
REMARK VINA RESULT:      -8.2      0.989      1.288
REMARK  Name = 
REMARK  10 active torsions:
REMARK  status: ('A' for Active; 'I' for Inactive)
REMARK    1  A    between atoms: C_1  and  C_2
REMARK    2  A    between atoms: C_2  and  C_3
REMARK    3  A    between atoms: C_4  and  C_5
REMARK    4  A    between atoms: C_7  and  O_8
REMARK    5  A    between atoms: C_12  and  C_13
REMARK    6  A    between atoms: C_15  and  C_16
REMARK    7  A    between atoms: C_17  and  C_18
REMARK    8  A    between atoms: C_21  and  C_22
REMARK    9  A    between atoms: C_26  and  O_27
REMARK   10  A    between atoms: O_27  and  C_28
REMARK                            x       y       z     vdW  Elec       q    Type
REMARK                         _______ _______ _______ _____ _____    ______ ____
ROOT
ATOM      1  C   UNL     1       3.499   3.294  19.034  0.00  0.00    +0.000 C 
ATOM      2  C   UNL     1       2.840   3.416  17.618  0.00  0.00    +0.000 C 
ATOM      3  C   UNL     1       1.468   4.129  17.658  0.00  0.00    +0.000 C 
ATOM      4  C   UNL     1       3.738   4.068  16.500  0.00  0.00    +0.000 C 
ATOM      5  C   UNL     1       5.219   4.511  16.820  0.00  0.00    +0.000 C 
ATOM      6  C   UNL     1       5.587   5.947  16.560  0.00  0.00    +0.000 C 
ATOM      7  O   UNL     1       5.375   6.526  15.506  0.00  0.00    +0.000 OA
ATOM      8  O   UNL     1       6.422   6.452  17.494  0.00  0.00    +0.000 OA
ATOM      9  C   UNL     1       6.568   5.616  18.579  0.00  0.00    +0.000 C 
ATOM     10  C   UNL     1       7.995   5.119  18.820  0.00  0.00    +0.000 C 
ATOM     11  C   UNL     1       5.616   4.431  18.313  0.00  0.00    +0.000 C 
ATOM     12  C   UNL     1       4.432   4.487  19.308  0.00  0.00    +0.000 C 
ENDROOT
BRANCH   1  14
ATOM     13  C   UNL     1       4.753   1.709  20.646  0.00  0.00    +0.000 C 
ATOM     14  C   UNL     1       4.219   1.926  19.217  0.00  0.00    +0.000 C 
ENDBRANCH   1  14
BRANCH   5  15
ATOM     15  O   UNL     1       6.104   3.730  16.049  0.00  0.00    +0.000 OA
ATOM     16  H   UNL     1       6.851   3.449  16.647  0.00  0.00    +0.000 HD
ENDBRANCH   5  15
BRANCH  12  17
ATOM     17  C   UNL     1       3.681   5.781  19.269  0.00  0.00    +0.000 C 
ATOM     18  C   UNL     1       2.815   6.122  20.230  0.00  0.00    +0.000 C 
BRANCH  18  19
ATOM     19  C   UNL     1       2.062   7.370  20.105  0.00  0.00    +0.000 A 
ATOM     20  C   UNL     1       1.245   7.828  21.138  0.00  0.00    +0.000 A 
ATOM     21  C   UNL     1       0.512   8.998  20.948  0.00  0.00    +0.000 A 
ATOM     22  C   UNL     1       0.586   9.695  19.722  0.00  0.00    +0.000 A 
ATOM     23  C   UNL     1       1.431   9.191  18.725  0.00  0.00    +0.000 A 
ATOM     24  N   UNL     1       2.134   8.066  18.943  0.00  0.00    +0.000 NA
BRANCH  22  25
ATOM     25  C   UNL     1      -0.200  10.926  19.468  0.00  0.00    +0.000 A 
ATOM     26  C   UNL     1       0.394  12.198  19.585  0.00  0.00    +0.000 A 
ATOM     27  C   UNL     1      -0.344  13.351  19.343  0.00  0.00    +0.000 A 
ATOM     28  C   UNL     1      -1.691  13.265  18.999  0.00  0.00    +0.000 A 
ATOM     29  C   UNL     1      -2.312  12.012  18.887  0.00  0.00    +0.000 A 
ATOM     30  C   UNL     1      -1.555  10.851  19.109  0.00  0.00    +0.000 A 
BRANCH  29  31
ATOM     31  O   UNL     1      -3.634  11.967  18.580  0.00  0.00    +0.000 OA
ATOM     32  C   UNL     1      -4.185  11.264  17.525  0.00  0.00    +0.000 C 
ENDBRANCH  29  31
ENDBRANCH  22  25
ENDBRANCH  18  19
ENDBRANCH  12  17
TORSDOF 6
ENDMDL
MODEL 5
REMARK VINA RESULT:      -8.1      1.091      1.955
REMARK  Name = 
REMARK  10 active torsions:
REMARK  status: ('A' for Active; 'I' for Inactive)
REMARK    1  A    between atoms: C_1  and  C_2
REMARK    2  A    between atoms: C_2  and  C_3
REMARK    3  A    between atoms: C_4  and  C_5
REMARK    4  A    between atoms: C_7  and  O_8
REMARK    5  A    between atoms: C_12  and  C_13
REMARK    6  A    between atoms: C_15  and  C_16
REMARK    7  A    between atoms: C_17  and  C_18
REMARK    8  A    between atoms: C_21  and  C_22
REMARK    9  A    between atoms: C_26  and  O_27
REMARK   10  A    between atoms: O_27  and  C_28
REMARK                            x       y       z     vdW  Elec       q    Type
REMARK                         _______ _______ _______ _____ _____    ______ ____
ROOT
ATOM      1  C   UNL     1       3.456   3.298  19.018  0.00  0.00    +0.000 C 
ATOM      2  C   UNL     1       2.783   3.447  17.610  0.00  0.00    +0.000 C 
ATOM      3  C   UNL     1       1.441   4.213  17.671  0.00  0.00    +0.000 C 
ATOM      4  C   UNL     1       3.690   4.066  16.482  0.00  0.00    +0.000 C 
ATOM      5  C   UNL     1       5.192   4.451  16.782  0.00  0.00    +0.000 C 
ATOM      6  C   UNL     1       5.611   5.872  16.519  0.00  0.00    +0.000 C 
ATOM      7  O   UNL     1       5.407   6.461  15.469  0.00  0.00    +0.000 OA
ATOM      8  O   UNL     1       6.478   6.343  17.442  0.00  0.00    +0.000 OA
ATOM      9  C   UNL     1       6.606   5.500  18.524  0.00  0.00    +0.000 C 
ATOM     10  C   UNL     1       8.017   4.948  18.745  0.00  0.00    +0.000 C 
ATOM     11  C   UNL     1       5.606   4.354  18.269  0.00  0.00    +0.000 C 
ATOM     12  C   UNL     1       4.438   4.452  19.281  0.00  0.00    +0.000 C 
ENDROOT
BRANCH   1  14
ATOM     13  C   UNL     1       4.757   1.700  20.579  0.00  0.00    +0.000 C 
ATOM     14  C   UNL     1       4.125   1.902  19.188  0.00  0.00    +0.000 C 
ENDBRANCH   1  14
BRANCH   5  15
ATOM     15  O   UNL     1       6.035   3.638  15.998  0.00  0.00    +0.000 OA
ATOM     16  H   UNL     1       5.554   3.445  15.146  0.00  0.00    +0.000 HD
ENDBRANCH   5  15
BRANCH  12  17
ATOM     17  C   UNL     1       3.738   5.774  19.254  0.00  0.00    +0.000 C 
ATOM     18  C   UNL     1       2.792   6.089  20.147  0.00  0.00    +0.000 C 
BRANCH  18  19
ATOM     19  C   UNL     1       2.097   7.371  20.032  0.00  0.00    +0.000 A 
ATOM     20  C   UNL     1       1.315   7.866  21.074  0.00  0.00    +0.000 A 
ATOM     21  C   UNL     1       0.635   9.069  20.894  0.00  0.00    +0.000 A 
ATOM     22  C   UNL     1       0.726   9.762  19.667  0.00  0.00    +0.000 A 
ATOM     23  C   UNL     1       1.534   9.220  18.659  0.00  0.00    +0.000 A 
ATOM     24  N   UNL     1       2.187   8.063  18.869  0.00  0.00    +0.000 NA
BRANCH  22  25
ATOM     25  C   UNL     1      -0.006  11.028  19.423  0.00  0.00    +0.000 A 
ATOM     26  C   UNL     1      -1.415  11.062  19.440  0.00  0.00    +0.000 A 
ATOM     27  C   UNL     1      -2.099  12.252  19.215  0.00  0.00    +0.000 A 
ATOM     28  C   UNL     1      -1.399  13.426  18.948  0.00  0.00    +0.000 A 
ATOM     29  C   UNL     1       0.004  13.419  18.913  0.00  0.00    +0.000 A 
ATOM     30  C   UNL     1       0.689  12.221  19.166  0.00  0.00    +0.000 A 
BRANCH  29  31
ATOM     31  O   UNL     1       0.651  14.576  18.620  0.00  0.00    +0.000 OA
ATOM     32  C   UNL     1       1.992  14.822  18.854  0.00  0.00    +0.000 C 
ENDBRANCH  29  31
ENDBRANCH  22  25
ENDBRANCH  18  19
ENDBRANCH  12  17
TORSDOF 6
ENDMDL
MODEL 6
REMARK VINA RESULT:      -8.0      0.974      1.301
REMARK  Name = 
REMARK  10 active torsions:
REMARK  status: ('A' for Active; 'I' for Inactive)
REMARK    1  A    between atoms: C_1  and  C_2
REMARK    2  A    between atoms: C_2  and  C_3
REMARK    3  A    between atoms: C_4  and  C_5
REMARK    4  A    between atoms: C_7  and  O_8
REMARK    5  A    between atoms: C_12  and  C_13
REMARK    6  A    between atoms: C_15  and  C_16
REMARK    7  A    between atoms: C_17  and  C_18
REMARK    8  A    between atoms: C_21  and  C_22
REMARK    9  A    between atoms: C_26  and  O_27
REMARK   10  A    between atoms: O_27  and  C_28
REMARK                            x       y       z     vdW  Elec       q    Type
REMARK                         _______ _______ _______ _____ _____    ______ ____
ROOT
ATOM      1  C   UNL     1       3.480   3.258  19.044  0.00  0.00    +0.000 C 
ATOM      2  C   UNL     1       2.820   3.442  17.635  0.00  0.00    +0.000 C 
ATOM      3  C   UNL     1       1.446   4.148  17.708  0.00  0.00    +0.000 C 
ATOM      4  C   UNL     1       3.716   4.147  16.548  0.00  0.00    +0.000 C 
ATOM      5  C   UNL     1       5.196   4.581  16.887  0.00  0.00    +0.000 C 
ATOM      6  C   UNL     1       5.557   6.028  16.693  0.00  0.00    +0.000 C 
ATOM      7  O   UNL     1       5.343   6.654  15.667  0.00  0.00    +0.000 OA
ATOM      8  O   UNL     1       6.391   6.494  17.649  0.00  0.00    +0.000 OA
ATOM      9  C   UNL     1       6.540   5.609  18.695  0.00  0.00    +0.000 C 
ATOM     10  C   UNL     1       7.970   5.107  18.913  0.00  0.00    +0.000 C 
ATOM     11  C   UNL     1       5.593   4.435  18.375  0.00  0.00    +0.000 C 
ATOM     12  C   UNL     1       4.409   4.440  19.372  0.00  0.00    +0.000 C 
ENDROOT
BRANCH   1  14
ATOM     13  C   UNL     1       4.794   1.632  20.565  0.00  0.00    +0.000 C 
ATOM     14  C   UNL     1       4.206   1.885  19.164  0.00  0.00    +0.000 C 
ENDBRANCH   1  14
BRANCH   5  15
ATOM     15  O   UNL     1       6.082   3.839  16.081  0.00  0.00    +0.000 OA
ATOM     16  H   UNL     1       5.779   2.889  16.101  0.00  0.00    +0.000 HD
ENDBRANCH   5  15
BRANCH  12  17
ATOM     17  C   UNL     1       3.654   5.732  19.393  0.00  0.00    +0.000 C 
ATOM     18  C   UNL     1       2.751   6.005  20.341  0.00  0.00    +0.000 C 
BRANCH  18  19
ATOM     19  C   UNL     1       1.997   7.256  20.273  0.00  0.00    +0.000 A 
ATOM     20  C   UNL     1       1.150   7.648  21.309  0.00  0.00    +0.000 A 
ATOM     21  C   UNL     1       0.418   8.826  21.172  0.00  0.00    +0.000 A 
ATOM     22  C   UNL     1       0.523   9.598  19.993  0.00  0.00    +0.000 A 
ATOM     23  C   UNL     1       1.397   9.158  18.991  0.00  0.00    +0.000 A 
ATOM     24  N   UNL     1       2.098   8.023  19.159  0.00  0.00    +0.000 NA
BRANCH  22  25
ATOM     25  C   UNL     1      -0.261  10.840  19.794  0.00  0.00    +0.000 A 
ATOM     26  C   UNL     1      -0.312  11.466  18.532  0.00  0.00    +0.000 A 
ATOM     27  C   UNL     1      -1.052  12.629  18.347  0.00  0.00    +0.000 A 
ATOM     28  C   UNL     1      -1.737  13.205  19.414  0.00  0.00    +0.000 A 
ATOM     29  C   UNL     1      -1.693  12.610  20.684  0.00  0.00    +0.000 A 
ATOM     30  C   UNL     1      -0.965  11.423  20.859  0.00  0.00    +0.000 A 
BRANCH  29  31
ATOM     31  O   UNL     1      -2.348  13.216  21.708  0.00  0.00    +0.000 OA
ATOM     32  C   UNL     1      -2.815  12.581  22.844  0.00  0.00    +0.000 C 
ENDBRANCH  29  31
ENDBRANCH  22  25
ENDBRANCH  18  19
ENDBRANCH  12  17
TORSDOF 6
ENDMDL
MODEL 7
REMARK VINA RESULT:      -7.5      2.586      9.843
REMARK  Name = 
REMARK  10 active torsions:
REMARK  status: ('A' for Active; 'I' for Inactive)
REMARK    1  A    between atoms: C_1  and  C_2
REMARK    2  A    between atoms: C_2  and  C_3
REMARK    3  A    between atoms: C_4  and  C_5
REMARK    4  A    between atoms: C_7  and  O_8
REMARK    5  A    between atoms: C_12  and  C_13
REMARK    6  A    between atoms: C_15  and  C_16
REMARK    7  A    between atoms: C_17  and  C_18
REMARK    8  A    between atoms: C_21  and  C_22
REMARK    9  A    between atoms: C_26  and  O_27
REMARK   10  A    between atoms: O_27  and  C_28
REMARK                            x       y       z     vdW  Elec       q    Type
REMARK                         _______ _______ _______ _____ _____    ______ ____
ROOT
ATOM      1  C   UNL     1      -2.604  12.731  21.319  0.00  0.00    +0.000 C 
ATOM      2  C   UNL     1      -1.913  12.597  22.719  0.00  0.00    +0.000 C 
ATOM      3  C   UNL     1      -1.625  11.128  23.104  0.00  0.00    +0.000 C 
ATOM      4  C   UNL     1      -0.611  13.458  22.923  0.00  0.00    +0.000 C 
ATOM      5  C   UNL     1      -0.097  14.418  21.779  0.00  0.00    +0.000 C 
ATOM      6  C   UNL     1       1.308  14.216  21.281  0.00  0.00    +0.000 C 
ATOM      7  O   UNL     1       2.287  14.149  22.008  0.00  0.00    +0.000 OA
ATOM      8  O   UNL     1       1.425  14.398  19.948  0.00  0.00    +0.000 OA
ATOM      9  C   UNL     1       0.202  14.507  19.322  0.00  0.00    +0.000 C 
ATOM     10  C   UNL     1      -0.038  15.840  18.608  0.00  0.00    +0.000 C 
ATOM     11  C   UNL     1      -0.846  14.286  20.432  0.00  0.00    +0.000 C 
ATOM     12  C   UNL     1      -1.557  12.929  20.209  0.00  0.00    +0.000 C 
ENDROOT
BRANCH   1  14
ATOM     13  C   UNL     1      -4.084  14.309  22.733  0.00  0.00    +0.000 C 
ATOM     14  C   UNL     1      -3.688  13.849  21.317  0.00  0.00    +0.000 C 
ENDBRANCH   1  14
BRANCH   5  15
ATOM     15  O   UNL     1      -0.168  15.749  22.236  0.00  0.00    +0.000 OA
ATOM     16  H   UNL     1      -0.097  16.342  21.438  0.00  0.00    +0.000 HD
ENDBRANCH   5  15
BRANCH  12  17
ATOM     17  C   UNL     1      -0.616  11.769  20.139  0.00  0.00    +0.000 C 
ATOM     18  C   UNL     1      -0.305  11.183  18.977  0.00  0.00    +0.000 C 
BRANCH  18  19
ATOM     19  C   UNL     1       0.571  10.011  18.978  0.00  0.00    +0.000 A 
ATOM     20  C   UNL     1       1.200   9.577  17.812  0.00  0.00    +0.000 A 
ATOM     21  C   UNL     1       1.985   8.427  17.858  0.00  0.00    +0.000 A 
ATOM     22  C   UNL     1       2.124   7.706  19.065  0.00  0.00    +0.000 A 
ATOM     23  C   UNL     1       1.475   8.196  20.205  0.00  0.00    +0.000 A 
ATOM     24  N   UNL     1       0.734   9.315  20.131  0.00  0.00    +0.000 NA
BRANCH  22  25
ATOM     25  C   UNL     1       2.925   6.462  19.149  0.00  0.00    +0.000 A 
ATOM     26  C   UNL     1       4.065   6.281  18.341  0.00  0.00    +0.000 A 
ATOM     27  C   UNL     1       4.817   5.114  18.425  0.00  0.00    +0.000 A 
ATOM     28  C   UNL     1       4.440   4.095  19.298  0.00  0.00    +0.000 A 
ATOM     29  C   UNL     1       3.302   4.243  20.105  0.00  0.00    +0.000 A 
ATOM     30  C   UNL     1       2.562   5.434  20.034  0.00  0.00    +0.000 A 
BRANCH  29  31
ATOM     31  O   UNL     1       2.948   3.218  20.922  0.00  0.00    +0.000 OA
ATOM     32  C   UNL     1       1.673   2.985  21.404  0.00  0.00    +0.000 C 
ENDBRANCH  29  31
ENDBRANCH  22  25
ENDBRANCH  18  19
ENDBRANCH  12  17
TORSDOF 6
ENDMDL
MODEL 8
REMARK VINA RESULT:      -7.3      2.328     10.117
REMARK  Name = 
REMARK  10 active torsions:
REMARK  status: ('A' for Active; 'I' for Inactive)
REMARK    1  A    between atoms: C_1  and  C_2
REMARK    2  A    between atoms: C_2  and  C_3
REMARK    3  A    between atoms: C_4  and  C_5
REMARK    4  A    between atoms: C_7  and  O_8
REMARK    5  A    between atoms: C_12  and  C_13
REMARK    6  A    between atoms: C_15  and  C_16
REMARK    7  A    between atoms: C_17  and  C_18
REMARK    8  A    between atoms: C_21  and  C_22
REMARK    9  A    between atoms: C_26  and  O_27
REMARK   10  A    between atoms: O_27  and  C_28
REMARK                            x       y       z     vdW  Elec       q    Type
REMARK                         _______ _______ _______ _____ _____    ______ ____
ROOT
ATOM      1  C   UNL     1      -2.747  12.791  21.428  0.00  0.00    +0.000 C 
ATOM      2  C   UNL     1      -1.998  12.579  22.788  0.00  0.00    +0.000 C 
ATOM      3  C   UNL     1      -1.595  11.104  23.022  0.00  0.00    +0.000 C 
ATOM      4  C   UNL     1      -0.751  13.509  23.033  0.00  0.00    +0.000 C 
ATOM      5  C   UNL     1      -0.348  14.605  21.971  0.00  0.00    +0.000 C 
ATOM      6  C   UNL     1       1.049  14.553  21.414  0.00  0.00    +0.000 C 
ATOM      7  O   UNL     1       2.056  14.489  22.102  0.00  0.00    +0.000 OA
ATOM      8  O   UNL     1       1.103  14.866  20.101  0.00  0.00    +0.000 OA
ATOM      9  C   UNL     1      -0.146  14.943  19.526  0.00  0.00    +0.000 C 
ATOM     10  C   UNL     1      -0.504  16.316  18.949  0.00  0.00    +0.000 C 
ATOM     11  C   UNL     1      -1.135  14.545  20.640  0.00  0.00    +0.000 C 
ATOM     12  C   UNL     1      -1.758  13.167  20.311  0.00  0.00    +0.000 C 
ENDROOT
BRANCH   1  14
ATOM     13  C   UNL     1      -5.124  13.268  22.326  0.00  0.00    +0.000 C 
ATOM     14  C   UNL     1      -3.905  13.824  21.565  0.00  0.00    +0.000 C 
ENDBRANCH   1  14
BRANCH   5  15
ATOM     15  O   UNL     1      -0.494  15.880  22.555  0.00  0.00    +0.000 OA
ATOM     16  H   UNL     1      -1.394  15.908  22.984  0.00  0.00    +0.000 HD
ENDBRANCH   5  15
BRANCH  12  17
ATOM     17  C   UNL     1      -0.742  12.089  20.103  0.00  0.00    +0.000 C 
ATOM     18  C   UNL     1      -0.928  11.108  19.212  0.00  0.00    +0.000 C 
BRANCH  18  19
ATOM     19  C   UNL     1       0.071  10.045  19.098  0.00  0.00    +0.000 A 
ATOM     20  C   UNL     1       0.526   9.356  20.222  0.00  0.00    +0.000 A 
ATOM     21  C   UNL     1       1.514   8.386  20.063  0.00  0.00    +0.000 A 
ATOM     22  C   UNL     1       2.054   8.122  18.785  0.00  0.00    +0.000 A 
ATOM     23  C   UNL     1       1.551   8.840  17.693  0.00  0.00    +0.000 A 
ATOM     24  N   UNL     1       0.589   9.761  17.878  0.00  0.00    +0.000 NA
BRANCH  22  25
ATOM     25  C   UNL     1       3.128   7.121  18.577  0.00  0.00    +0.000 A 
ATOM     26  C   UNL     1       3.315   6.064  19.490  0.00  0.00    +0.000 A 
ATOM     27  C   UNL     1       4.320   5.124  19.291  0.00  0.00    +0.000 A 
ATOM     28  C   UNL     1       5.172   5.226  18.194  0.00  0.00    +0.000 A 
ATOM     29  C   UNL     1       5.016   6.275  17.275  0.00  0.00    +0.000 A 
ATOM     30  C   UNL     1       3.984   7.206  17.468  0.00  0.00    +0.000 A 
BRANCH  29  31
ATOM     31  O   UNL     1       5.884   6.360  16.234  0.00  0.00    +0.000 OA
ATOM     32  C   UNL     1       6.729   5.350  15.814  0.00  0.00    +0.000 C 
ENDBRANCH  29  31
ENDBRANCH  22  25
ENDBRANCH  18  19
ENDBRANCH  12  17
TORSDOF 6
ENDMDL
MODEL 9
REMARK VINA RESULT:      -7.3      1.171      1.371
REMARK  Name = 
REMARK  10 active torsions:
REMARK  status: ('A' for Active; 'I' for Inactive)
REMARK    1  A    between atoms: C_1  and  C_2
REMARK    2  A    between atoms: C_2  and  C_3
REMARK    3  A    between atoms: C_4  and  C_5
REMARK    4  A    between atoms: C_7  and  O_8
REMARK    5  A    between atoms: C_12  and  C_13
REMARK    6  A    between atoms: C_15  and  C_16
REMARK    7  A    between atoms: C_17  and  C_18
REMARK    8  A    between atoms: C_21  and  C_22
REMARK    9  A    between atoms: C_26  and  O_27
REMARK   10  A    between atoms: O_27  and  C_28
REMARK                            x       y       z     vdW  Elec       q    Type
REMARK                         _______ _______ _______ _____ _____    ______ ____
ROOT
ATOM      1  C   UNL     1       3.381   3.056  19.300  0.00  0.00    +0.000 C 
ATOM      2  C   UNL     1       2.842   2.973  17.831  0.00  0.00    +0.000 C 
ATOM      3  C   UNL     1       1.374   3.443  17.707  0.00  0.00    +0.000 C 
ATOM      4  C   UNL     1       3.718   3.696  16.740  0.00  0.00    +0.000 C 
ATOM      5  C   UNL     1       5.072   4.404  17.140  0.00  0.00    +0.000 C 
ATOM      6  C   UNL     1       5.220   5.862  16.799  0.00  0.00    +0.000 C 
ATOM      7  O   UNL     1       5.012   6.328  15.689  0.00  0.00    +0.000 OA
ATOM      8  O   UNL     1       5.872   6.561  17.753  0.00  0.00    +0.000 OA
ATOM      9  C   UNL     1       6.054   5.833  18.908  0.00  0.00    +0.000 C 
ATOM     10  C   UNL     1       7.517   5.603  19.299  0.00  0.00    +0.000 C 
ATOM     11  C   UNL     1       5.339   4.489  18.661  0.00  0.00    +0.000 C 
ATOM     12  C   UNL     1       4.076   4.405  19.553  0.00  0.00    +0.000 C 
ENDROOT
BRANCH   1  14
ATOM     13  C   UNL     1       4.040   0.617  18.750  0.00  0.00    +0.000 C 
ATOM     14  C   UNL     1       4.297   1.845  19.645  0.00  0.00    +0.000 C 
ENDBRANCH   1  14
BRANCH   5  15
ATOM     15  O   UNL     1       6.139   3.738  16.505  0.00  0.00    +0.000 OA
ATOM     16  H   UNL     1       5.819   3.456  15.603  0.00  0.00    +0.000 HD
ENDBRANCH   5  15
BRANCH  12  17
ATOM     17  C   UNL     1       3.130   5.547  19.354  0.00  0.00    +0.000 C 
ATOM     18  C   UNL     1       3.015   6.531  20.252  0.00  0.00    +0.000 C 
BRANCH  18  19
ATOM     19  C   UNL     1       2.027   7.588  20.035  0.00  0.00    +0.000 A 
ATOM     20  C   UNL     1       1.977   8.296  18.835  0.00  0.00    +0.000 A 
ATOM     21  C   UNL     1       1.047   9.325  18.698  0.00  0.00    +0.000 A 
ATOM     22  C   UNL     1       0.185   9.653  19.768  0.00  0.00    +0.000 A 
ATOM     23  C   UNL     1       0.276   8.901  20.946  0.00  0.00    +0.000 A 
ATOM     24  N   UNL     1       1.175   7.906  21.042  0.00  0.00    +0.000 NA
BRANCH  22  25
ATOM     25  C   UNL     1      -0.797  10.760  19.675  0.00  0.00    +0.000 A 
ATOM     26  C   UNL     1      -0.788  11.812  20.613  0.00  0.00    +0.000 A 
ATOM     27  C   UNL     1      -1.707  12.852  20.522  0.00  0.00    +0.000 A 
ATOM     28  C   UNL     1      -2.665  12.858  19.511  0.00  0.00    +0.000 A 
ATOM     29  C   UNL     1      -2.705  11.817  18.571  0.00  0.00    +0.000 A 
ATOM     30  C   UNL     1      -1.759  10.783  18.653  0.00  0.00    +0.000 A 
BRANCH  29  31
ATOM     31  O   UNL     1      -3.672  11.839  17.618  0.00  0.00    +0.000 OA
ATOM     32  C   UNL     1      -3.748  10.980  16.538  0.00  0.00    +0.000 C 
ENDBRANCH  29  31
ENDBRANCH  22  25
ENDBRANCH  18  19
ENDBRANCH  12  17
TORSDOF 6
ENDMDL
