MODEL 1
REMARK VINA RESULT:      -6.3      0.000      0.000
REMARK  Name = 
REMARK  15 active torsions:
REMARK  status: ('A' for Active; 'I' for Inactive)
REMARK    1  A    between atoms: C_1  and  C_2
REMARK    2  A    between atoms: C_2  and  C_3
REMARK    3  A    between atoms: C_3  and  C_4
REMARK    4  A    between atoms: C_4  and  C_5
REMARK    5  A    between atoms: C_5  and  C_6
REMARK    6  A    between atoms: C_6  and  C_7
REMARK    7  A    between atoms: C_7  and  C_8
REMARK    8  A    between atoms: C_8  and  C_9
REMARK    9  A    between atoms: C_9  and  N_10
REMARK   10  A    between atoms: C_11  and  C_12
REMARK   11  A    between atoms: C_14  and  O_15
REMARK   12  A    between atoms: C_16  and  O_17
REMARK   13  A    between atoms: C_18  and  O_19
REMARK   14  A    between atoms: C_20  and  C_21
REMARK   15  A    between atoms: C_21  and  O_22
REMARK                            x       y       z     vdW  Elec       q    Type
REMARK                         _______ _______ _______ _____ _____    ______ ____
ROOT
ATOM      1  N   UNL     1       4.114   4.041  18.767  0.00  0.00    +0.000 NA
ATOM      2  C   UNL     1       2.966   4.832  18.185  0.00  0.00    +0.000 C 
ATOM      3  C   UNL     1       1.865   3.843  17.703  0.00  0.00    +0.000 C 
ATOM      4  C   UNL     1       1.324   3.051  18.900  0.00  0.00    +0.000 C 
ATOM      5  C   UNL     1       2.475   2.219  19.475  0.00  0.00    +0.000 C 
ATOM      6  C   UNL     1       3.690   3.120  19.877  0.00  0.00    +0.000 C 
ENDROOT
BRANCH   2   7
ATOM      7  C   UNL     1       2.450   5.959  19.127  0.00  0.00    +0.000 C 
ATOM      8 CL   UNL     1       2.392   7.584  18.400  0.00  0.00    +0.000 Cl
ENDBRANCH   2   7
BRANCH   3   9
ATOM      9  O   UNL     1       0.837   4.484  16.953  0.00  0.00    +0.000 OA
ATOM     10  H   UNL     1       0.234   4.934  17.571  0.00  0.00    +0.000 HD
ENDBRANCH   3   9
BRANCH   4  11
ATOM     11  O   UNL     1       0.260   2.183  18.500  0.00  0.00    +0.000 OA
ATOM     12  H   UNL     1       0.232   1.485  19.188  0.00  0.00    +0.000 HD
ENDBRANCH   4  11
BRANCH   5  13
ATOM     13  O   UNL     1       2.803   1.228  18.483  0.00  0.00    +0.000 OA
ATOM     14  H   UNL     1       3.776   1.227  18.362  0.00  0.00    +0.000 HD
ENDBRANCH   5  13
BRANCH   1  15
ATOM     15  C   UNL     1       5.270   4.890  19.130  0.00  0.00    +0.000 C 
BRANCH  15  16
ATOM     16  C   UNL     1       6.461   4.732  18.172  0.00  0.00    +0.000 C 
BRANCH  16  17
ATOM     17  C   UNL     1       6.853   6.038  17.461  0.00  0.00    +0.000 C 
BRANCH  17  18
ATOM     18  C   UNL     1       5.757   6.685  16.604  0.00  0.00    +0.000 C 
BRANCH  18  19
ATOM     19  C   UNL     1       5.369   5.820  15.407  0.00  0.00    +0.000 C 
BRANCH  19  20
ATOM     20  C   UNL     1       6.568   5.113  14.774  0.00  0.00    +0.000 C 
BRANCH  20  21
ATOM     21  C   UNL     1       6.097   3.816  14.113  0.00  0.00    +0.000 C 
BRANCH  21  23
ATOM     22  C   UNL     1       5.332   3.005  11.870  0.00  0.00    +0.000 C 
ATOM     23  C   UNL     1       6.403   3.782  12.620  0.00  0.00    +0.000 C 
ENDBRANCH  21  23
ENDBRANCH  20  21
ENDBRANCH  19  20
ENDBRANCH  18  19
ENDBRANCH  17  18
ENDBRANCH  16  17
ENDBRANCH  15  16
ENDBRANCH   1  15
BRANCH   6  24
ATOM     24  C   UNL     1       4.836   2.176  20.339  0.00  0.00    +0.000 C 
BRANCH  24  25
ATOM     25  O   UNL     1       4.506   1.570  21.592  0.00  0.00    +0.000 OA
ATOM     26  H   UNL     1       4.752   2.223  22.278  0.00  0.00    +0.000 HD
ENDBRANCH  24  25
ENDBRANCH   6  24
TORSDOF 14
ENDMDL
MODEL 2
REMARK VINA RESULT:      -6.2      0.910      1.272
REMARK  Name = 
REMARK  15 active torsions:
REMARK  status: ('A' for Active; 'I' for Inactive)
REMARK    1  A    between atoms: C_1  and  C_2
REMARK    2  A    between atoms: C_2  and  C_3
REMARK    3  A    between atoms: C_3  and  C_4
REMARK    4  A    between atoms: C_4  and  C_5
REMARK    5  A    between atoms: C_5  and  C_6
REMARK    6  A    between atoms: C_6  and  C_7
REMARK    7  A    between atoms: C_7  and  C_8
REMARK    8  A    between atoms: C_8  and  C_9
REMARK    9  A    between atoms: C_9  and  N_10
REMARK   10  A    between atoms: C_11  and  C_12
REMARK   11  A    between atoms: C_14  and  O_15
REMARK   12  A    between atoms: C_16  and  O_17
REMARK   13  A    between atoms: C_18  and  O_19
REMARK   14  A    between atoms: C_20  and  C_21
REMARK   15  A    between atoms: C_21  and  O_22
REMARK                            x       y       z     vdW  Elec       q    Type
REMARK                         _______ _______ _______ _____ _____    ______ ____
ROOT
ATOM      1  N   UNL     1       4.066   3.859  18.823  0.00  0.00    +0.000 NA
ATOM      2  C   UNL     1       3.014   4.731  18.177  0.00  0.00    +0.000 C 
ATOM      3  C   UNL     1       1.739   3.877  17.918  0.00  0.00    +0.000 C 
ATOM      4  C   UNL     1       1.173   3.380  19.255  0.00  0.00    +0.000 C 
ATOM      5  C   UNL     1       2.219   2.467  19.902  0.00  0.00    +0.000 C 
ATOM      6  C   UNL     1       3.587   3.204  20.090  0.00  0.00    +0.000 C 
ENDROOT
BRANCH   2   7
ATOM      7  C   UNL     1       2.753   6.060  18.945  0.00  0.00    +0.000 C 
ATOM      8 CL   UNL     1       2.745   7.528  17.934  0.00  0.00    +0.000 Cl
ENDBRANCH   2   7
BRANCH   3   9
ATOM      9  O   UNL     1       0.770   4.556  17.125  0.00  0.00    +0.000 OA
ATOM     10  H   UNL     1      -0.106   4.173  17.307  0.00  0.00    +0.000 HD
ENDBRANCH   3   9
BRANCH   4  11
ATOM     11  O   UNL     1      -0.040   2.649  19.057  0.00  0.00    +0.000 OA
ATOM     12  H   UNL     1       0.047   1.855  19.624  0.00  0.00    +0.000 HD
ENDBRANCH   4  11
BRANCH   5  13
ATOM     13  O   UNL     1       2.314   1.294  19.071  0.00  0.00    +0.000 OA
ATOM     14  H   UNL     1       2.813   0.610  19.564  0.00  0.00    +0.000 HD
ENDBRANCH   5  13
BRANCH   1  15
ATOM     15  C   UNL     1       5.364   4.550  18.985  0.00  0.00    +0.000 C 
BRANCH  15  16
ATOM     16  C   UNL     1       5.821   5.283  17.714  0.00  0.00    +0.000 C 
BRANCH  16  17
ATOM     17  C   UNL     1       6.088   4.344  16.527  0.00  0.00    +0.000 C 
BRANCH  17  18
ATOM     18  C   UNL     1       7.274   4.723  15.631  0.00  0.00    +0.000 C 
BRANCH  18  19
ATOM     19  C   UNL     1       6.858   4.944  14.178  0.00  0.00    +0.000 C 
BRANCH  19  20
ATOM     20  C   UNL     1       5.918   3.856  13.660  0.00  0.00    +0.000 C 
BRANCH  20  21
ATOM     21  C   UNL     1       6.539   3.199  12.425  0.00  0.00    +0.000 C 
BRANCH  21  23
ATOM     22  C   UNL     1       4.216   3.380  11.505  0.00  0.00    +0.000 C 
ATOM     23  C   UNL     1       5.493   2.553  11.524  0.00  0.00    +0.000 C 
ENDBRANCH  21  23
ENDBRANCH  20  21
ENDBRANCH  19  20
ENDBRANCH  18  19
ENDBRANCH  17  18
ENDBRANCH  16  17
ENDBRANCH  15  16
ENDBRANCH   1  15
BRANCH   6  24
ATOM     24  C   UNL     1       4.603   2.166  20.644  0.00  0.00    +0.000 C 
BRANCH  24  25
ATOM     25  O   UNL     1       4.984   1.246  19.617  0.00  0.00    +0.000 OA
ATOM     26  H   UNL     1       5.819   1.592  19.244  0.00  0.00    +0.000 HD
ENDBRANCH  24  25
ENDBRANCH   6  24
TORSDOF 14
ENDMDL
MODEL 3
REMARK VINA RESULT:      -6.1      2.175      3.396
REMARK  Name = 
REMARK  15 active torsions:
REMARK  status: ('A' for Active; 'I' for Inactive)
REMARK    1  A    between atoms: C_1  and  C_2
REMARK    2  A    between atoms: C_2  and  C_3
REMARK    3  A    between atoms: C_3  and  C_4
REMARK    4  A    between atoms: C_4  and  C_5
REMARK    5  A    between atoms: C_5  and  C_6
REMARK    6  A    between atoms: C_6  and  C_7
REMARK    7  A    between atoms: C_7  and  C_8
REMARK    8  A    between atoms: C_8  and  C_9
REMARK    9  A    between atoms: C_9  and  N_10
REMARK   10  A    between atoms: C_11  and  C_12
REMARK   11  A    between atoms: C_14  and  O_15
REMARK   12  A    between atoms: C_16  and  O_17
REMARK   13  A    between atoms: C_18  and  O_19
REMARK   14  A    between atoms: C_20  and  C_21
REMARK   15  A    between atoms: C_21  and  O_22
REMARK                            x       y       z     vdW  Elec       q    Type
REMARK                         _______ _______ _______ _____ _____    ______ ____
ROOT
ATOM      1  N   UNL     1       3.886   4.216  17.414  0.00  0.00    +0.000 NA
ATOM      2  C   UNL     1       4.058   5.714  17.503  0.00  0.00    +0.000 C 
ATOM      3  C   UNL     1       2.878   6.310  18.323  0.00  0.00    +0.000 C 
ATOM      4  C   UNL     1       2.912   5.753  19.752  0.00  0.00    +0.000 C 
ATOM      5  C   UNL     1       2.703   4.238  19.675  0.00  0.00    +0.000 C 
ATOM      6  C   UNL     1       3.776   3.557  18.761  0.00  0.00    +0.000 C 
ENDROOT
BRANCH   2   7
ATOM      7  C   UNL     1       5.469   6.147  17.998  0.00  0.00    +0.000 C 
ATOM      8 CL   UNL     1       6.121   5.192  19.354  0.00  0.00    +0.000 Cl
ENDBRANCH   2   7
BRANCH   3   9
ATOM      9  O   UNL     1       2.842   7.734  18.285  0.00  0.00    +0.000 OA
ATOM     10  H   UNL     1       2.380   8.013  17.475  0.00  0.00    +0.000 HD
ENDBRANCH   3   9
BRANCH   4  11
ATOM     11  O   UNL     1       1.880   6.337  20.553  0.00  0.00    +0.000 OA
ATOM     12  H   UNL     1       2.050   6.010  21.461  0.00  0.00    +0.000 HD
ENDBRANCH   4  11
BRANCH   5  13
ATOM     13  O   UNL     1       1.352   4.031  19.219  0.00  0.00    +0.000 OA
ATOM     14  H   UNL     1       1.388   3.541  18.370  0.00  0.00    +0.000 HD
ENDBRANCH   5  13
BRANCH   1  15
ATOM     15  C   UNL     1       4.889   3.573  16.537  0.00  0.00    +0.000 C 
BRANCH  15  16
ATOM     16  C   UNL     1       5.193   4.387  15.269  0.00  0.00    +0.000 C 
BRANCH  16  17
ATOM     17  C   UNL     1       6.416   3.874  14.491  0.00  0.00    +0.000 C 
BRANCH  17  18
ATOM     18  C   UNL     1       6.691   4.565  13.150  0.00  0.00    +0.000 C 
BRANCH  18  19
ATOM     19  C   UNL     1       6.753   3.576  11.987  0.00  0.00    +0.000 C 
BRANCH  19  20
ATOM     20  C   UNL     1       5.500   2.707  11.883  0.00  0.00    +0.000 C 
BRANCH  20  21
ATOM     21  C   UNL     1       4.285   3.601  11.623  0.00  0.00    +0.000 C 
BRANCH  21  23
ATOM     22  C   UNL     1       2.914   4.222   9.622  0.00  0.00    +0.000 C 
ATOM     23  C   UNL     1       3.411   3.077  10.491  0.00  0.00    +0.000 C 
ENDBRANCH  21  23
ENDBRANCH  20  21
ENDBRANCH  19  20
ENDBRANCH  18  19
ENDBRANCH  17  18
ENDBRANCH  16  17
ENDBRANCH  15  16
ENDBRANCH   1  15
BRANCH   6  24
ATOM     24  C   UNL     1       3.410   2.049  18.659  0.00  0.00    +0.000 C 
BRANCH  24  25
ATOM     25  O   UNL     1       2.274   1.869  17.808  0.00  0.00    +0.000 OA
ATOM     26  H   UNL     1       1.746   2.689  17.890  0.00  0.00    +0.000 HD
ENDBRANCH  24  25
ENDBRANCH   6  24
TORSDOF 14
ENDMDL
MODEL 4
REMARK VINA RESULT:      -6.0      2.367      3.455
REMARK  Name = 
REMARK  15 active torsions:
REMARK  status: ('A' for Active; 'I' for Inactive)
REMARK    1  A    between atoms: C_1  and  C_2
REMARK    2  A    between atoms: C_2  and  C_3
REMARK    3  A    between atoms: C_3  and  C_4
REMARK    4  A    between atoms: C_4  and  C_5
REMARK    5  A    between atoms: C_5  and  C_6
REMARK    6  A    between atoms: C_6  and  C_7
REMARK    7  A    between atoms: C_7  and  C_8
REMARK    8  A    between atoms: C_8  and  C_9
REMARK    9  A    between atoms: C_9  and  N_10
REMARK   10  A    between atoms: C_11  and  C_12
REMARK   11  A    between atoms: C_14  and  O_15
REMARK   12  A    between atoms: C_16  and  O_17
REMARK   13  A    between atoms: C_18  and  O_19
REMARK   14  A    between atoms: C_20  and  C_21
REMARK   15  A    between atoms: C_21  and  O_22
REMARK                            x       y       z     vdW  Elec       q    Type
REMARK                         _______ _______ _______ _____ _____    ______ ____
ROOT
ATOM      1  N   UNL     1       4.227   4.181  17.660  0.00  0.00    +0.000 NA
ATOM      2  C   UNL     1       4.424   5.463  18.436  0.00  0.00    +0.000 C 
ATOM      3  C   UNL     1       3.137   5.756  19.260  0.00  0.00    +0.000 C 
ATOM      4  C   UNL     1       2.908   4.629  20.275  0.00  0.00    +0.000 C 
ATOM      5  C   UNL     1       2.674   3.331  19.496  0.00  0.00    +0.000 C 
ATOM      6  C   UNL     1       3.868   3.014  18.537  0.00  0.00    +0.000 C 
ENDROOT
BRANCH   2   7
ATOM      7  C   UNL     1       5.740   5.489  19.267  0.00  0.00    +0.000 C 
ATOM      8 CL   UNL     1       7.121   6.285  18.472  0.00  0.00    +0.000 Cl
ENDBRANCH   2   7
BRANCH   3   9
ATOM      9  O   UNL     1       3.148   7.049  19.860  0.00  0.00    +0.000 OA
ATOM     10  H   UNL     1       3.676   7.647  19.303  0.00  0.00    +0.000 HD
ENDBRANCH   3   9
BRANCH   4  11
ATOM     11  O   UNL     1       1.771   4.905  21.097  0.00  0.00    +0.000 OA
ATOM     12  H   UNL     1       2.143   5.142  21.972  0.00  0.00    +0.000 HD
ENDBRANCH   4  11
BRANCH   5  13
ATOM     13  O   UNL     1       1.417   3.484  18.810  0.00  0.00    +0.000 OA
ATOM     14  H   UNL     1       0.876   2.685  18.982  0.00  0.00    +0.000 HD
ENDBRANCH   5  13
BRANCH   1  15
ATOM     15  C   UNL     1       5.348   3.890  16.740  0.00  0.00    +0.000 C 
BRANCH  15  16
ATOM     16  C   UNL     1       5.519   4.949  15.639  0.00  0.00    +0.000 C 
BRANCH  16  17
ATOM     17  C   UNL     1       5.172   4.433  14.233  0.00  0.00    +0.000 C 
BRANCH  17  18
ATOM     18  C   UNL     1       6.324   3.777  13.460  0.00  0.00    +0.000 C 
BRANCH  18  19
ATOM     19  C   UNL     1       5.874   3.214  12.114  0.00  0.00    +0.000 C 
BRANCH  19  20
ATOM     20  C   UNL     1       4.400   3.494  11.818  0.00  0.00    +0.000 C 
BRANCH  20  21
ATOM     21  C   UNL     1       4.213   3.663  10.308  0.00  0.00    +0.000 C 
BRANCH  21  23
ATOM     22  C   UNL     1       2.348   4.823   9.104  0.00  0.00    +0.000 C 
ATOM     23  C   UNL     1       2.748   3.586   9.894  0.00  0.00    +0.000 C 
ENDBRANCH  21  23
ENDBRANCH  20  21
ENDBRANCH  19  20
ENDBRANCH  18  19
ENDBRANCH  17  18
ENDBRANCH  16  17
ENDBRANCH  15  16
ENDBRANCH   1  15
BRANCH   6  24
ATOM     24  C   UNL     1       3.484   1.749  17.718  0.00  0.00    +0.000 C 
BRANCH  24  25
ATOM     25  O   UNL     1       4.036   0.577  18.325  0.00  0.00    +0.000 OA
ATOM     26  H   UNL     1       3.536  -0.177  17.953  0.00  0.00    +0.000 HD
ENDBRANCH  24  25
ENDBRANCH   6  24
TORSDOF 14
ENDMDL
MODEL 5
REMARK VINA RESULT:      -6.0      3.749      5.728
REMARK  Name = 
REMARK  15 active torsions:
REMARK  status: ('A' for Active; 'I' for Inactive)
REMARK    1  A    between atoms: C_1  and  C_2
REMARK    2  A    between atoms: C_2  and  C_3
REMARK    3  A    between atoms: C_3  and  C_4
REMARK    4  A    between atoms: C_4  and  C_5
REMARK    5  A    between atoms: C_5  and  C_6
REMARK    6  A    between atoms: C_6  and  C_7
REMARK    7  A    between atoms: C_7  and  C_8
REMARK    8  A    between atoms: C_8  and  C_9
REMARK    9  A    between atoms: C_9  and  N_10
REMARK   10  A    between atoms: C_11  and  C_12
REMARK   11  A    between atoms: C_14  and  O_15
REMARK   12  A    between atoms: C_16  and  O_17
REMARK   13  A    between atoms: C_18  and  O_19
REMARK   14  A    between atoms: C_20  and  C_21
REMARK   15  A    between atoms: C_21  and  O_22
REMARK                            x       y       z     vdW  Elec       q    Type
REMARK                         _______ _______ _______ _____ _____    ______ ____
ROOT
ATOM      1  N   UNL     1       4.466   5.588  18.495  0.00  0.00    +0.000 NA
ATOM      2  C   UNL     1       4.828   4.136  18.288  0.00  0.00    +0.000 C 
ATOM      3  C   UNL     1       4.180   3.287  19.420  0.00  0.00    +0.000 C 
ATOM      4  C   UNL     1       2.652   3.401  19.337  0.00  0.00    +0.000 C 
ATOM      5  C   UNL     1       2.273   4.865  19.580  0.00  0.00    +0.000 C 
ATOM      6  C   UNL     1       2.982   5.819  18.562  0.00  0.00    +0.000 C 
ENDROOT
BRANCH   2   7
ATOM      7  C   UNL     1       4.531   3.622  16.848  0.00  0.00    +0.000 C 
ATOM      8 CL   UNL     1       5.935   3.589  15.752  0.00  0.00    +0.000 Cl
ENDBRANCH   2   7
BRANCH   3   9
ATOM      9  O   UNL     1       4.634   1.937  19.427  0.00  0.00    +0.000 OA
ATOM     10  H   UNL     1       3.861   1.347  19.402  0.00  0.00    +0.000 HD
ENDBRANCH   3   9
BRANCH   4  11
ATOM     11  O   UNL     1       2.023   2.575  20.321  0.00  0.00    +0.000 OA
ATOM     12  H   UNL     1       2.762   2.188  20.836  0.00  0.00    +0.000 HD
ENDBRANCH   4  11
BRANCH   5  13
ATOM     13  O   UNL     1       2.601   5.153  20.953  0.00  0.00    +0.000 OA
ATOM     14  H   UNL     1       2.685   6.125  21.050  0.00  0.00    +0.000 HD
ENDBRANCH   5  13
BRANCH   1  15
ATOM     15  C   UNL     1       5.149   6.491  17.543  0.00  0.00    +0.000 C 
BRANCH  15  16
ATOM     16  C   UNL     1       6.675   6.522  17.727  0.00  0.00    +0.000 C 
BRANCH  16  17
ATOM     17  C   UNL     1       7.304   7.886  17.400  0.00  0.00    +0.000 C 
BRANCH  17  18
ATOM     18  C   UNL     1       8.459   8.323  18.309  0.00  0.00    +0.000 C 
BRANCH  18  19
ATOM     19  C   UNL     1       8.636   9.840  18.337  0.00  0.00    +0.000 C 
BRANCH  19  20
ATOM     20  C   UNL     1       9.354  10.329  19.595  0.00  0.00    +0.000 C 
BRANCH  20  21
ATOM     21  C   UNL     1      10.262  11.506  19.232  0.00  0.00    +0.000 C 
BRANCH  21  23
ATOM     22  C   UNL     1      11.607  12.634  17.446  0.00  0.00    +0.000 C 
ATOM     23  C   UNL     1      10.562  11.569  17.739  0.00  0.00    +0.000 C 
ENDBRANCH  21  23
ENDBRANCH  20  21
ENDBRANCH  19  20
ENDBRANCH  18  19
ENDBRANCH  17  18
ENDBRANCH  16  17
ENDBRANCH  15  16
ENDBRANCH   1  15
BRANCH   6  24
ATOM     24  C   UNL     1       2.623   7.277  18.963  0.00  0.00    +0.000 C 
BRANCH  24  25
ATOM     25  O   UNL     1       1.989   7.951  17.871  0.00  0.00    +0.000 OA
ATOM     26  H   UNL     1       1.029   7.913  18.054  0.00  0.00    +0.000 HD
ENDBRANCH  24  25
ENDBRANCH   6  24
TORSDOF 14
ENDMDL
MODEL 6
REMARK VINA RESULT:      -6.0      3.376      5.335
REMARK  Name = 
REMARK  15 active torsions:
REMARK  status: ('A' for Active; 'I' for Inactive)
REMARK    1  A    between atoms: C_1  and  C_2
REMARK    2  A    between atoms: C_2  and  C_3
REMARK    3  A    between atoms: C_3  and  C_4
REMARK    4  A    between atoms: C_4  and  C_5
REMARK    5  A    between atoms: C_5  and  C_6
REMARK    6  A    between atoms: C_6  and  C_7
REMARK    7  A    between atoms: C_7  and  C_8
REMARK    8  A    between atoms: C_8  and  C_9
REMARK    9  A    between atoms: C_9  and  N_10
REMARK   10  A    between atoms: C_11  and  C_12
REMARK   11  A    between atoms: C_14  and  O_15
REMARK   12  A    between atoms: C_16  and  O_17
REMARK   13  A    between atoms: C_18  and  O_19
REMARK   14  A    between atoms: C_20  and  C_21
REMARK   15  A    between atoms: C_21  and  O_22
REMARK                            x       y       z     vdW  Elec       q    Type
REMARK                         _______ _______ _______ _____ _____    ______ ____
ROOT
ATOM      1  N   UNL     1       4.195   4.994  18.567  0.00  0.00    +0.000 NA
ATOM      2  C   UNL     1       4.578   3.689  17.909  0.00  0.00    +0.000 C 
ATOM      3  C   UNL     1       3.635   2.566  18.429  0.00  0.00    +0.000 C 
ATOM      4  C   UNL     1       2.189   2.881  18.027  0.00  0.00    +0.000 C 
ATOM      5  C   UNL     1       1.780   4.186  18.718  0.00  0.00    +0.000 C 
ATOM      6  C   UNL     1       2.752   5.357  18.354  0.00  0.00    +0.000 C 
ENDROOT
BRANCH   2   7
ATOM      7  C   UNL     1       4.674   3.782  16.358  0.00  0.00    +0.000 C 
ATOM      8 CL   UNL     1       6.330   3.815  15.703  0.00  0.00    +0.000 Cl
ENDBRANCH   2   7
BRANCH   3   9
ATOM      9  O   UNL     1       4.051   1.264  18.024  0.00  0.00    +0.000 OA
ATOM     10  H   UNL     1       4.713   1.355  17.315  0.00  0.00    +0.000 HD
ENDBRANCH   3   9
BRANCH   4  11
ATOM     11  O   UNL     1       1.306   1.831  18.430  0.00  0.00    +0.000 OA
ATOM     12  H   UNL     1       1.894   1.089  18.684  0.00  0.00    +0.000 HD
ENDBRANCH   4  11
BRANCH   5  13
ATOM     13  O   UNL     1       1.729   3.906  20.130  0.00  0.00    +0.000 OA
ATOM     14  H   UNL     1       0.787   3.866  20.400  0.00  0.00    +0.000 HD
ENDBRANCH   5  13
BRANCH   1  15
ATOM     15  C   UNL     1       5.123   6.098  18.238  0.00  0.00    +0.000 C 
BRANCH  15  16
ATOM     16  C   UNL     1       6.541   5.881  18.788  0.00  0.00    +0.000 C 
BRANCH  16  17
ATOM     17  C   UNL     1       7.645   6.445  17.879  0.00  0.00    +0.000 C 
BRANCH  17  18
ATOM     18  C   UNL     1       7.556   7.946  17.576  0.00  0.00    +0.000 C 
BRANCH  18  19
ATOM     19  C   UNL     1       8.544   8.767  18.403  0.00  0.00    +0.000 C 
BRANCH  19  20
ATOM     20  C   UNL     1       8.459  10.265  18.110  0.00  0.00    +0.000 C 
BRANCH  20  21
ATOM     21  C   UNL     1       9.764  10.937  18.544  0.00  0.00    +0.000 C 
BRANCH  21  23
ATOM     22  C   UNL     1       9.186  12.093  20.690  0.00  0.00    +0.000 C 
ATOM     23  C   UNL     1       9.942  10.934  20.058  0.00  0.00    +0.000 C 
ENDBRANCH  21  23
ENDBRANCH  20  21
ENDBRANCH  19  20
ENDBRANCH  18  19
ENDBRANCH  17  18
ENDBRANCH  16  17
ENDBRANCH  15  16
ENDBRANCH   1  15
BRANCH   6  24
ATOM     24  C   UNL     1       2.319   6.596  19.188  0.00  0.00    +0.000 C 
BRANCH  24  25
ATOM     25  O   UNL     1       2.624   6.396  20.571  0.00  0.00    +0.000 OA
ATOM     26  H   UNL     1       2.812   7.284  20.936  0.00  0.00    +0.000 HD
ENDBRANCH  24  25
ENDBRANCH   6  24
TORSDOF 14
ENDMDL
MODEL 7
REMARK VINA RESULT:      -6.0      3.776      6.164
REMARK  Name = 
REMARK  15 active torsions:
REMARK  status: ('A' for Active; 'I' for Inactive)
REMARK    1  A    between atoms: C_1  and  C_2
REMARK    2  A    between atoms: C_2  and  C_3
REMARK    3  A    between atoms: C_3  and  C_4
REMARK    4  A    between atoms: C_4  and  C_5
REMARK    5  A    between atoms: C_5  and  C_6
REMARK    6  A    between atoms: C_6  and  C_7
REMARK    7  A    between atoms: C_7  and  C_8
REMARK    8  A    between atoms: C_8  and  C_9
REMARK    9  A    between atoms: C_9  and  N_10
REMARK   10  A    between atoms: C_11  and  C_12
REMARK   11  A    between atoms: C_14  and  O_15
REMARK   12  A    between atoms: C_16  and  O_17
REMARK   13  A    between atoms: C_18  and  O_19
REMARK   14  A    between atoms: C_20  and  C_21
REMARK   15  A    between atoms: C_21  and  O_22
REMARK                            x       y       z     vdW  Elec       q    Type
REMARK                         _______ _______ _______ _____ _____    ______ ____
ROOT
ATOM      1  N   UNL     1       2.943   5.266  18.819  0.00  0.00    +0.000 NA
ATOM      2  C   UNL     1       4.307   5.051  18.206  0.00  0.00    +0.000 C 
ATOM      3  C   UNL     1       5.115   4.068  19.103  0.00  0.00    +0.000 C 
ATOM      4  C   UNL     1       4.405   2.709  19.144  0.00  0.00    +0.000 C 
ATOM      5  C   UNL     1       3.033   2.910  19.795  0.00  0.00    +0.000 C 
ATOM      6  C   UNL     1       2.188   3.983  19.032  0.00  0.00    +0.000 C 
ENDROOT
BRANCH   2   7
ATOM      7  C   UNL     1       4.256   4.655  16.701  0.00  0.00    +0.000 C 
ATOM      8 CL   UNL     1       5.217   5.690  15.614  0.00  0.00    +0.000 Cl
ENDBRANCH   2   7
BRANCH   3   9
ATOM      9  O   UNL     1       6.483   3.968  18.719  0.00  0.00    +0.000 OA
ATOM     10  H   UNL     1       6.645   4.577  17.978  0.00  0.00    +0.000 HD
ENDBRANCH   3   9
BRANCH   4  11
ATOM     11  O   UNL     1       5.160   1.761  19.903  0.00  0.00    +0.000 OA
ATOM     12  H   UNL     1       6.096   1.952  19.688  0.00  0.00    +0.000 HD
ENDBRANCH   4  11
BRANCH   5  13
ATOM     13  O   UNL     1       3.278   3.252  21.173  0.00  0.00    +0.000 OA
ATOM     14  H   UNL     1       2.705   4.013  21.405  0.00  0.00    +0.000 HD
ENDBRANCH   5  13
BRANCH   1  15
ATOM     15  C   UNL     1       2.150   6.293  18.108  0.00  0.00    +0.000 C 
BRANCH  15  16
ATOM     16  C   UNL     1       2.745   7.705  18.225  0.00  0.00    +0.000 C 
BRANCH  16  17
ATOM     17  C   UNL     1       1.784   8.725  18.856  0.00  0.00    +0.000 C 
BRANCH  17  18
ATOM     18  C   UNL     1       0.729   9.319  17.913  0.00  0.00    +0.000 C 
BRANCH  18  19
ATOM     19  C   UNL     1       0.123  10.611  18.459  0.00  0.00    +0.000 C 
BRANCH  19  20
ATOM     20  C   UNL     1      -1.381  10.500  18.705  0.00  0.00    +0.000 C 
BRANCH  20  21
ATOM     21  C   UNL     1      -2.048   9.877  17.477  0.00  0.00    +0.000 C 
BRANCH  21  23
ATOM     22  C   UNL     1      -2.875  10.263  15.144  0.00  0.00    +0.000 C 
ATOM     23  C   UNL     1      -2.476  10.924  16.455  0.00  0.00    +0.000 C 
ENDBRANCH  21  23
ENDBRANCH  20  21
ENDBRANCH  19  20
ENDBRANCH  18  19
ENDBRANCH  17  18
ENDBRANCH  16  17
ENDBRANCH  15  16
ENDBRANCH   1  15
BRANCH   6  24
ATOM     24  C   UNL     1       0.871   4.193  19.832  0.00  0.00    +0.000 C 
BRANCH  24  25
ATOM     25  O   UNL     1       0.458   2.966  20.440  0.00  0.00    +0.000 OA
ATOM     26  H   UNL     1       0.615   2.270  19.771  0.00  0.00    +0.000 HD
ENDBRANCH  24  25
ENDBRANCH   6  24
TORSDOF 14
ENDMDL
MODEL 8
REMARK VINA RESULT:      -5.9      3.187      5.955
REMARK  Name = 
REMARK  15 active torsions:
REMARK  status: ('A' for Active; 'I' for Inactive)
REMARK    1  A    between atoms: C_1  and  C_2
REMARK    2  A    between atoms: C_2  and  C_3
REMARK    3  A    between atoms: C_3  and  C_4
REMARK    4  A    between atoms: C_4  and  C_5
REMARK    5  A    between atoms: C_5  and  C_6
REMARK    6  A    between atoms: C_6  and  C_7
REMARK    7  A    between atoms: C_7  and  C_8
REMARK    8  A    between atoms: C_8  and  C_9
REMARK    9  A    between atoms: C_9  and  N_10
REMARK   10  A    between atoms: C_11  and  C_12
REMARK   11  A    between atoms: C_14  and  O_15
REMARK   12  A    between atoms: C_16  and  O_17
REMARK   13  A    between atoms: C_18  and  O_19
REMARK   14  A    between atoms: C_20  and  C_21
REMARK   15  A    between atoms: C_21  and  O_22
REMARK                            x       y       z     vdW  Elec       q    Type
REMARK                         _______ _______ _______ _____ _____    ______ ____
ROOT
ATOM      1  N   UNL     1       5.070   5.698  18.028  0.00  0.00    +0.000 NA
ATOM      2  C   UNL     1       4.500   5.140  16.745  0.00  0.00    +0.000 C 
ATOM      3  C   UNL     1       5.527   5.361  15.597  0.00  0.00    +0.000 C 
ATOM      4  C   UNL     1       6.817   4.590  15.906  0.00  0.00    +0.000 C 
ATOM      5  C   UNL     1       7.421   5.172  17.188  0.00  0.00    +0.000 C 
ATOM      6  C   UNL     1       6.408   5.110  18.380  0.00  0.00    +0.000 C 
ENDROOT
BRANCH   2   7
ATOM      7  C   UNL     1       3.990   3.675  16.879  0.00  0.00    +0.000 C 
ATOM      8 CL   UNL     1       2.238   3.505  17.153  0.00  0.00    +0.000 Cl
ENDBRANCH   2   7
BRANCH   3   9
ATOM      9  O   UNL     1       4.994   5.055  14.312  0.00  0.00    +0.000 OA
ATOM     10  H   UNL     1       5.063   5.846  13.749  0.00  0.00    +0.000 HD
ENDBRANCH   3   9
BRANCH   4  11
ATOM     11  O   UNL     1       7.757   4.715  14.836  0.00  0.00    +0.000 OA
ATOM     12  H   UNL     1       8.283   3.889  14.863  0.00  0.00    +0.000 HD
ENDBRANCH   4  11
BRANCH   5  13
ATOM     13  O   UNL     1       7.846   6.512  16.871  0.00  0.00    +0.000 OA
ATOM     14  H   UNL     1       8.820   6.503  16.755  0.00  0.00    +0.000 HD
ENDBRANCH   5  13
BRANCH   1  15
ATOM     15  C   UNL     1       4.107   5.655  19.150  0.00  0.00    +0.000 C 
BRANCH  15  16
ATOM     16  C   UNL     1       2.918   6.611  18.964  0.00  0.00    +0.000 C 
BRANCH  16  17
ATOM     17  C   UNL     1       1.868   6.508  20.082  0.00  0.00    +0.000 C 
BRANCH  17  18
ATOM     18  C   UNL     1       1.952   5.254  20.962  0.00  0.00    +0.000 C 
BRANCH  18  19
ATOM     19  C   UNL     1       0.978   4.164  20.516  0.00  0.00    +0.000 C 
BRANCH  19  20
ATOM     20  C   UNL     1       1.140   2.867  21.308  0.00  0.00    +0.000 C 
BRANCH  20  21
ATOM     21  C   UNL     1       2.630   2.541  21.443  0.00  0.00    +0.000 C 
BRANCH  21  23
ATOM     22  C   UNL     1       4.781   2.094  20.241  0.00  0.00    +0.000 C 
ATOM     23  C   UNL     1       3.268   2.176  20.109  0.00  0.00    +0.000 C 
ENDBRANCH  21  23
ENDBRANCH  20  21
ENDBRANCH  19  20
ENDBRANCH  18  19
ENDBRANCH  17  18
ENDBRANCH  16  17
ENDBRANCH  15  16
ENDBRANCH   1  15
BRANCH   6  24
ATOM     24  C   UNL     1       7.072   5.823  19.592  0.00  0.00    +0.000 C 
BRANCH  24  25
ATOM     25  O   UNL     1       8.417   5.366  19.761  0.00  0.00    +0.000 OA
ATOM     26  H   UNL     1       8.982   6.161  19.679  0.00  0.00    +0.000 HD
ENDBRANCH  24  25
ENDBRANCH   6  24
TORSDOF 14
ENDMDL
MODEL 9
REMARK VINA RESULT:      -5.9      3.681      5.896
REMARK  Name = 
REMARK  15 active torsions:
REMARK  status: ('A' for Active; 'I' for Inactive)
REMARK    1  A    between atoms: C_1  and  C_2
REMARK    2  A    between atoms: C_2  and  C_3
REMARK    3  A    between atoms: C_3  and  C_4
REMARK    4  A    between atoms: C_4  and  C_5
REMARK    5  A    between atoms: C_5  and  C_6
REMARK    6  A    between atoms: C_6  and  C_7
REMARK    7  A    between atoms: C_7  and  C_8
REMARK    8  A    between atoms: C_8  and  C_9
REMARK    9  A    between atoms: C_9  and  N_10
REMARK   10  A    between atoms: C_11  and  C_12
REMARK   11  A    between atoms: C_14  and  O_15
REMARK   12  A    between atoms: C_16  and  O_17
REMARK   13  A    between atoms: C_18  and  O_19
REMARK   14  A    between atoms: C_20  and  C_21
REMARK   15  A    between atoms: C_21  and  O_22
REMARK                            x       y       z     vdW  Elec       q    Type
REMARK                         _______ _______ _______ _____ _____    ______ ____
ROOT
ATOM      1  N   UNL     1       3.015   5.265  18.740  0.00  0.00    +0.000 NA
ATOM      2  C   UNL     1       1.732   4.508  18.992  0.00  0.00    +0.000 C 
ATOM      3  C   UNL     1       1.855   3.085  18.375  0.00  0.00    +0.000 C 
ATOM      4  C   UNL     1       2.990   2.320  19.069  0.00  0.00    +0.000 C 
ATOM      5  C   UNL     1       4.301   3.062  18.790  0.00  0.00    +0.000 C 
ATOM      6  C   UNL     1       4.230   4.551  19.265  0.00  0.00    +0.000 C 
ENDROOT
BRANCH   2   7
ATOM      7  C   UNL     1       1.285   4.526  20.483  0.00  0.00    +0.000 C 
ATOM      8 CL   UNL     1       1.656   3.045  21.402  0.00  0.00    +0.000 Cl
ENDBRANCH   2   7
BRANCH   3   9
ATOM      9  O   UNL     1       0.622   2.371  18.381  0.00  0.00    +0.000 OA
ATOM     10  H   UNL     1      -0.105   3.005  18.249  0.00  0.00    +0.000 HD
ENDBRANCH   3   9
BRANCH   4  11
ATOM     11  O   UNL     1       3.083   0.982  18.573  0.00  0.00    +0.000 OA
ATOM     12  H   UNL     1       3.258   1.080  17.614  0.00  0.00    +0.000 HD
ENDBRANCH   4  11
BRANCH   5  13
ATOM     13  O   UNL     1       4.559   2.925  17.380  0.00  0.00    +0.000 OA
ATOM     14  H   UNL     1       5.516   2.749  17.260  0.00  0.00    +0.000 HD
ENDBRANCH   5  13
BRANCH   1  15
ATOM     15  C   UNL     1       2.943   6.678  19.172  0.00  0.00    +0.000 C 
BRANCH  15  16
ATOM     16  C   UNL     1       2.994   7.672  18.002  0.00  0.00    +0.000 C 
BRANCH  16  17
ATOM     17  C   UNL     1       1.658   8.388  17.747  0.00  0.00    +0.000 C 
BRANCH  17  18
ATOM     18  C   UNL     1       1.580   9.844  18.222  0.00  0.00    +0.000 C 
BRANCH  18  19
ATOM     19  C   UNL     1       0.296  10.135  18.996  0.00  0.00    +0.000 C 
BRANCH  19  20
ATOM     20  C   UNL     1      -0.184  11.577  18.826  0.00  0.00    +0.000 C 
BRANCH  20  21
ATOM     21  C   UNL     1      -1.513  11.580  18.067  0.00  0.00    +0.000 C 
BRANCH  21  23
ATOM     22  C   UNL     1      -2.459   9.923  16.445  0.00  0.00    +0.000 C 
ATOM     23  C   UNL     1      -2.088  10.179  17.898  0.00  0.00    +0.000 C 
ENDBRANCH  21  23
ENDBRANCH  20  21
ENDBRANCH  19  20
ENDBRANCH  18  19
ENDBRANCH  17  18
ENDBRANCH  16  17
ENDBRANCH  15  16
ENDBRANCH   1  15
BRANCH   6  24
ATOM     24  C   UNL     1       5.557   5.240  18.836  0.00  0.00    +0.000 C 
BRANCH  24  25
ATOM     25  O   UNL     1       6.573   4.260  18.605  0.00  0.00    +0.000 OA
ATOM     26  H   UNL     1       6.167   3.584  18.027  0.00  0.00    +0.000 HD
ENDBRANCH  24  25
ENDBRANCH   6  24
TORSDOF 14
ENDMDL
