MODEL 1
REMARK VINA RESULT:      -7.7      0.000      0.000
REMARK  Name = 
REMARK  8 active torsions:
REMARK  status: ('A' for Active; 'I' for Inactive)
REMARK    1  A    between atoms: C_1  and  N_2
REMARK    2  A    between atoms: C_6  and  C_7
REMARK    3  A    between atoms: C_7  and  C_8
REMARK    4  A    between atoms: C_8  and  C_9
REMARK    5  A    between atoms: C_14  and  C_15
REMARK    6  A    between atoms: C_18  and  N_19
REMARK    7  A    between atoms: C_18  and  C_20
REMARK    8  A    between atoms: C_20  and  O_21
REMARK                            x       y       z     vdW  Elec       q    Type
REMARK                         _______ _______ _______ _____ _____    ______ ____
ROOT
ATOM      1  C   UNL     1       0.365  11.305  19.113  0.00  0.00    +0.000 C 
ATOM      2  C   UNL     1       0.644  11.113  20.612  0.00  0.00    +0.000 C 
ATOM      3  C   UNL     1       0.548   9.633  20.999  0.00  0.00    +0.000 C 
ATOM      4  C   UNL     1       1.327   8.726  20.080  0.00  0.00    +0.000 A 
ATOM      5  C   UNL     1       1.630   7.413  20.480  0.00  0.00    +0.000 A 
ATOM      6  C   UNL     1       2.299   6.512  19.627  0.00  0.00    +0.000 A 
ATOM      7  C   UNL     1       2.670   6.967  18.359  0.00  0.00    +0.000 A 
ATOM      8  C   UNL     1       2.376   8.265  17.950  0.00  0.00    +0.000 A 
ATOM      9  C   UNL     1       1.692   9.145  18.796  0.00  0.00    +0.000 A 
ATOM     10  C   UNL     1       1.421  10.538  18.301  0.00  0.00    +0.000 C 
ENDROOT
BRANCH   6  11
ATOM     11  C   UNL     1       2.587   5.103  20.120  0.00  0.00    +0.000 C 
ATOM     12  C   UNL     1       1.293   4.375  20.554  0.00  0.00    +0.000 C 
ATOM     13  C   UNL     1       1.286   3.022  19.837  0.00  0.00    +0.000 C 
ATOM     14  C   UNL     1       2.165   3.217  18.598  0.00  0.00    +0.000 C 
ATOM     15  C   UNL     1       3.281   4.110  19.159  0.00  0.00    +0.000 C 
BRANCH  14  16
ATOM     16  N   UNL     1       1.382   3.908  17.561  0.00  0.00    +0.000 NA
ATOM     17  H   UNL     1       1.794   3.680  16.652  0.00  0.00    +0.000 HD
ATOM     18  H   UNL     1       1.509   4.916  17.649  0.00  0.00    +0.000 HD
ENDBRANCH  14  16
BRANCH  14  19
ATOM     19  C   UNL     1       2.706   1.889  18.034  0.00  0.00    +0.000 C 
BRANCH  19  20
ATOM     20  O   UNL     1       4.024   1.627  18.520  0.00  0.00    +0.000 OA
ATOM     21  H   UNL     1       4.033   0.719  18.868  0.00  0.00    +0.000 HD
ENDBRANCH  19  20
ENDBRANCH  14  19
ENDBRANCH   6  11
BRANCH   1  22
ATOM     22  C   UNL     1       0.348  12.801  18.728  0.00  0.00    +0.000 C 
BRANCH  22  23
ATOM     23  C   UNL     1       1.241  13.654  19.640  0.00  0.00    +0.000 C 
BRANCH  23  29
ATOM     24  C   UNL     1       0.876  16.608  18.718  0.00  0.00    +0.000 C 
ATOM     25  N   UNL     1       2.027  15.776  18.470  0.00  0.00    +0.000 N 
ATOM     26  C   UNL     1       3.127  16.150  17.750  0.00  0.00    +0.000 A 
ATOM     27  N   UNL     1       4.012  15.185  17.678  0.00  0.00    +0.000 NA
ATOM     28  C   UNL     1       3.458  14.141  18.369  0.00  0.00    +0.000 A 
ATOM     29  C   UNL     1       2.219  14.479  18.878  0.00  0.00    +0.000 A 
ENDBRANCH  23  29
ENDBRANCH  22  23
ENDBRANCH   1  22
TORSDOF 7
ENDMDL
MODEL 2
REMARK VINA RESULT:      -7.7      3.613      4.665
REMARK  Name = 
REMARK  8 active torsions:
REMARK  status: ('A' for Active; 'I' for Inactive)
REMARK    1  A    between atoms: C_1  and  N_2
REMARK    2  A    between atoms: C_6  and  C_7
REMARK    3  A    between atoms: C_7  and  C_8
REMARK    4  A    between atoms: C_8  and  C_9
REMARK    5  A    between atoms: C_14  and  C_15
REMARK    6  A    between atoms: C_18  and  N_19
REMARK    7  A    between atoms: C_18  and  C_20
REMARK    8  A    between atoms: C_20  and  O_21
REMARK                            x       y       z     vdW  Elec       q    Type
REMARK                         _______ _______ _______ _____ _____    ______ ____
ROOT
ATOM      1  C   UNL     1      -0.260  10.333  20.275  0.00  0.00    +0.000 C 
ATOM      2  C   UNL     1       0.436   9.819  21.545  0.00  0.00    +0.000 C 
ATOM      3  C   UNL     1       0.857   8.354  21.380  0.00  0.00    +0.000 C 
ATOM      4  C   UNL     1       1.595   8.089  20.093  0.00  0.00    +0.000 A 
ATOM      5  C   UNL     1       2.343   6.908  19.943  0.00  0.00    +0.000 A 
ATOM      6  C   UNL     1       2.994   6.589  18.733  0.00  0.00    +0.000 A 
ATOM      7  C   UNL     1       2.885   7.496  17.675  0.00  0.00    +0.000 A 
ATOM      8  C   UNL     1       2.147   8.669  17.811  0.00  0.00    +0.000 A 
ATOM      9  C   UNL     1       1.487   8.965  19.008  0.00  0.00    +0.000 A 
ATOM     10  C   UNL     1       0.722  10.256  19.095  0.00  0.00    +0.000 C 
ENDROOT
BRANCH   6  11
ATOM     11  C   UNL     1       3.778   5.290  18.636  0.00  0.00    +0.000 C 
ATOM     12  C   UNL     1       3.866   4.784  17.177  0.00  0.00    +0.000 C 
ATOM     13  C   UNL     1       5.344   4.505  16.895  0.00  0.00    +0.000 C 
ATOM     14  C   UNL     1       6.117   5.385  17.881  0.00  0.00    +0.000 C 
ATOM     15  C   UNL     1       5.241   5.270  19.137  0.00  0.00    +0.000 C 
BRANCH  14  16
ATOM     16  N   UNL     1       6.154   6.763  17.364  0.00  0.00    +0.000 NA
ATOM     17  H   UNL     1       5.221   6.992  17.013  0.00  0.00    +0.000 HD
ATOM     18  H   UNL     1       6.750   6.802  16.537  0.00  0.00    +0.000 HD
ENDBRANCH  14  16
BRANCH  14  19
ATOM     19  C   UNL     1       7.556   4.889  18.125  0.00  0.00    +0.000 C 
BRANCH  19  20
ATOM     20  O   UNL     1       8.026   5.295  19.411  0.00  0.00    +0.000 OA
ATOM     21  H   UNL     1       7.405   5.959  19.754  0.00  0.00    +0.000 HD
ENDBRANCH  19  20
ENDBRANCH  14  19
ENDBRANCH   6  11
BRANCH   1  22
ATOM     22  C   UNL     1      -0.790  11.771  20.463  0.00  0.00    +0.000 C 
BRANCH  22  23
ATOM     23  C   UNL     1      -1.352  12.366  19.164  0.00  0.00    +0.000 C 
BRANCH  23  29
ATOM     24  C   UNL     1      -2.290  10.455  16.890  0.00  0.00    +0.000 C 
ATOM     25  N   UNL     1      -3.136  11.093  17.866  0.00  0.00    +0.000 N 
ATOM     26  C   UNL     1      -4.498  10.986  17.917  0.00  0.00    +0.000 A 
ATOM     27  N   UNL     1      -5.004  11.685  18.905  0.00  0.00    +0.000 NA
ATOM     28  C   UNL     1      -3.929  12.278  19.511  0.00  0.00    +0.000 A 
ATOM     29  C   UNL     1      -2.747  11.926  18.887  0.00  0.00    +0.000 A 
ENDBRANCH  23  29
ENDBRANCH  22  23
ENDBRANCH   1  22
TORSDOF 7
ENDMDL
MODEL 3
REMARK VINA RESULT:      -7.7      3.258      4.029
REMARK  Name = 
REMARK  8 active torsions:
REMARK  status: ('A' for Active; 'I' for Inactive)
REMARK    1  A    between atoms: C_1  and  N_2
REMARK    2  A    between atoms: C_6  and  C_7
REMARK    3  A    between atoms: C_7  and  C_8
REMARK    4  A    between atoms: C_8  and  C_9
REMARK    5  A    between atoms: C_14  and  C_15
REMARK    6  A    between atoms: C_18  and  N_19
REMARK    7  A    between atoms: C_18  and  C_20
REMARK    8  A    between atoms: C_20  and  O_21
REMARK                            x       y       z     vdW  Elec       q    Type
REMARK                         _______ _______ _______ _____ _____    ______ ____
ROOT
ATOM      1  C   UNL     1      -0.494  10.396  20.680  0.00  0.00    +0.000 C 
ATOM      2  C   UNL     1       0.332   9.808  21.833  0.00  0.00    +0.000 C 
ATOM      3  C   UNL     1       0.842   8.406  21.479  0.00  0.00    +0.000 C 
ATOM      4  C   UNL     1       1.495   8.337  20.122  0.00  0.00    +0.000 A 
ATOM      5  C   UNL     1       2.311   7.241  19.790  0.00  0.00    +0.000 A 
ATOM      6  C   UNL     1       2.887   7.104  18.511  0.00  0.00    +0.000 A 
ATOM      7  C   UNL     1       2.634   8.105  17.570  0.00  0.00    +0.000 A 
ATOM      8  C   UNL     1       1.828   9.196  17.886  0.00  0.00    +0.000 A 
ATOM      9  C   UNL     1       1.242   9.311  19.151  0.00  0.00    +0.000 A 
ATOM     10  C   UNL     1       0.398  10.522  19.434  0.00  0.00    +0.000 C 
ENDROOT
BRANCH   6  11
ATOM     11  C   UNL     1       3.751   5.888  18.217  0.00  0.00    +0.000 C 
ATOM     12  C   UNL     1       4.291   5.243  19.515  0.00  0.00    +0.000 C 
ATOM     13  C   UNL     1       3.959   3.751  19.438  0.00  0.00    +0.000 C 
ATOM     14  C   UNL     1       2.763   3.652  18.487  0.00  0.00    +0.000 C 
ATOM     15  C   UNL     1       3.128   4.708  17.434  0.00  0.00    +0.000 C 
BRANCH  14  16
ATOM     16  N   UNL     1       1.538   4.010  19.220  0.00  0.00    +0.000 NA
ATOM     17  H   UNL     1       1.670   3.747  20.201  0.00  0.00    +0.000 HD
ATOM     18  H   UNL     1       0.766   3.423  18.905  0.00  0.00    +0.000 HD
ENDBRANCH  14  16
BRANCH  14  19
ATOM     19  C   UNL     1       2.602   2.247  17.873  0.00  0.00    +0.000 C 
BRANCH  19  20
ATOM     20  O   UNL     1       1.743   1.435  18.675  0.00  0.00    +0.000 OA
ATOM     21  H   UNL     1       1.375   0.742  18.102  0.00  0.00    +0.000 HD
ENDBRANCH  19  20
ENDBRANCH  14  19
ENDBRANCH   6  11
BRANCH   1  22
ATOM     22  C   UNL     1      -1.108  11.761  21.062  0.00  0.00    +0.000 C 
BRANCH  22  23
ATOM     23  C   UNL     1      -1.528  12.583  19.835  0.00  0.00    +0.000 C 
BRANCH  23  29
ATOM     24  C   UNL     1      -4.314  13.433  20.940  0.00  0.00    +0.000 C 
ATOM     25  N   UNL     1      -4.075  12.558  19.819  0.00  0.00    +0.000 N 
ATOM     26  C   UNL     1      -5.047  11.932  19.089  0.00  0.00    +0.000 A 
ATOM     27  N   UNL     1      -4.535  11.188  18.138  0.00  0.00    +0.000 NA
ATOM     28  C   UNL     1      -3.179  11.330  18.263  0.00  0.00    +0.000 A 
ATOM     29  C   UNL     1      -2.859  12.181  19.304  0.00  0.00    +0.000 A 
ENDBRANCH  23  29
ENDBRANCH  22  23
ENDBRANCH   1  22
TORSDOF 7
ENDMDL
MODEL 4
REMARK VINA RESULT:      -7.6      1.024      1.628
REMARK  Name = 
REMARK  8 active torsions:
REMARK  status: ('A' for Active; 'I' for Inactive)
REMARK    1  A    between atoms: C_1  and  N_2
REMARK    2  A    between atoms: C_6  and  C_7
REMARK    3  A    between atoms: C_7  and  C_8
REMARK    4  A    between atoms: C_8  and  C_9
REMARK    5  A    between atoms: C_14  and  C_15
REMARK    6  A    between atoms: C_18  and  N_19
REMARK    7  A    between atoms: C_18  and  C_20
REMARK    8  A    between atoms: C_20  and  O_21
REMARK                            x       y       z     vdW  Elec       q    Type
REMARK                         _______ _______ _______ _____ _____    ______ ____
ROOT
ATOM      1  C   UNL     1      -0.545  10.944  19.874  0.00  0.00    +0.000 C 
ATOM      2  C   UNL     1      -0.014  10.663  21.288  0.00  0.00    +0.000 C 
ATOM      3  C   UNL     1       0.293   9.172  21.468  0.00  0.00    +0.000 C 
ATOM      4  C   UNL     1       1.119   8.595  20.347  0.00  0.00    +0.000 A 
ATOM      5  C   UNL     1       1.774   7.363  20.519  0.00  0.00    +0.000 A 
ATOM      6  C   UNL     1       2.502   6.756  19.475  0.00  0.00    +0.000 A 
ATOM      7  C   UNL     1       2.568   7.426  18.251  0.00  0.00    +0.000 A 
ATOM      8  C   UNL     1       1.925   8.647  18.067  0.00  0.00    +0.000 A 
ATOM      9  C   UNL     1       1.186   9.230  19.102  0.00  0.00    +0.000 A 
ATOM     10  C   UNL     1       0.531  10.558  18.846  0.00  0.00    +0.000 C 
ENDROOT
BRANCH   6  11
ATOM     11  C   UNL     1       3.177   5.417  19.726  0.00  0.00    +0.000 C 
ATOM     12  C   UNL     1       2.311   4.500  20.621  0.00  0.00    +0.000 C 
ATOM     13  C   UNL     1       2.205   3.153  19.901  0.00  0.00    +0.000 C 
ATOM     14  C   UNL     1       2.441   3.467  18.421  0.00  0.00    +0.000 C 
ATOM     15  C   UNL     1       3.542   4.533  18.511  0.00  0.00    +0.000 C 
BRANCH  14  16
ATOM     16  N   UNL     1       1.200   4.011  17.844  0.00  0.00    +0.000 NA
ATOM     17  H   UNL     1       0.532   4.148  18.607  0.00  0.00    +0.000 HD
ATOM     18  H   UNL     1       0.761   3.307  17.251  0.00  0.00    +0.000 HD
ENDBRANCH  14  16
BRANCH  14  19
ATOM     19  C   UNL     1       2.886   2.233  17.612  0.00  0.00    +0.000 C 
BRANCH  19  20
ATOM     20  O   UNL     1       4.004   1.594  18.229  0.00  0.00    +0.000 OA
ATOM     21  H   UNL     1       3.864   0.634  18.167  0.00  0.00    +0.000 HD
ENDBRANCH  19  20
ENDBRANCH  14  19
ENDBRANCH   6  11
BRANCH   1  22
ATOM     22  C   UNL     1      -0.964  12.421  19.710  0.00  0.00    +0.000 C 
BRANCH  22  23
ATOM     23  C   UNL     1      -0.411  13.051  18.424  0.00  0.00    +0.000 C 
BRANCH  23  29
ATOM     24  C   UNL     1       2.657  13.585  18.341  0.00  0.00    +0.000 C 
ATOM     25  N   UNL     1       1.634  14.554  18.641  0.00  0.00    +0.000 N 
ATOM     26  C   UNL     1       1.862  15.860  18.978  0.00  0.00    +0.000 A 
ATOM     27  N   UNL     1       0.743  16.504  19.210  0.00  0.00    +0.000 NA
ATOM     28  C   UNL     1      -0.248  15.577  19.027  0.00  0.00    +0.000 A 
ATOM     29  C   UNL     1       0.276  14.349  18.669  0.00  0.00    +0.000 A 
ENDBRANCH  23  29
ENDBRANCH  22  23
ENDBRANCH   1  22
TORSDOF 7
ENDMDL
MODEL 5
REMARK VINA RESULT:      -7.6      3.062      3.992
REMARK  Name = 
REMARK  8 active torsions:
REMARK  status: ('A' for Active; 'I' for Inactive)
REMARK    1  A    between atoms: C_1  and  N_2
REMARK    2  A    between atoms: C_6  and  C_7
REMARK    3  A    between atoms: C_7  and  C_8
REMARK    4  A    between atoms: C_8  and  C_9
REMARK    5  A    between atoms: C_14  and  C_15
REMARK    6  A    between atoms: C_18  and  N_19
REMARK    7  A    between atoms: C_18  and  C_20
REMARK    8  A    between atoms: C_20  and  O_21
REMARK                            x       y       z     vdW  Elec       q    Type
REMARK                         _______ _______ _______ _____ _____    ______ ____
ROOT
ATOM      1  C   UNL     1      -0.554  10.702  20.251  0.00  0.00    +0.000 C 
ATOM      2  C   UNL     1      -0.063  10.352  21.664  0.00  0.00    +0.000 C 
ATOM      3  C   UNL     1       0.231   8.852  21.783  0.00  0.00    +0.000 C 
ATOM      4  C   UNL     1       1.085   8.324  20.658  0.00  0.00    +0.000 A 
ATOM      5  C   UNL     1       1.728   7.080  20.790  0.00  0.00    +0.000 A 
ATOM      6  C   UNL     1       2.481   6.519  19.739  0.00  0.00    +0.000 A 
ATOM      7  C   UNL     1       2.584   7.244  18.550  0.00  0.00    +0.000 A 
ATOM      8  C   UNL     1       1.952   8.477  18.406  0.00  0.00    +0.000 A 
ATOM      9  C   UNL     1       1.189   9.015  19.447  0.00  0.00    +0.000 A 
ATOM     10  C   UNL     1       0.547  10.358  19.235  0.00  0.00    +0.000 C 
ENDROOT
BRANCH   6  11
ATOM     11  C   UNL     1       3.142   5.165  19.945  0.00  0.00    +0.000 C 
ATOM     12  C   UNL     1       2.260   4.223  20.798  0.00  0.00    +0.000 C 
ATOM     13  C   UNL     1       2.148   2.905  20.027  0.00  0.00    +0.000 C 
ATOM     14  C   UNL     1       2.400   3.272  18.561  0.00  0.00    +0.000 C 
ATOM     15  C   UNL     1       3.510   4.323  18.701  0.00  0.00    +0.000 C 
BRANCH  14  16
ATOM     16  N   UNL     1       1.169   3.848  17.995  0.00  0.00    +0.000 NA
ATOM     17  H   UNL     1       1.283   4.865  17.962  0.00  0.00    +0.000 HD
ATOM     18  H   UNL     1       0.394   3.703  18.641  0.00  0.00    +0.000 HD
ENDBRANCH  14  16
BRANCH  14  19
ATOM     19  C   UNL     1       2.841   2.065  17.710  0.00  0.00    +0.000 C 
BRANCH  19  20
ATOM     20  O   UNL     1       4.264   1.934  17.708  0.00  0.00    +0.000 OA
ATOM     21  H   UNL     1       4.539   1.746  16.796  0.00  0.00    +0.000 HD
ENDBRANCH  19  20
ENDBRANCH  14  19
ENDBRANCH   6  11
BRANCH   1  22
ATOM     22  C   UNL     1      -0.960  12.189  20.145  0.00  0.00    +0.000 C 
BRANCH  22  23
ATOM     23  C   UNL     1      -1.575  12.536  18.782  0.00  0.00    +0.000 C 
BRANCH  23  29
ATOM     24  C   UNL     1      -2.471  10.467  16.633  0.00  0.00    +0.000 C 
ATOM     25  N   UNL     1      -3.312  11.065  17.638  0.00  0.00    +0.000 N 
ATOM     26  C   UNL     1      -4.654  10.841  17.776  0.00  0.00    +0.000 A 
ATOM     27  N   UNL     1      -5.162  11.531  18.770  0.00  0.00    +0.000 NA
ATOM     28  C   UNL     1      -4.109  12.236  19.289  0.00  0.00    +0.000 A 
ATOM     29  C   UNL     1      -2.939  11.966  18.606  0.00  0.00    +0.000 A 
ENDBRANCH  23  29
ENDBRANCH  22  23
ENDBRANCH   1  22
TORSDOF 7
ENDMDL
MODEL 6
REMARK VINA RESULT:      -7.6      3.563      4.488
REMARK  Name = 
REMARK  8 active torsions:
REMARK  status: ('A' for Active; 'I' for Inactive)
REMARK    1  A    between atoms: C_1  and  N_2
REMARK    2  A    between atoms: C_6  and  C_7
REMARK    3  A    between atoms: C_7  and  C_8
REMARK    4  A    between atoms: C_8  and  C_9
REMARK    5  A    between atoms: C_14  and  C_15
REMARK    6  A    between atoms: C_18  and  N_19
REMARK    7  A    between atoms: C_18  and  C_20
REMARK    8  A    between atoms: C_20  and  O_21
REMARK                            x       y       z     vdW  Elec       q    Type
REMARK                         _______ _______ _______ _____ _____    ______ ____
ROOT
ATOM      1  C   UNL     1      -0.329  10.238  20.337  0.00  0.00    +0.000 C 
ATOM      2  C   UNL     1       0.366   9.698  21.596  0.00  0.00    +0.000 C 
ATOM      3  C   UNL     1       0.827   8.251  21.386  0.00  0.00    +0.000 C 
ATOM      4  C   UNL     1       1.585   8.050  20.098  0.00  0.00    +0.000 A 
ATOM      5  C   UNL     1       2.365   6.895  19.916  0.00  0.00    +0.000 A 
ATOM      6  C   UNL     1       3.037   6.636  18.704  0.00  0.00    +0.000 A 
ATOM      7  C   UNL     1       2.918   7.576  17.678  0.00  0.00    +0.000 A 
ATOM      8  C   UNL     1       2.148   8.724  17.845  0.00  0.00    +0.000 A 
ATOM      9  C   UNL     1       1.467   8.961  19.044  0.00  0.00    +0.000 A 
ATOM     10  C   UNL     1       0.669  10.229  19.167  0.00  0.00    +0.000 C 
ENDROOT
BRANCH   6  11
ATOM     11  C   UNL     1       3.856   5.361  18.571  0.00  0.00    +0.000 C 
ATOM     12  C   UNL     1       3.508   4.591  17.275  0.00  0.00    +0.000 C 
ATOM     13  C   UNL     1       4.832   4.300  16.566  0.00  0.00    +0.000 C 
ATOM     14  C   UNL     1       5.805   5.369  17.071  0.00  0.00    +0.000 C 
ATOM     15  C   UNL     1       5.398   5.471  18.548  0.00  0.00    +0.000 C 
BRANCH  14  16
ATOM     16  N   UNL     1       5.554   6.625  16.346  0.00  0.00    +0.000 NA
ATOM     17  H   UNL     1       4.556   6.838  16.422  0.00  0.00    +0.000 HD
ATOM     18  H   UNL     1       5.705   6.480  15.348  0.00  0.00    +0.000 HD
ENDBRANCH  14  16
BRANCH  14  19
ATOM     19  C   UNL     1       7.282   4.962  16.898  0.00  0.00    +0.000 C 
BRANCH  19  20
ATOM     20  O   UNL     1       7.738   4.205  18.020  0.00  0.00    +0.000 OA
ATOM     21  H   UNL     1       8.426   4.727  18.466  0.00  0.00    +0.000 HD
ENDBRANCH  19  20
ENDBRANCH  14  19
ENDBRANCH   6  11
BRANCH   1  22
ATOM     22  C   UNL     1      -0.897  11.656  20.568  0.00  0.00    +0.000 C 
BRANCH  22  23
ATOM     23  C   UNL     1      -1.325  12.340  19.262  0.00  0.00    +0.000 C 
BRANCH  23  29
ATOM     24  C   UNL     1      -4.152  13.043  20.367  0.00  0.00    +0.000 C 
ATOM     25  N   UNL     1      -3.866  12.154  19.270  0.00  0.00    +0.000 N 
ATOM     26  C   UNL     1      -4.801  11.448  18.566  0.00  0.00    +0.000 A 
ATOM     27  N   UNL     1      -4.250  10.711  17.631  0.00  0.00    +0.000 NA
ATOM     28  C   UNL     1      -2.905  10.941  17.741  0.00  0.00    +0.000 A 
ATOM     29  C   UNL     1      -2.632  11.840  18.754  0.00  0.00    +0.000 A 
ENDBRANCH  23  29
ENDBRANCH  22  23
ENDBRANCH   1  22
TORSDOF 7
ENDMDL
MODEL 7
REMARK VINA RESULT:      -7.6      3.904      9.070
REMARK  Name = 
REMARK  8 active torsions:
REMARK  status: ('A' for Active; 'I' for Inactive)
REMARK    1  A    between atoms: C_1  and  N_2
REMARK    2  A    between atoms: C_6  and  C_7
REMARK    3  A    between atoms: C_7  and  C_8
REMARK    4  A    between atoms: C_8  and  C_9
REMARK    5  A    between atoms: C_14  and  C_15
REMARK    6  A    between atoms: C_18  and  N_19
REMARK    7  A    between atoms: C_18  and  C_20
REMARK    8  A    between atoms: C_20  and  O_21
REMARK                            x       y       z     vdW  Elec       q    Type
REMARK                         _______ _______ _______ _____ _____    ______ ____
ROOT
ATOM      1  C   UNL     1       3.375   5.570  18.234  0.00  0.00    +0.000 C 
ATOM      2  C   UNL     1       3.951   6.770  17.466  0.00  0.00    +0.000 C 
ATOM      3  C   UNL     1       2.902   7.878  17.320  0.00  0.00    +0.000 C 
ATOM      4  C   UNL     1       2.212   8.218  18.617  0.00  0.00    +0.000 A 
ATOM      5  C   UNL     1       1.493   9.420  18.735  0.00  0.00    +0.000 A 
ATOM      6  C   UNL     1       0.780   9.747  19.907  0.00  0.00    +0.000 A 
ATOM      7  C   UNL     1       0.816   8.839  20.967  0.00  0.00    +0.000 A 
ATOM      8  C   UNL     1       1.524   7.644  20.863  0.00  0.00    +0.000 A 
ATOM      9  C   UNL     1       2.210   7.319  19.688  0.00  0.00    +0.000 A 
ATOM     10  C   UNL     1       2.971   6.023  19.646  0.00  0.00    +0.000 C 
ENDROOT
BRANCH   6  11
ATOM     11  C   UNL     1       0.015  11.060  19.964  0.00  0.00    +0.000 C 
ATOM     12  C   UNL     1       0.360  11.974  18.764  0.00  0.00    +0.000 C 
ATOM     13  C   UNL     1      -0.970  12.407  18.142  0.00  0.00    +0.000 C 
ATOM     14  C   UNL     1      -1.975  11.322  18.542  0.00  0.00    +0.000 C 
ATOM     15  C   UNL     1      -1.531  11.016  19.979  0.00  0.00    +0.000 C 
BRANCH  14  16
ATOM     16  N   UNL     1      -1.801  10.160  17.656  0.00  0.00    +0.000 NA
ATOM     17  H   UNL     1      -1.374  10.489  16.786  0.00  0.00    +0.000 HD
ATOM     18  H   UNL     1      -2.713   9.807  17.370  0.00  0.00    +0.000 HD
ENDBRANCH  14  16
BRANCH  14  19
ATOM     19  C   UNL     1      -3.437  11.807  18.472  0.00  0.00    +0.000 C 
BRANCH  19  20
ATOM     20  O   UNL     1      -3.691  12.808  19.459  0.00  0.00    +0.000 OA
ATOM     21  H   UNL     1      -2.979  12.756  20.119  0.00  0.00    +0.000 HD
ENDBRANCH  19  20
ENDBRANCH  14  19
ENDBRANCH   6  11
BRANCH   1  22
ATOM     22  C   UNL     1       4.381   4.400  18.294  0.00  0.00    +0.000 C 
BRANCH  22  23
ATOM     23  C   UNL     1       3.690   3.031  18.360  0.00  0.00    +0.000 C 
BRANCH  23  29
ATOM     24  C   UNL     1       0.643   2.737  18.938  0.00  0.00    +0.000 C 
ATOM     25  N   UNL     1       1.703   2.663  19.911  0.00  0.00    +0.000 N 
ATOM     26  C   UNL     1       1.526   2.490  21.255  0.00  0.00    +0.000 A 
ATOM     27  N   UNL     1       2.669   2.473  21.898  0.00  0.00    +0.000 NA
ATOM     28  C   UNL     1       3.624   2.653  20.933  0.00  0.00    +0.000 A 
ATOM     29  C   UNL     1       3.053   2.773  19.681  0.00  0.00    +0.000 A 
ENDBRANCH  23  29
ENDBRANCH  22  23
ENDBRANCH   1  22
TORSDOF 7
ENDMDL
MODEL 8
REMARK VINA RESULT:      -7.6      3.656      4.702
REMARK  Name = 
REMARK  8 active torsions:
REMARK  status: ('A' for Active; 'I' for Inactive)
REMARK    1  A    between atoms: C_1  and  N_2
REMARK    2  A    between atoms: C_6  and  C_7
REMARK    3  A    between atoms: C_7  and  C_8
REMARK    4  A    between atoms: C_8  and  C_9
REMARK    5  A    between atoms: C_14  and  C_15
REMARK    6  A    between atoms: C_18  and  N_19
REMARK    7  A    between atoms: C_18  and  C_20
REMARK    8  A    between atoms: C_20  and  O_21
REMARK                            x       y       z     vdW  Elec       q    Type
REMARK                         _______ _______ _______ _____ _____    ______ ____
ROOT
ATOM      1  C   UNL     1      -0.128   9.848  20.279  0.00  0.00    +0.000 C 
ATOM      2  C   UNL     1       0.542   9.256  21.528  0.00  0.00    +0.000 C 
ATOM      3  C   UNL     1       1.053   7.837  21.252  0.00  0.00    +0.000 C 
ATOM      4  C   UNL     1       1.860   7.733  19.982  0.00  0.00    +0.000 A 
ATOM      5  C   UNL     1       2.680   6.613  19.762  0.00  0.00    +0.000 A 
ATOM      6  C   UNL     1       3.400   6.445  18.561  0.00  0.00    +0.000 A 
ATOM      7  C   UNL     1       3.285   7.439  17.586  0.00  0.00    +0.000 A 
ATOM      8  C   UNL     1       2.476   8.553  17.792  0.00  0.00    +0.000 A 
ATOM      9  C   UNL     1       1.748   8.700  18.978  0.00  0.00    +0.000 A 
ATOM     10  C   UNL     1       0.908   9.935  19.146  0.00  0.00    +0.000 C 
ENDROOT
BRANCH   6  11
ATOM     11  C   UNL     1       4.261   5.204  18.384  0.00  0.00    +0.000 C 
ATOM     12  C   UNL     1       3.650   4.227  17.352  0.00  0.00    +0.000 C 
ATOM     13  C   UNL     1       4.760   3.891  16.353  0.00  0.00    +0.000 C 
ATOM     14  C   UNL     1       5.736   5.069  16.421  0.00  0.00    +0.000 C 
ATOM     15  C   UNL     1       5.727   5.380  17.924  0.00  0.00    +0.000 C 
BRANCH  14  16
ATOM     16  N   UNL     1       5.194   6.185  15.628  0.00  0.00    +0.000 NA
ATOM     17  H   UNL     1       5.436   6.021  14.647  0.00  0.00    +0.000 HD
ATOM     18  H   UNL     1       5.685   7.045  15.867  0.00  0.00    +0.000 HD
ENDBRANCH  14  16
BRANCH  14  19
ATOM     19  C   UNL     1       7.144   4.709  15.906  0.00  0.00    +0.000 C 
BRANCH  19  20
ATOM     20  O   UNL     1       7.707   5.790  15.160  0.00  0.00    +0.000 OA
ATOM     21  H   UNL     1       8.108   6.406  15.795  0.00  0.00    +0.000 HD
ENDBRANCH  19  20
ENDBRANCH  14  19
ENDBRANCH   6  11
BRANCH   1  22
ATOM     22  C   UNL     1      -0.747  11.233  20.571  0.00  0.00    +0.000 C 
BRANCH  22  23
ATOM     23  C   UNL     1      -1.155  11.977  19.292  0.00  0.00    +0.000 C 
BRANCH  23  29
ATOM     24  C   UNL     1      -2.164  10.083  17.034  0.00  0.00    +0.000 C 
ATOM     25  N   UNL     1      -2.989  10.893  17.895  0.00  0.00    +0.000 N 
ATOM     26  C   UNL     1      -4.351  10.982  17.823  0.00  0.00    +0.000 A 
ATOM     27  N   UNL     1      -4.832  11.804  18.724  0.00  0.00    +0.000 NA
ATOM     28  C   UNL     1      -3.738  12.275  19.399  0.00  0.00    +0.000 A 
ATOM     29  C   UNL     1      -2.571  11.722  18.907  0.00  0.00    +0.000 A 
ENDBRANCH  23  29
ENDBRANCH  22  23
ENDBRANCH   1  22
TORSDOF 7
ENDMDL
MODEL 9
REMARK VINA RESULT:      -7.6      3.558      4.479
REMARK  Name = 
REMARK  8 active torsions:
REMARK  status: ('A' for Active; 'I' for Inactive)
REMARK    1  A    between atoms: C_1  and  N_2
REMARK    2  A    between atoms: C_6  and  C_7
REMARK    3  A    between atoms: C_7  and  C_8
REMARK    4  A    between atoms: C_8  and  C_9
REMARK    5  A    between atoms: C_14  and  C_15
REMARK    6  A    between atoms: C_18  and  N_19
REMARK    7  A    between atoms: C_18  and  C_20
REMARK    8  A    between atoms: C_20  and  O_21
REMARK                            x       y       z     vdW  Elec       q    Type
REMARK                         _______ _______ _______ _____ _____    ______ ____
ROOT
ATOM      1  C   UNL     1      -0.196  10.400  20.387  0.00  0.00    +0.000 C 
ATOM      2  C   UNL     1       0.476   9.866  21.661  0.00  0.00    +0.000 C 
ATOM      3  C   UNL     1       0.857   8.390  21.500  0.00  0.00    +0.000 C 
ATOM      4  C   UNL     1       1.597   8.104  20.217  0.00  0.00    +0.000 A 
ATOM      5  C   UNL     1       2.312   6.903  20.072  0.00  0.00    +0.000 A 
ATOM      6  C   UNL     1       2.962   6.567  18.867  0.00  0.00    +0.000 A 
ATOM      7  C   UNL     1       2.887   7.476  17.809  0.00  0.00    +0.000 A 
ATOM      8  C   UNL     1       2.182   8.670  17.939  0.00  0.00    +0.000 A 
ATOM      9  C   UNL     1       1.521   8.984  19.132  0.00  0.00    +0.000 A 
ATOM     10  C   UNL     1       0.793  10.296  19.215  0.00  0.00    +0.000 C 
ENDROOT
BRANCH   6  11
ATOM     11  C   UNL     1       3.710   5.246  18.775  0.00  0.00    +0.000 C 
ATOM     12  C   UNL     1       3.597   4.623  17.363  0.00  0.00    +0.000 C 
ATOM     13  C   UNL     1       5.021   4.287  16.913  0.00  0.00    +0.000 C 
ATOM     14  C   UNL     1       5.929   5.225  17.714  0.00  0.00    +0.000 C 
ATOM     15  C   UNL     1       5.227   5.232  19.079  0.00  0.00    +0.000 C 
BRANCH  14  16
ATOM     16  N   UNL     1       5.914   6.556  17.084  0.00  0.00    +0.000 NA
ATOM     17  H   UNL     1       5.267   7.147  17.613  0.00  0.00    +0.000 HD
ATOM     18  H   UNL     1       5.495   6.492  16.157  0.00  0.00    +0.000 HD
ENDBRANCH  14  16
BRANCH  14  19
ATOM     19  C   UNL     1       7.382   4.716  17.805  0.00  0.00    +0.000 C 
BRANCH  19  20
ATOM     20  O   UNL     1       7.933   4.509  16.504  0.00  0.00    +0.000 OA
ATOM     21  H   UNL     1       7.502   5.135  15.900  0.00  0.00    +0.000 HD
ENDBRANCH  19  20
ENDBRANCH  14  19
ENDBRANCH   6  11
BRANCH   1  22
ATOM     22  C   UNL     1      -0.686  11.853  20.572  0.00  0.00    +0.000 C 
BRANCH  22  23
ATOM     23  C   UNL     1      -0.307  12.433  21.942  0.00  0.00    +0.000 C 
BRANCH  23  29
ATOM     24  C   UNL     1      -0.784  15.159  23.373  0.00  0.00    +0.000 C 
ATOM     25  N   UNL     1      -1.674  14.026  23.385  0.00  0.00    +0.000 N 
ATOM     26  C   UNL     1      -2.857  13.963  24.067  0.00  0.00    +0.000 A 
ATOM     27  N   UNL     1      -3.450  12.804  23.905  0.00  0.00    +0.000 NA
ATOM     28  C   UNL     1      -2.613  12.084  23.095  0.00  0.00    +0.000 A 
ATOM     29  C   UNL     1      -1.495  12.821  22.750  0.00  0.00    +0.000 A 
ENDBRANCH  23  29
ENDBRANCH  22  23
ENDBRANCH   1  22
TORSDOF 7
ENDMDL
