MODEL 1
REMARK VINA RESULT:     -10.5      0.000      0.000
REMARK  Name = 
REMARK  6 active torsions:
REMARK  status: ('A' for Active; 'I' for Inactive)
REMARK    1  A    between atoms: C_1  and  O_2
REMARK    2  A    between atoms: O_2  and  C_3
REMARK    3  A    between atoms: N_11  and  C_12
REMARK    4  A    between atoms: C_12  and  C_13
REMARK    5  A    between atoms: C_13  and  C_14
REMARK    6  A    between atoms: C_15  and  C_16
REMARK                            x       y       z     vdW  Elec       q    Type
REMARK                         _______ _______ _______ _____ _____    ______ ____
ROOT
ATOM      1  C   UNL     1       2.709   3.966  19.996  0.00  0.00    +0.000 C 
ATOM      2  N   UNL     1       1.965   3.442  18.877  0.00  0.00    +0.000 N 
ATOM      3  C   UNL     1       0.845   2.758  19.284  0.00  0.00    +0.000 C 
ATOM      4  O   UNL     1       0.059   2.185  18.552  0.00  0.00    +0.000 OA
ATOM      5  N   UNL     1       0.818   2.738  20.639  0.00  0.00    +0.000 N 
ATOM      6  C   UNL     1       2.003   3.206  21.131  0.00  0.00    +0.000 C 
ATOM      7  O   UNL     1       2.372   3.104  22.293  0.00  0.00    +0.000 OA
ATOM      8  H   UNL     1       2.383   3.215  17.976  0.00  0.00    +0.000 HD
ATOM      9  H   UNL     1       0.155   2.191  21.160  0.00  0.00    +0.000 HD
ENDROOT
BRANCH   1  10
ATOM     10  C   UNL     1       2.292   5.420  20.148  0.00  0.00    +0.000 C 
ATOM     11  C   UNL     1       1.935   6.667  20.279  0.00  0.00    +0.000 C 
BRANCH  11  12
ATOM     12  C   UNL     1       1.541   8.016  20.543  0.00  0.00    +0.000 A 
ATOM     13  C   UNL     1       1.168   8.420  21.813  0.00  0.00    +0.000 A 
ATOM     14  C   UNL     1       0.659   9.713  22.006  0.00  0.00    +0.000 A 
ATOM     15  C   UNL     1       0.514  10.593  20.932  0.00  0.00    +0.000 A 
ATOM     16  N   UNL     1      -0.063  11.851  21.060  0.00  0.00    +0.000 N 
ATOM     17  C   UNL     1      -0.657  12.336  22.301  0.00  0.00    +0.000 C 
ATOM     18  C   UNL     1      -0.560  13.852  22.376  0.00  0.00    +0.000 C 
ATOM     19  C   UNL     1      -1.166  14.485  21.154  0.00  0.00    +0.000 C 
ATOM     20  O   UNL     1      -1.434  15.687  21.132  0.00  0.00    +0.000 OA
ATOM     21  C   UNL     1      -1.481  13.593  19.986  0.00  0.00    +0.000 C 
ATOM     22  C   UNL     1      -0.382  12.555  19.808  0.00  0.00    +0.000 C 
ATOM     23  N   UNL     1       0.946  10.212  19.706  0.00  0.00    +0.000 NA
ATOM     24  C   UNL     1       1.437   8.955  19.534  0.00  0.00    +0.000 A 
ENDBRANCH  11  12
ENDBRANCH   1  10
BRANCH   1  25
ATOM     25  C   UNL     1       4.231   3.847  19.957  0.00  0.00    +0.000 C 
BRANCH  25  34
ATOM     26  C   UNL     1       7.244   5.106  14.891  0.00  0.00    +0.000 A 
ATOM     27  C   UNL     1       6.206   4.379  14.262  0.00  0.00    +0.000 A 
ATOM     28  C   UNL     1       5.163   3.794  15.004  0.00  0.00    +0.000 A 
ATOM     29  C   UNL     1       5.181   3.950  16.382  0.00  0.00    +0.000 A 
ATOM     30  C   UNL     1       6.224   4.646  16.980  0.00  0.00    +0.000 A 
ATOM     31  C   UNL     1       7.253   5.238  16.277  0.00  0.00    +0.000 A 
ATOM     32  C   UNL     1       6.020   4.662  18.417  0.00  0.00    +0.000 C 
ATOM     33  O   UNL     1       6.754   5.175  19.239  0.00  0.00    +0.000 OA
ATOM     34  N   UNL     1       4.828   4.001  18.644  0.00  0.00    +0.000 N 
ATOM     35  C   UNL     1       4.222   3.485  17.426  0.00  0.00    +0.000 C 
BRANCH  26  37
ATOM     36  C   UNL     1       7.995   5.412  12.666  0.00  0.00    +0.000 C 
ATOM     37  O   UNL     1       8.194   5.643  14.060  0.00  0.00    +0.000 OA
ENDBRANCH  26  37
ENDBRANCH  25  34
ENDBRANCH   1  25
TORSDOF 5
ENDMDL
MODEL 2
REMARK VINA RESULT:     -10.4      0.924      1.487
REMARK  Name = 
REMARK  6 active torsions:
REMARK  status: ('A' for Active; 'I' for Inactive)
REMARK    1  A    between atoms: C_1  and  O_2
REMARK    2  A    between atoms: O_2  and  C_3
REMARK    3  A    between atoms: N_11  and  C_12
REMARK    4  A    between atoms: C_12  and  C_13
REMARK    5  A    between atoms: C_13  and  C_14
REMARK    6  A    between atoms: C_15  and  C_16
REMARK                            x       y       z     vdW  Elec       q    Type
REMARK                         _______ _______ _______ _____ _____    ______ ____
ROOT
ATOM      1  C   UNL     1       2.788   3.974  19.915  0.00  0.00    +0.000 C 
ATOM      2  N   UNL     1       2.006   3.323  18.891  0.00  0.00    +0.000 N 
ATOM      3  C   UNL     1       0.877   2.736  19.407  0.00  0.00    +0.000 C 
ATOM      4  O   UNL     1       0.060   2.092  18.774  0.00  0.00    +0.000 OA
ATOM      5  N   UNL     1       0.877   2.903  20.752  0.00  0.00    +0.000 N 
ATOM      6  C   UNL     1       2.083   3.398  21.155  0.00  0.00    +0.000 C 
ATOM      7  O   UNL     1       2.473   3.445  22.314  0.00  0.00    +0.000 OA
ATOM      8  H   UNL     1       2.400   2.962  18.023  0.00  0.00    +0.000 HD
ATOM      9  H   UNL     1       0.209   2.454  21.353  0.00  0.00    +0.000 HD
ENDROOT
BRANCH   1  10
ATOM     10  C   UNL     1       2.414   5.446  19.872  0.00  0.00    +0.000 C 
ATOM     11  C   UNL     1       2.093   6.709  19.836  0.00  0.00    +0.000 C 
BRANCH  11  12
ATOM     12  C   UNL     1       1.634   8.061  19.751  0.00  0.00    +0.000 A 
ATOM     13  C   UNL     1       1.707   8.771  18.565  0.00  0.00    +0.000 A 
ATOM     14  C   UNL     1       1.373  10.133  18.553  0.00  0.00    +0.000 A 
ATOM     15  C   UNL     1       0.979  10.784  19.724  0.00  0.00    +0.000 A 
ATOM     16  N   UNL     1       0.721  12.149  19.778  0.00  0.00    +0.000 N 
ATOM     17  C   UNL     1       0.927  13.047  18.647  0.00  0.00    +0.000 C 
ATOM     18  C   UNL     1      -0.029  14.226  18.727  0.00  0.00    +0.000 C 
ATOM     19  C   UNL     1       0.095  14.923  20.055  0.00  0.00    +0.000 C 
ATOM     20  O   UNL     1      -0.383  16.045  20.227  0.00  0.00    +0.000 OA
ATOM     21  C   UNL     1       0.865  14.227  21.141  0.00  0.00    +0.000 C 
ATOM     22  C   UNL     1       0.570  12.734  21.119  0.00  0.00    +0.000 C 
ATOM     23  N   UNL     1       0.845  10.064  20.863  0.00  0.00    +0.000 NA
ATOM     24  C   UNL     1       1.171   8.745  20.860  0.00  0.00    +0.000 A 
ENDBRANCH  11  12
ENDBRANCH   1  10
BRANCH   1  25
ATOM     25  C   UNL     1       4.304   3.804  19.868  0.00  0.00    +0.000 C 
BRANCH  25  34
ATOM     26  C   UNL     1       7.310   5.067  14.798  0.00  0.00    +0.000 A 
ATOM     27  C   UNL     1       6.281   4.325  14.173  0.00  0.00    +0.000 A 
ATOM     28  C   UNL     1       5.244   3.732  14.916  0.00  0.00    +0.000 A 
ATOM     29  C   UNL     1       5.259   3.897  16.293  0.00  0.00    +0.000 A 
ATOM     30  C   UNL     1       6.293   4.608  16.889  0.00  0.00    +0.000 A 
ATOM     31  C   UNL     1       7.315   5.208  16.183  0.00  0.00    +0.000 A 
ATOM     32  C   UNL     1       6.086   4.630  18.325  0.00  0.00    +0.000 C 
ATOM     33  O   UNL     1       6.813   5.157  19.145  0.00  0.00    +0.000 OA
ATOM     34  N   UNL     1       4.902   3.957  18.555  0.00  0.00    +0.000 N 
ATOM     35  C   UNL     1       4.303   3.427  17.339  0.00  0.00    +0.000 C 
BRANCH  26  37
ATOM     36  C   UNL     1       7.962   5.539  12.571  0.00  0.00    +0.000 C 
ATOM     37  O   UNL     1       8.255   5.610  13.965  0.00  0.00    +0.000 OA
ENDBRANCH  26  37
ENDBRANCH  25  34
ENDBRANCH   1  25
TORSDOF 5
ENDMDL
MODEL 3
REMARK VINA RESULT:     -10.2      1.085      1.463
REMARK  Name = 
REMARK  6 active torsions:
REMARK  status: ('A' for Active; 'I' for Inactive)
REMARK    1  A    between atoms: C_1  and  O_2
REMARK    2  A    between atoms: O_2  and  C_3
REMARK    3  A    between atoms: N_11  and  C_12
REMARK    4  A    between atoms: C_12  and  C_13
REMARK    5  A    between atoms: C_13  and  C_14
REMARK    6  A    between atoms: C_15  and  C_16
REMARK                            x       y       z     vdW  Elec       q    Type
REMARK                         _______ _______ _______ _____ _____    ______ ____
ROOT
ATOM      1  C   UNL     1       2.578   4.267  20.058  0.00  0.00    +0.000 C 
ATOM      2  N   UNL     1       1.857   3.770  18.910  0.00  0.00    +0.000 N 
ATOM      3  C   UNL     1       0.781   3.000  19.279  0.00  0.00    +0.000 C 
ATOM      4  O   UNL     1       0.023   2.429  18.516  0.00  0.00    +0.000 OA
ATOM      5  N   UNL     1       0.764   2.897  20.631  0.00  0.00    +0.000 N 
ATOM      6  C   UNL     1       1.923   3.400  21.146  0.00  0.00    +0.000 C 
ATOM      7  O   UNL     1       2.305   3.249  22.299  0.00  0.00    +0.000 OA
ATOM      8  H   UNL     1       2.282   3.621  17.996  0.00  0.00    +0.000 HD
ATOM      9  H   UNL     1       0.136   2.283  21.119  0.00  0.00    +0.000 HD
ENDROOT
BRANCH   1  10
ATOM     10  C   UNL     1       2.081   5.683  20.299  0.00  0.00    +0.000 C 
ATOM     11  C   UNL     1       1.655   6.897  20.506  0.00  0.00    +0.000 C 
BRANCH  11  12
ATOM     12  C   UNL     1       1.227   8.218  20.847  0.00  0.00    +0.000 A 
ATOM     13  C   UNL     1       0.833   8.535  22.136  0.00  0.00    +0.000 A 
ATOM     14  C   UNL     1       0.292   9.801  22.402  0.00  0.00    +0.000 A 
ATOM     15  C   UNL     1       0.137  10.743  21.383  0.00  0.00    +0.000 A 
ATOM     16  N   UNL     1      -0.471  11.977  21.581  0.00  0.00    +0.000 N 
ATOM     17  C   UNL     1      -1.087  12.370  22.843  0.00  0.00    +0.000 C 
ATOM     18  C   UNL     1      -1.026  13.881  23.012  0.00  0.00    +0.000 C 
ATOM     19  C   UNL     1      -1.637  14.573  21.825  0.00  0.00    +0.000 C 
ATOM     20  O   UNL     1      -1.932  15.769  21.874  0.00  0.00    +0.000 OA
ATOM     21  C   UNL     1      -1.920  13.749  20.601  0.00  0.00    +0.000 C 
ATOM     22  C   UNL     1      -0.795  12.749  20.372  0.00  0.00    +0.000 C 
ATOM     23  N   UNL     1       0.589  10.447  20.141  0.00  0.00    +0.000 NA
ATOM     24  C   UNL     1       1.111   9.215  19.897  0.00  0.00    +0.000 A 
ENDBRANCH  11  12
ENDBRANCH   1  10
BRANCH   1  25
ATOM     25  C   UNL     1       4.104   4.236  20.007  0.00  0.00    +0.000 C 
BRANCH  25  34
ATOM     26  C   UNL     1       6.354   4.143  14.416  0.00  0.00    +0.000 A 
ATOM     27  C   UNL     1       6.849   5.426  14.747  0.00  0.00    +0.000 A 
ATOM     28  C   UNL     1       6.597   6.011  16.001  0.00  0.00    +0.000 A 
ATOM     29  C   UNL     1       5.842   5.289  16.913  0.00  0.00    +0.000 A 
ATOM     30  C   UNL     1       5.345   4.041  16.557  0.00  0.00    +0.000 A 
ATOM     31  C   UNL     1       5.585   3.440  15.340  0.00  0.00    +0.000 A 
ATOM     32  C   UNL     1       4.587   3.499  17.670  0.00  0.00    +0.000 C 
ATOM     33  O   UNL     1       4.007   2.430  17.688  0.00  0.00    +0.000 OA
ATOM     34  N   UNL     1       4.681   4.426  18.690  0.00  0.00    +0.000 N 
ATOM     35  C   UNL     1       5.434   5.613  18.312  0.00  0.00    +0.000 C 
BRANCH  26  37
ATOM     36  C   UNL     1       5.579   3.352  12.323  0.00  0.00    +0.000 C 
ATOM     37  O   UNL     1       6.681   3.673  13.169  0.00  0.00    +0.000 OA
ENDBRANCH  26  37
ENDBRANCH  25  34
ENDBRANCH   1  25
TORSDOF 5
ENDMDL
MODEL 4
REMARK VINA RESULT:     -10.2      1.330      2.024
REMARK  Name = 
REMARK  6 active torsions:
REMARK  status: ('A' for Active; 'I' for Inactive)
REMARK    1  A    between atoms: C_1  and  O_2
REMARK    2  A    between atoms: O_2  and  C_3
REMARK    3  A    between atoms: N_11  and  C_12
REMARK    4  A    between atoms: C_12  and  C_13
REMARK    5  A    between atoms: C_13  and  C_14
REMARK    6  A    between atoms: C_15  and  C_16
REMARK                            x       y       z     vdW  Elec       q    Type
REMARK                         _______ _______ _______ _____ _____    ______ ____
ROOT
ATOM      1  C   UNL     1       2.728   3.979  19.969  0.00  0.00    +0.000 C 
ATOM      2  N   UNL     1       1.941   3.348  18.937  0.00  0.00    +0.000 N 
ATOM      3  C   UNL     1       0.811   2.756  19.447  0.00  0.00    +0.000 C 
ATOM      4  O   UNL     1      -0.010   2.125  18.806  0.00  0.00    +0.000 OA
ATOM      5  N   UNL     1       0.816   2.901  20.795  0.00  0.00    +0.000 N 
ATOM      6  C   UNL     1       2.026   3.385  21.202  0.00  0.00    +0.000 C 
ATOM      7  O   UNL     1       2.420   3.411  22.360  0.00  0.00    +0.000 OA
ATOM      8  H   UNL     1       2.331   2.999  18.062  0.00  0.00    +0.000 HD
ATOM      9  H   UNL     1       0.149   2.443  21.391  0.00  0.00    +0.000 HD
ENDROOT
BRANCH   1  10
ATOM     10  C   UNL     1       2.359   5.453  19.952  0.00  0.00    +0.000 C 
ATOM     11  C   UNL     1       2.042   6.717  19.937  0.00  0.00    +0.000 C 
BRANCH  11  12
ATOM     12  C   UNL     1       1.608   8.076  19.841  0.00  0.00    +0.000 A 
ATOM     13  C   UNL     1       1.708   8.780  18.653  0.00  0.00    +0.000 A 
ATOM     14  C   UNL     1       1.398  10.148  18.632  0.00  0.00    +0.000 A 
ATOM     15  C   UNL     1       1.001  10.811  19.795  0.00  0.00    +0.000 A 
ATOM     16  N   UNL     1       0.767  12.180  19.841  0.00  0.00    +0.000 N 
ATOM     17  C   UNL     1       1.003  13.069  18.709  0.00  0.00    +0.000 C 
ATOM     18  C   UNL     1       0.066  14.266  18.773  0.00  0.00    +0.000 C 
ATOM     19  C   UNL     1       0.187  14.965  20.099  0.00  0.00    +0.000 C 
ATOM     20  O   UNL     1      -0.273  16.097  20.261  0.00  0.00    +0.000 OA
ATOM     21  C   UNL     1       0.932  14.261  21.198  0.00  0.00    +0.000 C 
ATOM     22  C   UNL     1       0.611  12.773  21.178  0.00  0.00    +0.000 C 
ATOM     23  N   UNL     1       0.841  10.098  20.936  0.00  0.00    +0.000 NA
ATOM     24  C   UNL     1       1.145   8.773  20.942  0.00  0.00    +0.000 A 
ENDBRANCH  11  12
ENDBRANCH   1  10
BRANCH   1  25
ATOM     25  C   UNL     1       4.244   3.805  19.915  0.00  0.00    +0.000 C 
BRANCH  25  34
ATOM     26  C   UNL     1       6.576   4.475  14.397  0.00  0.00    +0.000 A 
ATOM     27  C   UNL     1       7.188   5.624  14.950  0.00  0.00    +0.000 A 
ATOM     28  C   UNL     1       6.971   6.001  16.288  0.00  0.00    +0.000 A 
ATOM     29  C   UNL     1       6.133   5.208  17.057  0.00  0.00    +0.000 A 
ATOM     30  C   UNL     1       5.522   4.098  16.486  0.00  0.00    +0.000 A 
ATOM     31  C   UNL     1       5.725   3.700  15.181  0.00  0.00    +0.000 A 
ATOM     32  C   UNL     1       4.695   3.446  17.484  0.00  0.00    +0.000 C 
ATOM     33  O   UNL     1       4.013   2.454  17.313  0.00  0.00    +0.000 OA
ATOM     34  N   UNL     1       4.861   4.166  18.652  0.00  0.00    +0.000 N 
ATOM     35  C   UNL     1       5.732   5.320  18.491  0.00  0.00    +0.000 C 
BRANCH  26  37
ATOM     36  C   UNL     1       5.991   3.303  12.424  0.00  0.00    +0.000 C 
ATOM     37  O   UNL     1       6.878   4.202  13.087  0.00  0.00    +0.000 OA
ENDBRANCH  26  37
ENDBRANCH  25  34
ENDBRANCH   1  25
TORSDOF 5
ENDMDL
MODEL 5
REMARK VINA RESULT:      -9.8      1.294      1.918
REMARK  Name = 
REMARK  6 active torsions:
REMARK  status: ('A' for Active; 'I' for Inactive)
REMARK    1  A    between atoms: C_1  and  O_2
REMARK    2  A    between atoms: O_2  and  C_3
REMARK    3  A    between atoms: N_11  and  C_12
REMARK    4  A    between atoms: C_12  and  C_13
REMARK    5  A    between atoms: C_13  and  C_14
REMARK    6  A    between atoms: C_15  and  C_16
REMARK                            x       y       z     vdW  Elec       q    Type
REMARK                         _______ _______ _______ _____ _____    ______ ____
ROOT
ATOM      1  C   UNL     1       2.570   4.439  20.064  0.00  0.00    +0.000 C 
ATOM      2  N   UNL     1       1.847   3.824  18.977  0.00  0.00    +0.000 N 
ATOM      3  C   UNL     1       0.820   3.033  19.431  0.00  0.00    +0.000 C 
ATOM      4  O   UNL     1       0.074   2.370  18.733  0.00  0.00    +0.000 OA
ATOM      5  N   UNL     1       0.841   3.029  20.786  0.00  0.00    +0.000 N 
ATOM      6  C   UNL     1       1.985   3.625  21.231  0.00  0.00    +0.000 C 
ATOM      7  O   UNL     1       2.402   3.580  22.381  0.00  0.00    +0.000 OA
ATOM      8  H   UNL     1       2.257   3.628  18.065  0.00  0.00    +0.000 HD
ATOM      9  H   UNL     1       0.257   2.424  21.335  0.00  0.00    +0.000 HD
ENDROOT
BRANCH   1  10
ATOM     10  C   UNL     1       2.008   5.844  20.215  0.00  0.00    +0.000 C 
ATOM     11  C   UNL     1       1.526   7.047  20.345  0.00  0.00    +0.000 C 
BRANCH  11  12
ATOM     12  C   UNL     1       0.898   8.318  20.537  0.00  0.00    +0.000 A 
ATOM     13  C   UNL     1       1.125   9.370  19.666  0.00  0.00    +0.000 A 
ATOM     14  C   UNL     1       0.601  10.637  19.962  0.00  0.00    +0.000 A 
ATOM     15  C   UNL     1      -0.138  10.853  21.127  0.00  0.00    +0.000 A 
ATOM     16  N   UNL     1      -0.604  12.107  21.503  0.00  0.00    +0.000 N 
ATOM     17  C   UNL     1      -0.289  13.329  20.772  0.00  0.00    +0.000 C 
ATOM     18  C   UNL     1      -1.407  14.348  20.938  0.00  0.00    +0.000 C 
ATOM     19  C   UNL     1      -1.687  14.596  22.395  0.00  0.00    +0.000 C 
ATOM     20  O   UNL     1      -2.355  15.567  22.753  0.00  0.00    +0.000 OA
ATOM     21  C   UNL     1      -1.082  13.652  23.396  0.00  0.00    +0.000 C 
ATOM     22  C   UNL     1      -1.136  12.225  22.869  0.00  0.00    +0.000 C 
ATOM     23  N   UNL     1      -0.412   9.802  21.936  0.00  0.00    +0.000 NA
ATOM     24  C   UNL     1       0.103   8.579  21.637  0.00  0.00    +0.000 A 
ENDBRANCH  11  12
ENDBRANCH   1  10
BRANCH   1  25
ATOM     25  C   UNL     1       4.093   4.479  19.974  0.00  0.00    +0.000 C 
BRANCH  25  34
ATOM     26  C   UNL     1       6.242   4.044  14.359  0.00  0.00    +0.000 A 
ATOM     27  C   UNL     1       6.634   5.388  14.557  0.00  0.00    +0.000 A 
ATOM     28  C   UNL     1       6.356   6.066  15.758  0.00  0.00    +0.000 A 
ATOM     29  C   UNL     1       5.681   5.374  16.752  0.00  0.00    +0.000 A 
ATOM     30  C   UNL     1       5.283   4.062  16.526  0.00  0.00    +0.000 A 
ATOM     31  C   UNL     1       5.551   3.371  15.363  0.00  0.00    +0.000 A 
ATOM     32  C   UNL     1       4.594   3.566  17.704  0.00  0.00    +0.000 C 
ATOM     33  O   UNL     1       4.106   2.461  17.835  0.00  0.00    +0.000 OA
ATOM     34  N   UNL     1       4.629   4.591  18.630  0.00  0.00    +0.000 N 
ATOM     35  C   UNL     1       5.272   5.794  18.125  0.00  0.00    +0.000 C 
BRANCH  26  37
ATOM     36  C   UNL     1       5.539   3.422  12.185  0.00  0.00    +0.000 C 
ATOM     37  O   UNL     1       6.584   3.487  13.153  0.00  0.00    +0.000 OA
ENDBRANCH  26  37
ENDBRANCH  25  34
ENDBRANCH   1  25
TORSDOF 5
ENDMDL
MODEL 6
REMARK VINA RESULT:      -9.0      2.380      3.058
REMARK  Name = 
REMARK  6 active torsions:
REMARK  status: ('A' for Active; 'I' for Inactive)
REMARK    1  A    between atoms: C_1  and  O_2
REMARK    2  A    between atoms: O_2  and  C_3
REMARK    3  A    between atoms: N_11  and  C_12
REMARK    4  A    between atoms: C_12  and  C_13
REMARK    5  A    between atoms: C_13  and  C_14
REMARK    6  A    between atoms: C_15  and  C_16
REMARK                            x       y       z     vdW  Elec       q    Type
REMARK                         _______ _______ _______ _____ _____    ______ ____
ROOT
ATOM      1  C   UNL     1       3.406   3.928  18.037  0.00  0.00    +0.000 C 
ATOM      2  N   UNL     1       2.245   3.239  17.527  0.00  0.00    +0.000 N 
ATOM      3  C   UNL     1       1.744   2.342  18.439  0.00  0.00    +0.000 C 
ATOM      4  O   UNL     1       0.793   1.603  18.257  0.00  0.00    +0.000 OA
ATOM      5  N   UNL     1       2.545   2.340  19.532  0.00  0.00    +0.000 N 
ATOM      6  C   UNL     1       3.679   3.056  19.274  0.00  0.00    +0.000 C 
ATOM      7  O   UNL     1       4.686   3.054  19.969  0.00  0.00    +0.000 OA
ATOM      8  H   UNL     1       2.067   3.090  16.535  0.00  0.00    +0.000 HD
ATOM      9  H   UNL     1       2.442   1.675  20.278  0.00  0.00    +0.000 HD
ENDROOT
BRANCH   1  10
ATOM     10  C   UNL     1       2.915   5.264  18.571  0.00  0.00    +0.000 C 
ATOM     11  C   UNL     1       2.494   6.409  19.030  0.00  0.00    +0.000 C 
BRANCH  11  12
ATOM     12  C   UNL     1       1.946   7.604  19.593  0.00  0.00    +0.000 A 
ATOM     13  C   UNL     1       1.528   7.650  20.912  0.00  0.00    +0.000 A 
ATOM     14  C   UNL     1       0.872   8.794  21.390  0.00  0.00    +0.000 A 
ATOM     15  C   UNL     1       0.627   9.883  20.550  0.00  0.00    +0.000 A 
ATOM     16  N   UNL     1      -0.092  11.001  20.954  0.00  0.00    +0.000 N 
ATOM     17  C   UNL     1      -0.739  11.107  22.257  0.00  0.00    +0.000 C 
ATOM     18  C   UNL     1      -0.819  12.562  22.691  0.00  0.00    +0.000 C 
ATOM     19  C   UNL     1      -1.494  13.395  21.636  0.00  0.00    +0.000 C 
ATOM     20  O   UNL     1      -1.900  14.530  21.890  0.00  0.00    +0.000 OA
ATOM     21  C   UNL     1      -1.702  12.777  20.282  0.00  0.00    +0.000 C 
ATOM     22  C   UNL     1      -0.490  11.941  19.895  0.00  0.00    +0.000 C 
ATOM     23  N   UNL     1       1.101   9.854  19.281  0.00  0.00    +0.000 NA
ATOM     24  C   UNL     1       1.735   8.738  18.832  0.00  0.00    +0.000 A 
ENDBRANCH  11  12
ENDBRANCH   1  10
BRANCH   1  25
ATOM     25  C   UNL     1       4.586   4.132  17.089  0.00  0.00    +0.000 C 
BRANCH  25  34
ATOM     26  C   UNL     1       8.045   9.004  17.883  0.00  0.00    +0.000 A 
ATOM     27  C   UNL     1       8.728   8.191  18.817  0.00  0.00    +0.000 A 
ATOM     28  C   UNL     1       8.321   6.870  19.080  0.00  0.00    +0.000 A 
ATOM     29  C   UNL     1       7.220   6.382  18.391  0.00  0.00    +0.000 A 
ATOM     30  C   UNL     1       6.549   7.207  17.497  0.00  0.00    +0.000 A 
ATOM     31  C   UNL     1       6.932   8.501  17.213  0.00  0.00    +0.000 A 
ATOM     32  C   UNL     1       5.438   6.473  16.918  0.00  0.00    +0.000 C 
ATOM     33  O   UNL     1       4.640   6.903  16.109  0.00  0.00    +0.000 OA
ATOM     34  N   UNL     1       5.494   5.202  17.456  0.00  0.00    +0.000 N 
ATOM     35  C   UNL     1       6.570   5.039  18.423  0.00  0.00    +0.000 C 
BRANCH  26  37
ATOM     36  C   UNL     1       9.676  10.604  18.505  0.00  0.00    +0.000 C 
ATOM     37  O   UNL     1       8.547  10.268  17.701  0.00  0.00    +0.000 OA
ENDBRANCH  26  37
ENDBRANCH  25  34
ENDBRANCH   1  25
TORSDOF 5
ENDMDL
MODEL 7
REMARK VINA RESULT:      -9.0      2.270      3.163
REMARK  Name = 
REMARK  6 active torsions:
REMARK  status: ('A' for Active; 'I' for Inactive)
REMARK    1  A    between atoms: C_1  and  O_2
REMARK    2  A    between atoms: O_2  and  C_3
REMARK    3  A    between atoms: N_11  and  C_12
REMARK    4  A    between atoms: C_12  and  C_13
REMARK    5  A    between atoms: C_13  and  C_14
REMARK    6  A    between atoms: C_15  and  C_16
REMARK                            x       y       z     vdW  Elec       q    Type
REMARK                         _______ _______ _______ _____ _____    ______ ____
ROOT
ATOM      1  C   UNL     1       3.029   3.718  18.264  0.00  0.00    +0.000 C 
ATOM      2  N   UNL     1       1.879   3.077  17.673  0.00  0.00    +0.000 N 
ATOM      3  C   UNL     1       1.103   2.450  18.616  0.00  0.00    +0.000 C 
ATOM      4  O   UNL     1       0.095   1.804  18.391  0.00  0.00    +0.000 OA
ATOM      5  N   UNL     1       1.701   2.580  19.826  0.00  0.00    +0.000 N 
ATOM      6  C   UNL     1       2.956   3.091  19.667  0.00  0.00    +0.000 C 
ATOM      7  O   UNL     1       3.821   3.116  20.533  0.00  0.00    +0.000 OA
ATOM      8  H   UNL     1       1.848   2.749  16.708  0.00  0.00    +0.000 HD
ATOM      9  H   UNL     1       1.375   2.098  20.645  0.00  0.00    +0.000 HD
ENDROOT
BRANCH   1  10
ATOM     10  C   UNL     1       2.662   5.182  18.444  0.00  0.00    +0.000 C 
ATOM     11  C   UNL     1       2.347   6.437  18.598  0.00  0.00    +0.000 C 
BRANCH  11  12
ATOM     12  C   UNL     1       1.885   7.781  18.763  0.00  0.00    +0.000 A 
ATOM     13  C   UNL     1       1.951   8.694  17.725  0.00  0.00    +0.000 A 
ATOM     14  C   UNL     1       1.615  10.035  17.963  0.00  0.00    +0.000 A 
ATOM     15  C   UNL     1       1.226  10.462  19.234  0.00  0.00    +0.000 A 
ATOM     16  N   UNL     1       0.967  11.794  19.536  0.00  0.00    +0.000 N 
ATOM     17  C   UNL     1       1.165  12.882  18.587  0.00  0.00    +0.000 C 
ATOM     18  C   UNL     1       0.208  14.025  18.885  0.00  0.00    +0.000 C 
ATOM     19  C   UNL     1       0.339  14.469  20.316  0.00  0.00    +0.000 C 
ATOM     20  O   UNL     1      -0.139  15.541  20.692  0.00  0.00    +0.000 OA
ATOM     21  C   UNL     1       1.117  13.590  21.254  0.00  0.00    +0.000 C 
ATOM     22  C   UNL     1       0.823  12.125  20.963  0.00  0.00    +0.000 C 
ATOM     23  N   UNL     1       1.100   9.547  20.225  0.00  0.00    +0.000 NA
ATOM     24  C   UNL     1       1.429   8.250  19.980  0.00  0.00    +0.000 A 
ENDBRANCH  11  12
ENDBRANCH   1  10
BRANCH   1  25
ATOM     25  C   UNL     1       4.368   3.585  17.542  0.00  0.00    +0.000 C 
BRANCH  25  34
ATOM     26  C   UNL     1       8.126   8.290  17.807  0.00  0.00    +0.000 A 
ATOM     27  C   UNL     1       8.627   7.643  18.960  0.00  0.00    +0.000 A 
ATOM     28  C   UNL     1       8.080   6.431  19.421  0.00  0.00    +0.000 A 
ATOM     29  C   UNL     1       7.025   5.883  18.706  0.00  0.00    +0.000 A 
ATOM     30  C   UNL     1       6.533   6.550  17.591  0.00  0.00    +0.000 A 
ATOM     31  C   UNL     1       7.057   7.732  17.112  0.00  0.00    +0.000 A 
ATOM     32  C   UNL     1       5.434   5.784  17.029  0.00  0.00    +0.000 C 
ATOM     33  O   UNL     1       4.772   6.091  16.057  0.00  0.00    +0.000 OA
ATOM     34  N   UNL     1       5.319   4.648  17.806  0.00  0.00    +0.000 N 
ATOM     35  C   UNL     1       6.262   4.618  18.915  0.00  0.00    +0.000 C 
BRANCH  26  37
ATOM     36  C   UNL     1       8.944  10.401  18.500  0.00  0.00    +0.000 C 
ATOM     37  O   UNL     1       8.754   9.456  17.449  0.00  0.00    +0.000 OA
ENDBRANCH  26  37
ENDBRANCH  25  34
ENDBRANCH   1  25
TORSDOF 5
ENDMDL
MODEL 8
REMARK VINA RESULT:      -8.9      3.630     10.373
REMARK  Name = 
REMARK  6 active torsions:
REMARK  status: ('A' for Active; 'I' for Inactive)
REMARK    1  A    between atoms: C_1  and  O_2
REMARK    2  A    between atoms: O_2  and  C_3
REMARK    3  A    between atoms: N_11  and  C_12
REMARK    4  A    between atoms: C_12  and  C_13
REMARK    5  A    between atoms: C_13  and  C_14
REMARK    6  A    between atoms: C_15  and  C_16
REMARK                            x       y       z     vdW  Elec       q    Type
REMARK                         _______ _______ _______ _____ _____    ______ ____
ROOT
ATOM      1  C   UNL     1      -0.430  12.699  19.992  0.00  0.00    +0.000 C 
ATOM      2  N   UNL     1      -0.063  13.084  21.334  0.00  0.00    +0.000 N 
ATOM      3  C   UNL     1      -1.025  12.726  22.247  0.00  0.00    +0.000 C 
ATOM      4  O   UNL     1      -0.989  12.960  23.442  0.00  0.00    +0.000 OA
ATOM      5  N   UNL     1      -2.066  12.165  21.585  0.00  0.00    +0.000 N 
ATOM      6  C   UNL     1      -1.904  12.339  20.241  0.00  0.00    +0.000 C 
ATOM      7  O   UNL     1      -2.770  12.149  19.397  0.00  0.00    +0.000 OA
ATOM      8  H   UNL     1       0.560  13.861  21.549  0.00  0.00    +0.000 HD
ATOM      9  H   UNL     1      -2.934  11.936  22.035  0.00  0.00    +0.000 HD
ENDROOT
BRANCH   1  10
ATOM     10  C   UNL     1       0.277  11.383  19.712  0.00  0.00    +0.000 C 
ATOM     11  C   UNL     1       0.883  10.254  19.472  0.00  0.00    +0.000 C 
BRANCH  11  12
ATOM     12  C   UNL     1       1.489   8.969  19.304  0.00  0.00    +0.000 A 
ATOM     13  C   UNL     1       2.007   8.574  18.083  0.00  0.00    +0.000 A 
ATOM     14  C   UNL     1       2.470   7.260  17.922  0.00  0.00    +0.000 A 
ATOM     15  C   UNL     1       2.405   6.343  18.973  0.00  0.00    +0.000 A 
ATOM     16  N   UNL     1       2.772   5.010  18.835  0.00  0.00    +0.000 N 
ATOM     17  C   UNL     1       3.169   4.417  17.563  0.00  0.00    +0.000 C 
ATOM     18  C   UNL     1       4.132   3.263  17.795  0.00  0.00    +0.000 C 
ATOM     19  C   UNL     1       3.538   2.259  18.745  0.00  0.00    +0.000 C 
ATOM     20  O   UNL     1       4.025   1.133  18.860  0.00  0.00    +0.000 OA
ATOM     21  C   UNL     1       2.306   2.658  19.507  0.00  0.00    +0.000 C 
ATOM     22  C   UNL     1       2.407   4.113  19.943  0.00  0.00    +0.000 C 
ATOM     23  N   UNL     1       1.959   6.760  20.182  0.00  0.00    +0.000 NA
ATOM     24  C   UNL     1       1.514   8.037  20.324  0.00  0.00    +0.000 A 
ENDBRANCH  11  12
ENDBRANCH   1  10
BRANCH   1  25
ATOM     25  C   UNL     1      -0.166  13.698  18.868  0.00  0.00    +0.000 C 
BRANCH  25  34
ATOM     26  C   UNL     1       4.936  16.893  19.184  0.00  0.00    +0.000 A 
ATOM     27  C   UNL     1       5.472  15.846  18.398  0.00  0.00    +0.000 A 
ATOM     28  C   UNL     1       4.690  14.742  18.010  0.00  0.00    +0.000 A 
ATOM     29  C   UNL     1       3.367  14.708  18.424  0.00  0.00    +0.000 A 
ATOM     30  C   UNL     1       2.869  15.734  19.217  0.00  0.00    +0.000 A 
ATOM     31  C   UNL     1       3.609  16.832  19.603  0.00  0.00    +0.000 A 
ATOM     32  C   UNL     1       1.476  15.463  19.522  0.00  0.00    +0.000 C 
ATOM     33  O   UNL     1       0.745  16.154  20.205  0.00  0.00    +0.000 OA
ATOM     34  N   UNL     1       1.159  14.289  18.866  0.00  0.00    +0.000 N 
ATOM     35  C   UNL     1       2.290  13.708  18.159  0.00  0.00    +0.000 C 
BRANCH  26  37
ATOM     36  C   UNL     1       6.145  18.050  20.859  0.00  0.00    +0.000 C 
ATOM     37  O   UNL     1       5.792  17.922  19.483  0.00  0.00    +0.000 OA
ENDBRANCH  26  37
ENDBRANCH  25  34
ENDBRANCH   1  25
TORSDOF 5
ENDMDL
MODEL 9
REMARK VINA RESULT:      -8.8      3.309     12.164
REMARK  Name = 
REMARK  6 active torsions:
REMARK  status: ('A' for Active; 'I' for Inactive)
REMARK    1  A    between atoms: C_1  and  O_2
REMARK    2  A    between atoms: O_2  and  C_3
REMARK    3  A    between atoms: N_11  and  C_12
REMARK    4  A    between atoms: C_12  and  C_13
REMARK    5  A    between atoms: C_13  and  C_14
REMARK    6  A    between atoms: C_15  and  C_16
REMARK                            x       y       z     vdW  Elec       q    Type
REMARK                         _______ _______ _______ _____ _____    ______ ____
ROOT
ATOM      1  C   UNL     1      -1.087  12.133  19.596  0.00  0.00    +0.000 C 
ATOM      2  N   UNL     1      -2.408  11.644  19.284  0.00  0.00    +0.000 N 
ATOM      3  C   UNL     1      -2.720  11.827  17.959  0.00  0.00    +0.000 C 
ATOM      4  O   UNL     1      -3.780  11.540  17.433  0.00  0.00    +0.000 OA
ATOM      5  N   UNL     1      -1.693  12.476  17.357  0.00  0.00    +0.000 N 
ATOM      6  C   UNL     1      -0.808  12.913  18.300  0.00  0.00    +0.000 C 
ATOM      7  O   UNL     1       0.094  13.715  18.101  0.00  0.00    +0.000 OA
ATOM      8  H   UNL     1      -3.163  11.578  19.966  0.00  0.00    +0.000 HD
ATOM      9  H   UNL     1      -1.749  12.823  16.416  0.00  0.00    +0.000 HD
ENDROOT
BRANCH   1  10
ATOM     10  C   UNL     1      -0.162  10.927  19.563  0.00  0.00    +0.000 C 
ATOM     11  C   UNL     1       0.631   9.893  19.533  0.00  0.00    +0.000 C 
BRANCH  11  12
ATOM     12  C   UNL     1       1.418   8.699  19.567  0.00  0.00    +0.000 A 
ATOM     13  C   UNL     1       2.157   8.295  18.469  0.00  0.00    +0.000 A 
ATOM     14  C   UNL     1       2.807   7.052  18.493  0.00  0.00    +0.000 A 
ATOM     15  C   UNL     1       2.710   6.214  19.606  0.00  0.00    +0.000 A 
ATOM     16  N   UNL     1       3.265   4.940  19.642  0.00  0.00    +0.000 N 
ATOM     17  C   UNL     1       3.919   4.320  18.495  0.00  0.00    +0.000 C 
ATOM     18  C   UNL     1       4.980   3.335  18.960  0.00  0.00    +0.000 C 
ATOM     19  C   UNL     1       4.391   2.328  19.910  0.00  0.00    +0.000 C 
ATOM     20  O   UNL     1       5.000   1.295  20.192  0.00  0.00    +0.000 OA
ATOM     21  C   UNL     1       3.019   2.601  20.458  0.00  0.00    +0.000 C 
ATOM     22  C   UNL     1       2.863   4.083  20.768  0.00  0.00    +0.000 C 
ATOM     23  N   UNL     1       2.041   6.649  20.700  0.00  0.00    +0.000 NA
ATOM     24  C   UNL     1       1.416   7.856  20.663  0.00  0.00    +0.000 A 
ENDBRANCH  11  12
ENDBRANCH   1  10
BRANCH   1  25
ATOM     25  C   UNL     1      -0.905  12.911  20.897  0.00  0.00    +0.000 C 
BRANCH  25  34
ATOM     26  C   UNL     1      -6.049  14.898  23.331  0.00  0.00    +0.000 A 
ATOM     27  C   UNL     1      -5.872  15.995  22.456  0.00  0.00    +0.000 A 
ATOM     28  C   UNL     1      -4.757  16.085  21.604  0.00  0.00    +0.000 A 
ATOM     29  C   UNL     1      -3.825  15.059  21.646  0.00  0.00    +0.000 A 
ATOM     30  C   UNL     1      -4.005  14.004  22.531  0.00  0.00    +0.000 A 
ATOM     31  C   UNL     1      -5.094  13.886  23.370  0.00  0.00    +0.000 A 
ATOM     32  C   UNL     1      -2.900  13.073  22.391  0.00  0.00    +0.000 C 
ATOM     33  O   UNL     1      -2.741  12.049  23.026  0.00  0.00    +0.000 OA
ATOM     34  N   UNL     1      -2.096  13.579  21.388  0.00  0.00    +0.000 N 
ATOM     35  C   UNL     1      -2.573  14.848  20.860  0.00  0.00    +0.000 C 
BRANCH  26  37
ATOM     36  C   UNL     1      -7.823  13.655  24.287  0.00  0.00    +0.000 C 
ATOM     37  O   UNL     1      -7.184  14.916  24.101  0.00  0.00    +0.000 OA
ENDBRANCH  26  37
ENDBRANCH  25  34
ENDBRANCH   1  25
TORSDOF 5
ENDMDL
