MODEL 1
REMARK VINA RESULT:      -7.9      0.000      0.000
REMARK  Name = 
REMARK  4 active torsions:
REMARK  status: ('A' for Active; 'I' for Inactive)
REMARK    1  A    between atoms: C_1  and  C_2
REMARK    2  A    between atoms: N_8  and  C_9
REMARK    3  A    between atoms: C_13  and  C_14
REMARK    4  A    between atoms: C_14  and  O_16
REMARK                            x       y       z     vdW  Elec       q    Type
REMARK                         _______ _______ _______ _____ _____    ______ ____
ROOT
ATOM      1  C   UNL     1       7.880   7.986  17.899  0.00  0.00    +0.000 C 
ATOM      2  C   UNL     1       7.102   6.850  17.299  0.00  0.00    +0.000 A 
ATOM      3  N   UNL     1       6.023   6.417  17.881  0.00  0.00    +0.000 NA
ATOM      4  C   UNL     1       5.448   5.359  17.247  0.00  0.00    +0.000 A 
ATOM      5  C   UNL     1       5.892   4.738  16.103  0.00  0.00    +0.000 A 
ATOM      6  N   UNL     1       5.119   3.663  15.809  0.00  0.00    +0.000 NA
ATOM      7  N   UNL     1       4.187   3.574  16.755  0.00  0.00    +0.000 NA
ATOM      8  N   UNL     1       4.339   4.616  17.628  0.00  0.00    +0.000 N 
ATOM      9  C   UNL     1       7.069   5.248  15.449  0.00  0.00    +0.000 A 
ATOM     10  O   UNL     1       7.562   4.807  14.419  0.00  0.00    +0.000 OA
ATOM     11  N   UNL     1       7.625   6.325  16.129  0.00  0.00    +0.000 N 
ATOM     12  H   UNL     1       8.463   6.708  15.716  0.00  0.00    +0.000 HD
ENDROOT
BRANCH   8  13
ATOM     13  C   UNL     1       3.463   4.787  18.736  0.00  0.00    +0.000 A 
ATOM     14  C   UNL     1       2.825   6.014  18.966  0.00  0.00    +0.000 A 
ATOM     15  C   UNL     1       1.978   6.179  20.061  0.00  0.00    +0.000 A 
ATOM     16  C   UNL     1       1.775   5.125  20.948  0.00  0.00    +0.000 A 
ATOM     17  C   UNL     1       2.411   3.895  20.740  0.00  0.00    +0.000 A 
ATOM     18  C   UNL     1       3.234   3.714  19.616  0.00  0.00    +0.000 A 
BRANCH  17  19
ATOM     19  C   UNL     1       2.150   2.817  21.727  0.00  0.00    +0.000 C 
ATOM     20  O   UNL     1       1.072   2.679  22.279  0.00  0.00    +0.000 OA
BRANCH  19  21
ATOM     21  O   UNL     1       3.220   2.046  22.007  0.00  0.00    +0.000 OA
ATOM     22  H   UNL     1       4.091   2.451  21.846  0.00  0.00    +0.000 HD
ENDBRANCH  19  21
ENDBRANCH  17  19
ENDBRANCH   8  13
TORSDOF 3
ENDMDL
MODEL 2
REMARK VINA RESULT:      -7.7      2.962      6.966
REMARK  Name = 
REMARK  4 active torsions:
REMARK  status: ('A' for Active; 'I' for Inactive)
REMARK    1  A    between atoms: C_1  and  C_2
REMARK    2  A    between atoms: N_8  and  C_9
REMARK    3  A    between atoms: C_13  and  C_14
REMARK    4  A    between atoms: C_14  and  O_16
REMARK                            x       y       z     vdW  Elec       q    Type
REMARK                         _______ _______ _______ _____ _____    ______ ____
ROOT
ATOM      1  C   UNL     1       2.116   4.241  17.302  0.00  0.00    +0.000 C 
ATOM      2  C   UNL     1       3.600   4.383  17.489  0.00  0.00    +0.000 A 
ATOM      3  N   UNL     1       4.390   4.408  16.457  0.00  0.00    +0.000 NA
ATOM      4  C   UNL     1       5.709   4.499  16.780  0.00  0.00    +0.000 A 
ATOM      5  C   UNL     1       6.249   4.557  18.043  0.00  0.00    +0.000 A 
ATOM      6  N   UNL     1       7.604   4.552  17.987  0.00  0.00    +0.000 NA
ATOM      7  N   UNL     1       7.947   4.479  16.703  0.00  0.00    +0.000 NA
ATOM      8  N   UNL     1       6.812   4.481  15.939  0.00  0.00    +0.000 N 
ATOM      9  C   UNL     1       5.362   4.561  19.178  0.00  0.00    +0.000 A 
ATOM     10  O   UNL     1       5.704   4.629  20.352  0.00  0.00    +0.000 OA
ATOM     11  N   UNL     1       4.027   4.466  18.803  0.00  0.00    +0.000 N 
ATOM     12  H   UNL     1       3.366   4.449  19.567  0.00  0.00    +0.000 HD
ENDROOT
BRANCH   8  13
ATOM     13  C   UNL     1       6.876   4.432  14.519  0.00  0.00    +0.000 A 
ATOM     14  C   UNL     1       7.696   5.317  13.805  0.00  0.00    +0.000 A 
ATOM     15  C   UNL     1       7.745   5.271  12.411  0.00  0.00    +0.000 A 
ATOM     16  C   UNL     1       6.959   4.354  11.718  0.00  0.00    +0.000 A 
ATOM     17  C   UNL     1       6.127   3.469  12.414  0.00  0.00    +0.000 A 
ATOM     18  C   UNL     1       6.107   3.485  13.818  0.00  0.00    +0.000 A 
BRANCH  17  19
ATOM     19  C   UNL     1       5.317   2.520  11.609  0.00  0.00    +0.000 C 
ATOM     20  O   UNL     1       4.218   2.808  11.164  0.00  0.00    +0.000 OA
BRANCH  19  21
ATOM     21  O   UNL     1       5.868   1.298  11.465  0.00  0.00    +0.000 OA
ATOM     22  H   UNL     1       6.332   1.137  10.624  0.00  0.00    +0.000 HD
ENDBRANCH  19  21
ENDBRANCH  17  19
ENDBRANCH   8  13
TORSDOF 3
ENDMDL
MODEL 3
REMARK VINA RESULT:      -7.6      2.222      3.411
REMARK  Name = 
REMARK  4 active torsions:
REMARK  status: ('A' for Active; 'I' for Inactive)
REMARK    1  A    between atoms: C_1  and  C_2
REMARK    2  A    between atoms: N_8  and  C_9
REMARK    3  A    between atoms: C_13  and  C_14
REMARK    4  A    between atoms: C_14  and  O_16
REMARK                            x       y       z     vdW  Elec       q    Type
REMARK                         _______ _______ _______ _____ _____    ______ ____
ROOT
ATOM      1  C   UNL     1       5.132   3.110  11.998  0.00  0.00    +0.000 C 
ATOM      2  C   UNL     1       5.788   3.900  13.095  0.00  0.00    +0.000 A 
ATOM      3  N   UNL     1       5.186   4.059  14.236  0.00  0.00    +0.000 NA
ATOM      4  C   UNL     1       5.881   4.831  15.116  0.00  0.00    +0.000 A 
ATOM      5  C   UNL     1       7.101   5.429  14.909  0.00  0.00    +0.000 A 
ATOM      6  N   UNL     1       7.448   6.195  15.973  0.00  0.00    +0.000 NA
ATOM      7  N   UNL     1       6.461   6.109  16.862  0.00  0.00    +0.000 NA
ATOM      8  N   UNL     1       5.505   5.255  16.383  0.00  0.00    +0.000 N 
ATOM      9  C   UNL     1       7.773   5.217  13.653  0.00  0.00    +0.000 A 
ATOM     10  O   UNL     1       8.867   5.671  13.342  0.00  0.00    +0.000 OA
ATOM     11  N   UNL     1       7.030   4.427  12.784  0.00  0.00    +0.000 N 
ATOM     12  H   UNL     1       7.454   4.263  11.882  0.00  0.00    +0.000 HD
ENDROOT
BRANCH   8  13
ATOM     13  C   UNL     1       4.337   4.955  17.137  0.00  0.00    +0.000 A 
ATOM     14  C   UNL     1       3.462   5.972  17.543  0.00  0.00    +0.000 A 
ATOM     15  C   UNL     1       2.324   5.672  18.294  0.00  0.00    +0.000 A 
ATOM     16  C   UNL     1       2.061   4.355  18.661  0.00  0.00    +0.000 A 
ATOM     17  C   UNL     1       2.929   3.328  18.272  0.00  0.00    +0.000 A 
ATOM     18  C   UNL     1       4.053   3.621  17.483  0.00  0.00    +0.000 A 
BRANCH  17  19
ATOM     19  C   UNL     1       2.586   1.948  18.701  0.00  0.00    +0.000 C 
ATOM     20  O   UNL     1       1.562   1.684  19.308  0.00  0.00    +0.000 OA
BRANCH  19  21
ATOM     21  O   UNL     1       3.528   1.025  18.418  0.00  0.00    +0.000 OA
ATOM     22  H   UNL     1       4.189   0.864  19.116  0.00  0.00    +0.000 HD
ENDBRANCH  19  21
ENDBRANCH  17  19
ENDBRANCH   8  13
TORSDOF 3
ENDMDL
MODEL 4
REMARK VINA RESULT:      -7.6      2.036      2.753
REMARK  Name = 
REMARK  4 active torsions:
REMARK  status: ('A' for Active; 'I' for Inactive)
REMARK    1  A    between atoms: C_1  and  C_2
REMARK    2  A    between atoms: N_8  and  C_9
REMARK    3  A    between atoms: C_13  and  C_14
REMARK    4  A    between atoms: C_14  and  O_16
REMARK                            x       y       z     vdW  Elec       q    Type
REMARK                         _______ _______ _______ _____ _____    ______ ____
ROOT
ATOM      1  C   UNL     1       8.628   5.201  20.609  0.00  0.00    +0.000 C 
ATOM      2  C   UNL     1       7.732   5.698  19.511  0.00  0.00    +0.000 A 
ATOM      3  N   UNL     1       6.602   5.101  19.267  0.00  0.00    +0.000 NA
ATOM      4  C   UNL     1       5.918   5.636  18.219  0.00  0.00    +0.000 A 
ATOM      5  C   UNL     1       6.302   6.696  17.434  0.00  0.00    +0.000 A 
ATOM      6  N   UNL     1       5.415   6.896  16.427  0.00  0.00    +0.000 NA
ATOM      7  N   UNL     1       4.466   5.970  16.546  0.00  0.00    +0.000 NA
ATOM      8  N   UNL     1       4.725   5.207  17.652  0.00  0.00    +0.000 N 
ATOM      9  C   UNL     1       7.539   7.370  17.734  0.00  0.00    +0.000 A 
ATOM     10  O   UNL     1       7.992   8.335  17.132  0.00  0.00    +0.000 OA
ATOM     11  N   UNL     1       8.206   6.792  18.808  0.00  0.00    +0.000 N 
ATOM     12  H   UNL     1       9.089   7.221  19.047  0.00  0.00    +0.000 HD
ENDROOT
BRANCH   8  13
ATOM     13  C   UNL     1       3.860   4.146  18.039  0.00  0.00    +0.000 A 
ATOM     14  C   UNL     1       3.454   3.176  17.112  0.00  0.00    +0.000 A 
ATOM     15  C   UNL     1       2.595   2.145  17.495  0.00  0.00    +0.000 A 
ATOM     16  C   UNL     1       2.119   2.087  18.802  0.00  0.00    +0.000 A 
ATOM     17  C   UNL     1       2.507   3.053  19.738  0.00  0.00    +0.000 A 
ATOM     18  C   UNL     1       3.403   4.068  19.367  0.00  0.00    +0.000 A 
BRANCH  17  19
ATOM     19  C   UNL     1       1.958   2.928  21.113  0.00  0.00    +0.000 C 
ATOM     20  O   UNL     1       2.671   2.805  22.095  0.00  0.00    +0.000 OA
BRANCH  19  21
ATOM     21  O   UNL     1       0.612   2.900  21.176  0.00  0.00    +0.000 OA
ATOM     22  H   UNL     1       0.217   2.061  21.473  0.00  0.00    +0.000 HD
ENDBRANCH  19  21
ENDBRANCH  17  19
ENDBRANCH   8  13
TORSDOF 3
ENDMDL
MODEL 5
REMARK VINA RESULT:      -7.6      1.896      6.424
REMARK  Name = 
REMARK  4 active torsions:
REMARK  status: ('A' for Active; 'I' for Inactive)
REMARK    1  A    between atoms: C_1  and  C_2
REMARK    2  A    between atoms: N_8  and  C_9
REMARK    3  A    between atoms: C_13  and  C_14
REMARK    4  A    between atoms: C_14  and  O_16
REMARK                            x       y       z     vdW  Elec       q    Type
REMARK                         _______ _______ _______ _____ _____    ______ ____
ROOT
ATOM      1  C   UNL     1       1.352   7.153  20.586  0.00  0.00    +0.000 C 
ATOM      2  C   UNL     1       2.038   5.820  20.489  0.00  0.00    +0.000 A 
ATOM      3  N   UNL     1       3.147   5.702  19.821  0.00  0.00    +0.000 NA
ATOM      4  C   UNL     1       3.631   4.430  19.786  0.00  0.00    +0.000 A 
ATOM      5  C   UNL     1       3.071   3.315  20.365  0.00  0.00    +0.000 A 
ATOM      6  N   UNL     1       3.780   2.202  20.049  0.00  0.00    +0.000 NA
ATOM      7  N   UNL     1       4.785   2.583  19.263  0.00  0.00    +0.000 NA
ATOM      8  N   UNL     1       4.743   3.942  19.113  0.00  0.00    +0.000 N 
ATOM      9  C   UNL     1       1.860   3.465  21.130  0.00  0.00    +0.000 A 
ATOM     10  O   UNL     1       1.267   2.565  21.712  0.00  0.00    +0.000 OA
ATOM     11  N   UNL     1       1.401   4.776  21.139  0.00  0.00    +0.000 N 
ATOM     12  H   UNL     1       0.544   4.928  21.651  0.00  0.00    +0.000 HD
ENDROOT
BRANCH   8  13
ATOM     13  C   UNL     1       5.714   4.631  18.336  0.00  0.00    +0.000 A 
ATOM     14  C   UNL     1       6.501   5.644  18.902  0.00  0.00    +0.000 A 
ATOM     15  C   UNL     1       7.443   6.325  18.131  0.00  0.00    +0.000 A 
ATOM     16  C   UNL     1       7.594   6.013  16.783  0.00  0.00    +0.000 A 
ATOM     17  C   UNL     1       6.811   5.011  16.198  0.00  0.00    +0.000 A 
ATOM     18  C   UNL     1       5.890   4.296  16.981  0.00  0.00    +0.000 A 
BRANCH  17  19
ATOM     19  C   UNL     1       7.025   4.733  14.755  0.00  0.00    +0.000 C 
ATOM     20  O   UNL     1       7.681   5.468  14.036  0.00  0.00    +0.000 OA
BRANCH  19  21
ATOM     21  O   UNL     1       6.385   3.639  14.296  0.00  0.00    +0.000 OA
ATOM     22  H   UNL     1       5.458   3.538  14.579  0.00  0.00    +0.000 HD
ENDBRANCH  19  21
ENDBRANCH  17  19
ENDBRANCH   8  13
TORSDOF 3
ENDMDL
MODEL 6
REMARK VINA RESULT:      -7.6      2.867      7.002
REMARK  Name = 
REMARK  4 active torsions:
REMARK  status: ('A' for Active; 'I' for Inactive)
REMARK    1  A    between atoms: C_1  and  C_2
REMARK    2  A    between atoms: N_8  and  C_9
REMARK    3  A    between atoms: C_13  and  C_14
REMARK    4  A    between atoms: C_14  and  O_16
REMARK                            x       y       z     vdW  Elec       q    Type
REMARK                         _______ _______ _______ _____ _____    ______ ____
ROOT
ATOM      1  C   UNL     1       3.644   1.551  18.219  0.00  0.00    +0.000 C 
ATOM      2  C   UNL     1       3.912   3.000  17.928  0.00  0.00    +0.000 A 
ATOM      3  N   UNL     1       4.523   3.346  16.834  0.00  0.00    +0.000 NA
ATOM      4  C   UNL     1       4.733   4.686  16.726  0.00  0.00    +0.000 A 
ATOM      5  C   UNL     1       4.375   5.656  17.633  0.00  0.00    +0.000 A 
ATOM      6  N   UNL     1       4.823   6.873  17.236  0.00  0.00    +0.000 NA
ATOM      7  N   UNL     1       5.476   6.701  16.089  0.00  0.00    +0.000 NA
ATOM      8  N   UNL     1       5.409   5.381  15.733  0.00  0.00    +0.000 N 
ATOM      9  C   UNL     1       3.669   5.264  18.825  0.00  0.00    +0.000 A 
ATOM     10  O   UNL     1       3.275   6.021  19.703  0.00  0.00    +0.000 OA
ATOM     11  N   UNL     1       3.477   3.890  18.896  0.00  0.00    +0.000 N 
ATOM     12  H   UNL     1       2.999   3.564  19.725  0.00  0.00    +0.000 HD
ENDROOT
BRANCH   8  13
ATOM     13  C   UNL     1       6.006   4.908  14.532  0.00  0.00    +0.000 A 
ATOM     14  C   UNL     1       7.266   5.368  14.125  0.00  0.00    +0.000 A 
ATOM     15  C   UNL     1       7.840   4.909  12.939  0.00  0.00    +0.000 A 
ATOM     16  C   UNL     1       7.151   4.001  12.140  0.00  0.00    +0.000 A 
ATOM     17  C   UNL     1       5.888   3.538  12.525  0.00  0.00    +0.000 A 
ATOM     18  C   UNL     1       5.325   3.967  13.738  0.00  0.00    +0.000 A 
BRANCH  17  19
ATOM     19  C   UNL     1       5.212   2.572  11.622  0.00  0.00    +0.000 C 
ATOM     20  O   UNL     1       4.136   2.807  11.097  0.00  0.00    +0.000 OA
BRANCH  19  21
ATOM     21  O   UNL     1       5.854   1.395  11.482  0.00  0.00    +0.000 OA
ATOM     22  H   UNL     1       6.198   0.997  12.302  0.00  0.00    +0.000 HD
ENDBRANCH  19  21
ENDBRANCH  17  19
ENDBRANCH   8  13
TORSDOF 3
ENDMDL
MODEL 7
REMARK VINA RESULT:      -7.5      2.057      2.663
REMARK  Name = 
REMARK  4 active torsions:
REMARK  status: ('A' for Active; 'I' for Inactive)
REMARK    1  A    between atoms: C_1  and  C_2
REMARK    2  A    between atoms: N_8  and  C_9
REMARK    3  A    between atoms: C_13  and  C_14
REMARK    4  A    between atoms: C_14  and  O_16
REMARK                            x       y       z     vdW  Elec       q    Type
REMARK                         _______ _______ _______ _____ _____    ______ ____
ROOT
ATOM      1  C   UNL     1       7.867   8.071  17.851  0.00  0.00    +0.000 C 
ATOM      2  C   UNL     1       7.055   6.937  17.292  0.00  0.00    +0.000 A 
ATOM      3  N   UNL     1       5.946   6.580  17.869  0.00  0.00    +0.000 NA
ATOM      4  C   UNL     1       5.341   5.515  17.277  0.00  0.00    +0.000 A 
ATOM      5  C   UNL     1       5.784   4.816  16.179  0.00  0.00    +0.000 A 
ATOM      6  N   UNL     1       4.973   3.759  15.922  0.00  0.00    +0.000 NA
ATOM      7  N   UNL     1       4.017   3.759  16.848  0.00  0.00    +0.000 NA
ATOM      8  N   UNL     1       4.193   4.840  17.669  0.00  0.00    +0.000 N 
ATOM      9  C   UNL     1       6.996   5.242  15.529  0.00  0.00    +0.000 A 
ATOM     10  O   UNL     1       7.494   4.726  14.535  0.00  0.00    +0.000 OA
ATOM     11  N   UNL     1       7.581   6.330  16.165  0.00  0.00    +0.000 N 
ATOM     12  H   UNL     1       8.445   6.655  15.754  0.00  0.00    +0.000 HD
ENDROOT
BRANCH   8  13
ATOM     13  C   UNL     1       3.300   5.105  18.744  0.00  0.00    +0.000 A 
ATOM     14  C   UNL     1       2.727   4.058  19.478  0.00  0.00    +0.000 A 
ATOM     15  C   UNL     1       1.841   4.325  20.523  0.00  0.00    +0.000 A 
ATOM     16  C   UNL     1       1.506   5.641  20.830  0.00  0.00    +0.000 A 
ATOM     17  C   UNL     1       2.062   6.699  20.102  0.00  0.00    +0.000 A 
ATOM     18  C   UNL     1       2.984   6.435  19.076  0.00  0.00    +0.000 A 
BRANCH  17  19
ATOM     19  C   UNL     1       1.658   8.076  20.484  0.00  0.00    +0.000 C 
ATOM     20  O   UNL     1       1.331   8.917  19.663  0.00  0.00    +0.000 OA
BRANCH  19  21
ATOM     21  O   UNL     1       1.742   8.336  21.804  0.00  0.00    +0.000 OA
ATOM     22  H   UNL     1       1.230   9.102  22.121  0.00  0.00    +0.000 HD
ENDBRANCH  19  21
ENDBRANCH  17  19
ENDBRANCH   8  13
TORSDOF 3
ENDMDL
MODEL 8
REMARK VINA RESULT:      -7.5      2.225      6.260
REMARK  Name = 
REMARK  4 active torsions:
REMARK  status: ('A' for Active; 'I' for Inactive)
REMARK    1  A    between atoms: C_1  and  C_2
REMARK    2  A    between atoms: N_8  and  C_9
REMARK    3  A    between atoms: C_13  and  C_14
REMARK    4  A    between atoms: C_14  and  O_16
REMARK                            x       y       z     vdW  Elec       q    Type
REMARK                         _______ _______ _______ _____ _____    ______ ____
ROOT
ATOM      1  C   UNL     1       1.535   7.260  20.658  0.00  0.00    +0.000 C 
ATOM      2  C   UNL     1       2.020   5.870  20.362  0.00  0.00    +0.000 A 
ATOM      3  N   UNL     1       3.017   5.684  19.547  0.00  0.00    +0.000 NA
ATOM      4  C   UNL     1       3.318   4.373  19.343  0.00  0.00    +0.000 A 
ATOM      5  C   UNL     1       2.686   3.283  19.893  0.00  0.00    +0.000 A 
ATOM      6  N   UNL     1       3.197   2.129  19.396  0.00  0.00    +0.000 NA
ATOM      7  N   UNL     1       4.144   2.460  18.521  0.00  0.00    +0.000 NA
ATOM      8  N   UNL     1       4.267   3.822  18.493  0.00  0.00    +0.000 N 
ATOM      9  C   UNL     1       1.605   3.502  20.819  0.00  0.00    +0.000 A 
ATOM     10  O   UNL     1       0.969   2.628  21.396  0.00  0.00    +0.000 OA
ATOM     11  N   UNL     1       1.330   4.852  20.998  0.00  0.00    +0.000 N 
ATOM     12  H   UNL     1       0.567   5.056  21.628  0.00  0.00    +0.000 HD
ENDROOT
BRANCH   8  13
ATOM     13  C   UNL     1       5.224   4.462  17.657  0.00  0.00    +0.000 A 
ATOM     14  C   UNL     1       5.459   4.005  16.353  0.00  0.00    +0.000 A 
ATOM     15  C   UNL     1       6.409   4.628  15.543  0.00  0.00    +0.000 A 
ATOM     16  C   UNL     1       7.145   5.702  16.036  0.00  0.00    +0.000 A 
ATOM     17  C   UNL     1       6.930   6.166  17.339  0.00  0.00    +0.000 A 
ATOM     18  C   UNL     1       5.947   5.566  18.143  0.00  0.00    +0.000 A 
BRANCH  17  19
ATOM     19  C   UNL     1       7.753   7.314  17.798  0.00  0.00    +0.000 C 
ATOM     20  O   UNL     1       7.837   8.355  17.168  0.00  0.00    +0.000 OA
BRANCH  19  21
ATOM     21  O   UNL     1       8.445   7.087  18.932  0.00  0.00    +0.000 OA
ATOM     22  H   UNL     1       8.661   7.874  19.465  0.00  0.00    +0.000 HD
ENDBRANCH  19  21
ENDBRANCH  17  19
ENDBRANCH   8  13
TORSDOF 3
ENDMDL
MODEL 9
REMARK VINA RESULT:      -7.5      2.191      3.511
REMARK  Name = 
REMARK  4 active torsions:
REMARK  status: ('A' for Active; 'I' for Inactive)
REMARK    1  A    between atoms: C_1  and  C_2
REMARK    2  A    between atoms: N_8  and  C_9
REMARK    3  A    between atoms: C_13  and  C_14
REMARK    4  A    between atoms: C_14  and  O_16
REMARK                            x       y       z     vdW  Elec       q    Type
REMARK                         _______ _______ _______ _____ _____    ______ ____
ROOT
ATOM      1  C   UNL     1       5.290   2.887  11.911  0.00  0.00    +0.000 C 
ATOM      2  C   UNL     1       5.900   3.650  13.053  0.00  0.00    +0.000 A 
ATOM      3  N   UNL     1       5.382   3.571  14.243  0.00  0.00    +0.000 NA
ATOM      4  C   UNL     1       6.015   4.346  15.165  0.00  0.00    +0.000 A 
ATOM      5  C   UNL     1       7.098   5.167  14.954  0.00  0.00    +0.000 A 
ATOM      6  N   UNL     1       7.406   5.856  16.082  0.00  0.00    +0.000 NA
ATOM      7  N   UNL     1       6.528   5.499  17.017  0.00  0.00    +0.000 NA
ATOM      8  N   UNL     1       5.687   4.551  16.499  0.00  0.00    +0.000 N 
ATOM      9  C   UNL     1       7.682   5.220  13.640  0.00  0.00    +0.000 A 
ATOM     10  O   UNL     1       8.656   5.890  13.316  0.00  0.00    +0.000 OA
ATOM     11  N   UNL     1       7.006   4.417  12.729  0.00  0.00    +0.000 N 
ATOM     12  H   UNL     1       7.371   4.433  11.787  0.00  0.00    +0.000 HD
ENDROOT
BRANCH   8  13
ATOM     13  C   UNL     1       4.655   3.969  17.285  0.00  0.00    +0.000 A 
ATOM     14  C   UNL     1       3.332   3.937  16.824  0.00  0.00    +0.000 A 
ATOM     15  C   UNL     1       2.321   3.375  17.606  0.00  0.00    +0.000 A 
ATOM     16  C   UNL     1       2.622   2.858  18.863  0.00  0.00    +0.000 A 
ATOM     17  C   UNL     1       3.937   2.890  19.343  0.00  0.00    +0.000 A 
ATOM     18  C   UNL     1       4.962   3.418  18.542  0.00  0.00    +0.000 A 
BRANCH  17  19
ATOM     19  C   UNL     1       4.183   2.322  20.693  0.00  0.00    +0.000 C 
ATOM     20  O   UNL     1       5.210   1.730  20.979  0.00  0.00    +0.000 OA
BRANCH  19  21
ATOM     21  O   UNL     1       3.154   2.462  21.553  0.00  0.00    +0.000 OA
ATOM     22  H   UNL     1       2.268   2.281  21.191  0.00  0.00    +0.000 HD
ENDBRANCH  19  21
ENDBRANCH  17  19
ENDBRANCH   8  13
TORSDOF 3
ENDMDL
