MODEL 1
REMARK VINA RESULT:      -7.1      0.000      0.000
REMARK  Name = 
REMARK  6 active torsions:
REMARK  status: ('A' for Active; 'I' for Inactive)
REMARK    1  A    between atoms: C_2  and  C_3
REMARK    2  A    between atoms: C_3  and  O_4
REMARK    3  A    between atoms: O_4  and  C_5
REMARK    4  A    between atoms: N_12  and  C_13
REMARK    5  A    between atoms: C_13  and  C_14
REMARK    6  A    between atoms: N_18  and  C_19
REMARK                            x       y       z     vdW  Elec       q    Type
REMARK                         _______ _______ _______ _____ _____    ______ ____
ROOT
ATOM      1  O   UNL     1       7.019   5.566  17.776  0.00  0.00    +0.000 OA
ATOM      2  C   UNL     1       5.891   5.649  17.300  0.00  0.00    +0.000 C 
ATOM      3  N   UNL     1       5.472   4.866  16.252  0.00  0.00    +0.000 N 
ATOM      4  H   UNL     1       4.560   5.010  15.829  0.00  0.00    +0.000 HD
ENDROOT
BRANCH   2   5
ATOM      5  C   UNL     1       4.834   6.622  17.831  0.00  0.00    +0.000 C 
BRANCH   5   6
ATOM      6  O   UNL     1       3.531   6.134  17.541  0.00  0.00    +0.000 OA
BRANCH   6   7
ATOM      7  C   UNL     1       2.994   5.238  18.425  0.00  0.00    +0.000 A 
ATOM      8  C   UNL     1       2.552   3.948  18.123  0.00  0.00    +0.000 A 
ATOM      9  C   UNL     1       2.017   3.131  19.127  0.00  0.00    +0.000 A 
ATOM     10  C   UNL     1       1.925   3.602  20.435  0.00  0.00    +0.000 A 
ATOM     11 CL   UNL     1       1.275   2.593  21.666  0.00  0.00    +0.000 Cl
ATOM     12  C   UNL     1       2.357   4.887  20.748  0.00  0.00    +0.000 A 
ATOM     13  C   UNL     1       2.888   5.701  19.741  0.00  0.00    +0.000 A 
ENDBRANCH   6   7
ENDBRANCH   5   6
ENDBRANCH   2   5
BRANCH   3  14
ATOM     14  C   UNL     1       6.352   3.906  15.620  0.00  0.00    +0.000 C 
BRANCH  14  15
ATOM     15  C   UNL     1       6.921   4.509  14.389  0.00  0.00    +0.000 A 
ATOM     16  N   UNL     1       7.819   5.479  14.327  0.00  0.00    +0.000 NA
ATOM     17  N   UNL     1       8.122   5.702  13.004  0.00  0.00    +0.000 NA
ATOM     18  C   UNL     1       7.409   4.868  12.286  0.00  0.00    +0.000 A 
ATOM     19  N   UNL     1       6.630   4.114  13.108  0.00  0.00    +0.000 N 
BRANCH  19  20
ATOM     20  C   UNL     1       5.689   3.091  12.710  0.00  0.00    +0.000 C 
ATOM     21  C   UNL     1       4.767   3.256  11.511  0.00  0.00    +0.000 C 
ATOM     22  C   UNL     1       5.892   2.283  11.438  0.00  0.00    +0.000 C 
ENDBRANCH  19  20
ENDBRANCH  14  15
ENDBRANCH   3  14
TORSDOF 6
ENDMDL
MODEL 2
REMARK VINA RESULT:      -7.0      5.816      7.617
REMARK  Name = 
REMARK  6 active torsions:
REMARK  status: ('A' for Active; 'I' for Inactive)
REMARK    1  A    between atoms: C_2  and  C_3
REMARK    2  A    between atoms: C_3  and  O_4
REMARK    3  A    between atoms: O_4  and  C_5
REMARK    4  A    between atoms: N_12  and  C_13
REMARK    5  A    between atoms: C_13  and  C_14
REMARK    6  A    between atoms: N_18  and  C_19
REMARK                            x       y       z     vdW  Elec       q    Type
REMARK                         _______ _______ _______ _____ _____    ______ ____
ROOT
ATOM      1  O   UNL     1       7.430   7.917  17.095  0.00  0.00    +0.000 OA
ATOM      2  C   UNL     1       7.996   7.702  18.163  0.00  0.00    +0.000 C 
ATOM      3  N   UNL     1       8.698   8.673  18.835  0.00  0.00    +0.000 N 
ATOM      4  H   UNL     1       9.220   8.447  19.677  0.00  0.00    +0.000 HD
ENDROOT
BRANCH   2   5
ATOM      5  C   UNL     1       7.966   6.338  18.859  0.00  0.00    +0.000 C 
BRANCH   5   6
ATOM      6  O   UNL     1       7.713   5.311  17.910  0.00  0.00    +0.000 OA
BRANCH   6   7
ATOM      7  C   UNL     1       6.441   4.807  17.868  0.00  0.00    +0.000 A 
ATOM      8  C   UNL     1       5.606   4.588  18.967  0.00  0.00    +0.000 A 
ATOM      9  C   UNL     1       4.321   4.060  18.783  0.00  0.00    +0.000 A 
ATOM     10  C   UNL     1       3.869   3.752  17.502  0.00  0.00    +0.000 A 
ATOM     11 CL   UNL     1       2.288   3.112  17.281  0.00  0.00    +0.000 Cl
ATOM     12  C   UNL     1       4.694   3.961  16.400  0.00  0.00    +0.000 A 
ATOM     13  C   UNL     1       5.977   4.485  16.588  0.00  0.00    +0.000 A 
ENDBRANCH   6   7
ENDBRANCH   5   6
ENDBRANCH   2   5
BRANCH   3  14
ATOM     14  C   UNL     1       8.840  10.013  18.307  0.00  0.00    +0.000 C 
BRANCH  14  15
ATOM     15  C   UNL     1       9.540  10.856  19.309  0.00  0.00    +0.000 A 
ATOM     16  N   UNL     1       9.301  10.899  20.609  0.00  0.00    +0.000 NA
ATOM     17  N   UNL     1      10.206  11.760  21.186  0.00  0.00    +0.000 NA
ATOM     18  C   UNL     1      10.978  12.224  20.231  0.00  0.00    +0.000 A 
ATOM     19  N   UNL     1      10.587  11.700  19.038  0.00  0.00    +0.000 N 
BRANCH  19  20
ATOM     20  C   UNL     1      11.168  11.971  17.743  0.00  0.00    +0.000 C 
ATOM     21  C   UNL     1      10.866  13.243  16.965  0.00  0.00    +0.000 C 
ATOM     22  C   UNL     1      12.218  13.056  17.559  0.00  0.00    +0.000 C 
ENDBRANCH  19  20
ENDBRANCH  14  15
ENDBRANCH   3  14
TORSDOF 6
ENDMDL
MODEL 3
REMARK VINA RESULT:      -7.0      2.640      3.195
REMARK  Name = 
REMARK  6 active torsions:
REMARK  status: ('A' for Active; 'I' for Inactive)
REMARK    1  A    between atoms: C_2  and  C_3
REMARK    2  A    between atoms: C_3  and  O_4
REMARK    3  A    between atoms: O_4  and  C_5
REMARK    4  A    between atoms: N_12  and  C_13
REMARK    5  A    between atoms: C_13  and  C_14
REMARK    6  A    between atoms: N_18  and  C_19
REMARK                            x       y       z     vdW  Elec       q    Type
REMARK                         _______ _______ _______ _____ _____    ______ ____
ROOT
ATOM      1  O   UNL     1       4.559   3.513  18.307  0.00  0.00    +0.000 OA
ATOM      2  C   UNL     1       4.207   4.355  17.485  0.00  0.00    +0.000 C 
ATOM      3  N   UNL     1       4.857   4.536  16.288  0.00  0.00    +0.000 N 
ATOM      4  H   UNL     1       4.592   5.290  15.662  0.00  0.00    +0.000 HD
ENDROOT
BRANCH   2   5
ATOM      5  C   UNL     1       3.004   5.277  17.703  0.00  0.00    +0.000 C 
BRANCH   5   6
ATOM      6  O   UNL     1       3.436   6.627  17.807  0.00  0.00    +0.000 OA
BRANCH   6   7
ATOM      7  C   UNL     1       2.627   7.484  18.504  0.00  0.00    +0.000 A 
ATOM      8  C   UNL     1       2.236   7.346  19.838  0.00  0.00    +0.000 A 
ATOM      9  C   UNL     1       1.398   8.300  20.430  0.00  0.00    +0.000 A 
ATOM     10  C   UNL     1       0.951   9.392  19.691  0.00  0.00    +0.000 A 
ATOM     11 CL   UNL     1      -0.071  10.564  20.425  0.00  0.00    +0.000 Cl
ATOM     12  C   UNL     1       1.329   9.538  18.359  0.00  0.00    +0.000 A 
ATOM     13  C   UNL     1       2.164   8.582  17.771  0.00  0.00    +0.000 A 
ENDBRANCH   6   7
ENDBRANCH   5   6
ENDBRANCH   2   5
BRANCH   3  14
ATOM     14  C   UNL     1       6.026   3.759  15.932  0.00  0.00    +0.000 C 
BRANCH  14  15
ATOM     15  C   UNL     1       6.704   4.405  14.780  0.00  0.00    +0.000 A 
ATOM     16  N   UNL     1       7.644   5.334  14.838  0.00  0.00    +0.000 NA
ATOM     17  N   UNL     1       8.048   5.620  13.555  0.00  0.00    +0.000 NA
ATOM     18  C   UNL     1       7.350   4.863  12.740  0.00  0.00    +0.000 A 
ATOM     19  N   UNL     1       6.484   4.101  13.461  0.00  0.00    +0.000 N 
BRANCH  19  20
ATOM     20  C   UNL     1       5.530   3.148  12.940  0.00  0.00    +0.000 C 
ATOM     21  C   UNL     1       4.647   3.455  11.739  0.00  0.00    +0.000 C 
ATOM     22  C   UNL     1       5.749   2.464  11.600  0.00  0.00    +0.000 C 
ENDBRANCH  19  20
ENDBRANCH  14  15
ENDBRANCH   3  14
TORSDOF 6
ENDMDL
MODEL 4
REMARK VINA RESULT:      -7.0      0.518      1.147
REMARK  Name = 
REMARK  6 active torsions:
REMARK  status: ('A' for Active; 'I' for Inactive)
REMARK    1  A    between atoms: C_2  and  C_3
REMARK    2  A    between atoms: C_3  and  O_4
REMARK    3  A    between atoms: O_4  and  C_5
REMARK    4  A    between atoms: N_12  and  C_13
REMARK    5  A    between atoms: C_13  and  C_14
REMARK    6  A    between atoms: N_18  and  C_19
REMARK                            x       y       z     vdW  Elec       q    Type
REMARK                         _______ _______ _______ _____ _____    ______ ____
ROOT
ATOM      1  O   UNL     1       6.995   6.569  17.009  0.00  0.00    +0.000 OA
ATOM      2  C   UNL     1       5.849   6.184  16.795  0.00  0.00    +0.000 C 
ATOM      3  N   UNL     1       5.576   5.004  16.147  0.00  0.00    +0.000 N 
ATOM      4  H   UNL     1       4.621   4.748  15.915  0.00  0.00    +0.000 HD
ENDROOT
BRANCH   2   5
ATOM      5  C   UNL     1       4.612   6.969  17.238  0.00  0.00    +0.000 C 
BRANCH   5   6
ATOM      6  O   UNL     1       3.439   6.195  17.023  0.00  0.00    +0.000 OA
BRANCH   6   7
ATOM      7  C   UNL     1       2.969   5.474  18.089  0.00  0.00    +0.000 A 
ATOM      8  C   UNL     1       3.214   5.744  19.437  0.00  0.00    +0.000 A 
ATOM      9  C   UNL     1       2.672   4.920  20.432  0.00  0.00    +0.000 A 
ATOM     10  C   UNL     1       1.884   3.827  20.080  0.00  0.00    +0.000 A 
ATOM     11 CL   UNL     1       1.214   2.823  21.305  0.00  0.00    +0.000 Cl
ATOM     12  C   UNL     1       1.637   3.545  18.740  0.00  0.00    +0.000 A 
ATOM     13  C   UNL     1       2.182   4.368  17.750  0.00  0.00    +0.000 A 
ENDBRANCH   6   7
ENDBRANCH   5   6
ENDBRANCH   2   5
BRANCH   3  14
ATOM     14  C   UNL     1       6.631   4.148  15.646  0.00  0.00    +0.000 C 
BRANCH  14  15
ATOM     15  C   UNL     1       7.093   4.667  14.333  0.00  0.00    +0.000 A 
ATOM     16  N   UNL     1       8.056   5.550  14.128  0.00  0.00    +0.000 NA
ATOM     17  N   UNL     1       8.210   5.712  12.771  0.00  0.00    +0.000 NA
ATOM     18  C   UNL     1       7.342   4.928  12.175  0.00  0.00    +0.000 A 
ATOM     19  N   UNL     1       6.610   4.269  13.113  0.00  0.00    +0.000 N 
BRANCH  19  20
ATOM     20  C   UNL     1       5.542   3.325  12.869  0.00  0.00    +0.000 C 
ATOM     21  C   UNL     1       4.565   3.483  11.714  0.00  0.00    +0.000 C 
ATOM     22  C   UNL     1       5.573   2.388  11.673  0.00  0.00    +0.000 C 
ENDBRANCH  19  20
ENDBRANCH  14  15
ENDBRANCH   3  14
TORSDOF 6
ENDMDL
MODEL 5
REMARK VINA RESULT:      -7.0      3.477      7.013
REMARK  Name = 
REMARK  6 active torsions:
REMARK  status: ('A' for Active; 'I' for Inactive)
REMARK    1  A    between atoms: C_2  and  C_3
REMARK    2  A    between atoms: C_3  and  O_4
REMARK    3  A    between atoms: O_4  and  C_5
REMARK    4  A    between atoms: N_12  and  C_13
REMARK    5  A    between atoms: C_13  and  C_14
REMARK    6  A    between atoms: N_18  and  C_19
REMARK                            x       y       z     vdW  Elec       q    Type
REMARK                         _______ _______ _______ _____ _____    ______ ____
ROOT
ATOM      1  O   UNL     1       7.623   4.372  17.922  0.00  0.00    +0.000 OA
ATOM      2  C   UNL     1       6.706   5.129  17.615  0.00  0.00    +0.000 C 
ATOM      3  N   UNL     1       5.477   5.085  18.228  0.00  0.00    +0.000 N 
ATOM      4  H   UNL     1       4.714   5.671  17.901  0.00  0.00    +0.000 HD
ENDROOT
BRANCH   2   5
ATOM      5  C   UNL     1       6.841   6.202  16.532  0.00  0.00    +0.000 C 
BRANCH   5   6
ATOM      6  O   UNL     1       7.697   5.743  15.494  0.00  0.00    +0.000 OA
BRANCH   6   7
ATOM      7  C   UNL     1       7.110   5.050  14.469  0.00  0.00    +0.000 A 
ATOM      8  C   UNL     1       7.630   4.887  13.182  0.00  0.00    +0.000 A 
ATOM      9  C   UNL     1       6.921   4.153  12.222  0.00  0.00    +0.000 A 
ATOM     10  C   UNL     1       5.693   3.581  12.547  0.00  0.00    +0.000 A 
ATOM     11 CL   UNL     1       4.830   2.674  11.368  0.00  0.00    +0.000 Cl
ATOM     12  C   UNL     1       5.162   3.742  13.824  0.00  0.00    +0.000 A 
ATOM     13  C   UNL     1       5.872   4.477  14.779  0.00  0.00    +0.000 A 
ENDBRANCH   6   7
ENDBRANCH   5   6
ENDBRANCH   2   5
BRANCH   3  14
ATOM     14  C   UNL     1       5.175   4.118  19.261  0.00  0.00    +0.000 C 
BRANCH  14  15
ATOM     15  C   UNL     1       4.043   3.268  18.813  0.00  0.00    +0.000 A 
ATOM     16  N   UNL     1       4.059   2.393  17.820  0.00  0.00    +0.000 NA
ATOM     17  N   UNL     1       2.831   1.774  17.772  0.00  0.00    +0.000 NA
ATOM     18  C   UNL     1       2.093   2.280  18.732  0.00  0.00    +0.000 A 
ATOM     19  N   UNL     1       2.803   3.230  19.397  0.00  0.00    +0.000 N 
BRANCH  19  20
ATOM     20  C   UNL     1       2.345   4.033  20.509  0.00  0.00    +0.000 C 
ATOM     21  C   UNL     1       2.059   5.521  20.374  0.00  0.00    +0.000 C 
ATOM     22  C   UNL     1       0.925   4.574  20.560  0.00  0.00    +0.000 C 
ENDBRANCH  19  20
ENDBRANCH  14  15
ENDBRANCH   3  14
TORSDOF 6
ENDMDL
MODEL 6
REMARK VINA RESULT:      -6.9      4.369      5.749
REMARK  Name = 
REMARK  6 active torsions:
REMARK  status: ('A' for Active; 'I' for Inactive)
REMARK    1  A    between atoms: C_2  and  C_3
REMARK    2  A    between atoms: C_3  and  O_4
REMARK    3  A    between atoms: O_4  and  C_5
REMARK    4  A    between atoms: N_12  and  C_13
REMARK    5  A    between atoms: C_13  and  C_14
REMARK    6  A    between atoms: N_18  and  C_19
REMARK                            x       y       z     vdW  Elec       q    Type
REMARK                         _______ _______ _______ _____ _____    ______ ____
ROOT
ATOM      1  O   UNL     1       1.680   5.138  19.985  0.00  0.00    +0.000 OA
ATOM      2  C   UNL     1       2.424   6.098  19.801  0.00  0.00    +0.000 C 
ATOM      3  N   UNL     1       3.667   5.970  19.231  0.00  0.00    +0.000 N 
ATOM      4  H   UNL     1       4.291   6.769  19.161  0.00  0.00    +0.000 HD
ENDROOT
BRANCH   2   5
ATOM      5  C   UNL     1       2.038   7.532  20.175  0.00  0.00    +0.000 C 
BRANCH   5   6
ATOM      6  O   UNL     1       0.923   7.523  21.057  0.00  0.00    +0.000 OA
BRANCH   6   7
ATOM      7  C   UNL     1       0.335   8.730  21.324  0.00  0.00    +0.000 A 
ATOM      8  C   UNL     1       0.065   9.738  20.394  0.00  0.00    +0.000 A 
ATOM      9  C   UNL     1      -0.542  10.932  20.804  0.00  0.00    +0.000 A 
ATOM     10  C   UNL     1      -0.880  11.121  22.142  0.00  0.00    +0.000 A 
ATOM     11 CL   UNL     1      -1.632  12.585  22.639  0.00  0.00    +0.000 Cl
ATOM     12  C   UNL     1      -0.611  10.127  23.078  0.00  0.00    +0.000 A 
ATOM     13  C   UNL     1      -0.003   8.937  22.666  0.00  0.00    +0.000 A 
ENDBRANCH   6   7
ENDBRANCH   5   6
ENDBRANCH   2   5
BRANCH   3  14
ATOM     14  C   UNL     1       4.194   4.681  18.835  0.00  0.00    +0.000 C 
BRANCH  14  15
ATOM     15  C   UNL     1       5.669   4.784  18.695  0.00  0.00    +0.000 A 
ATOM     16  N   UNL     1       6.534   5.074  19.652  0.00  0.00    +0.000 NA
ATOM     17  N   UNL     1       7.802   5.008  19.122  0.00  0.00    +0.000 NA
ATOM     18  C   UNL     1       7.687   4.679  17.856  0.00  0.00    +0.000 A 
ATOM     19  N   UNL     1       6.371   4.547  17.541  0.00  0.00    +0.000 N 
BRANCH  19  20
ATOM     20  C   UNL     1       5.821   4.210  16.246  0.00  0.00    +0.000 C 
ATOM     21  C   UNL     1       5.377   5.271  15.250  0.00  0.00    +0.000 C 
ATOM     22  C   UNL     1       6.600   4.469  14.967  0.00  0.00    +0.000 C 
ENDBRANCH  19  20
ENDBRANCH  14  15
ENDBRANCH   3  14
TORSDOF 6
ENDMDL
MODEL 7
REMARK VINA RESULT:      -6.9      3.510      7.023
REMARK  Name = 
REMARK  6 active torsions:
REMARK  status: ('A' for Active; 'I' for Inactive)
REMARK    1  A    between atoms: C_2  and  C_3
REMARK    2  A    between atoms: C_3  and  O_4
REMARK    3  A    between atoms: O_4  and  C_5
REMARK    4  A    between atoms: N_12  and  C_13
REMARK    5  A    between atoms: C_13  and  C_14
REMARK    6  A    between atoms: N_18  and  C_19
REMARK                            x       y       z     vdW  Elec       q    Type
REMARK                         _______ _______ _______ _____ _____    ______ ____
ROOT
ATOM      1  O   UNL     1       7.393   4.754  18.935  0.00  0.00    +0.000 OA
ATOM      2  C   UNL     1       6.730   5.350  18.090  0.00  0.00    +0.000 C 
ATOM      3  N   UNL     1       5.361   5.445  18.159  0.00  0.00    +0.000 N 
ATOM      4  H   UNL     1       4.833   5.878  17.406  0.00  0.00    +0.000 HD
ENDROOT
BRANCH   2   5
ATOM      5  C   UNL     1       7.359   6.055  16.885  0.00  0.00    +0.000 C 
BRANCH   5   6
ATOM      6  O   UNL     1       6.387   6.238  15.864  0.00  0.00    +0.000 OA
BRANCH   6   7
ATOM      7  C   UNL     1       6.425   5.366  14.810  0.00  0.00    +0.000 A 
ATOM      8  C   UNL     1       7.452   5.254  13.870  0.00  0.00    +0.000 A 
ATOM      9  C   UNL     1       7.362   4.316  12.833  0.00  0.00    +0.000 A 
ATOM     10  C   UNL     1       6.246   3.488  12.736  0.00  0.00    +0.000 A 
ATOM     11 CL   UNL     1       6.144   2.333  11.466  0.00  0.00    +0.000 Cl
ATOM     12  C   UNL     1       5.214   3.593  13.663  0.00  0.00    +0.000 A 
ATOM     13  C   UNL     1       5.306   4.533  14.695  0.00  0.00    +0.000 A 
ENDBRANCH   6   7
ENDBRANCH   5   6
ENDBRANCH   2   5
BRANCH   3  14
ATOM     14  C   UNL     1       4.607   4.820  19.224  0.00  0.00    +0.000 C 
BRANCH  14  15
ATOM     15  C   UNL     1       3.537   3.979  18.630  0.00  0.00    +0.000 A 
ATOM     16  N   UNL     1       3.194   3.924  17.354  0.00  0.00    +0.000 NA
ATOM     17  N   UNL     1       2.202   2.981  17.215  0.00  0.00    +0.000 NA
ATOM     18  C   UNL     1       1.960   2.479  18.403  0.00  0.00    +0.000 A 
ATOM     19  N   UNL     1       2.758   3.087  19.322  0.00  0.00    +0.000 N 
BRANCH  19  20
ATOM     20  C   UNL     1       2.788   2.832  20.745  0.00  0.00    +0.000 C 
ATOM     21  C   UNL     1       2.212   3.809  21.758  0.00  0.00    +0.000 C 
ATOM     22  C   UNL     1       1.518   2.514  21.517  0.00  0.00    +0.000 C 
ENDBRANCH  19  20
ENDBRANCH  14  15
ENDBRANCH   3  14
TORSDOF 6
ENDMDL
MODEL 8
REMARK VINA RESULT:      -6.9      3.467      7.012
REMARK  Name = 
REMARK  6 active torsions:
REMARK  status: ('A' for Active; 'I' for Inactive)
REMARK    1  A    between atoms: C_2  and  C_3
REMARK    2  A    between atoms: C_3  and  O_4
REMARK    3  A    between atoms: O_4  and  C_5
REMARK    4  A    between atoms: N_12  and  C_13
REMARK    5  A    between atoms: C_13  and  C_14
REMARK    6  A    between atoms: N_18  and  C_19
REMARK                            x       y       z     vdW  Elec       q    Type
REMARK                         _______ _______ _______ _____ _____    ______ ____
ROOT
ATOM      1  O   UNL     1       5.658   6.123  18.156  0.00  0.00    +0.000 OA
ATOM      2  C   UNL     1       6.308   5.114  17.893  0.00  0.00    +0.000 C 
ATOM      3  N   UNL     1       6.004   3.883  18.421  0.00  0.00    +0.000 N 
ATOM      4  H   UNL     1       6.605   3.082  18.248  0.00  0.00    +0.000 HD
ENDROOT
BRANCH   2   5
ATOM      5  C   UNL     1       7.509   5.124  16.944  0.00  0.00    +0.000 C 
BRANCH   5   6
ATOM      6  O   UNL     1       7.169   5.786  15.733  0.00  0.00    +0.000 OA
BRANCH   6   7
ATOM      7  C   UNL     1       6.639   5.015  14.733  0.00  0.00    +0.000 A 
ATOM      8  C   UNL     1       5.369   4.433  14.728  0.00  0.00    +0.000 A 
ATOM      9  C   UNL     1       4.951   3.660  13.637  0.00  0.00    +0.000 A 
ATOM     10  C   UNL     1       5.800   3.471  12.549  0.00  0.00    +0.000 A 
ATOM     11 CL   UNL     1       5.279   2.529  11.208  0.00  0.00    +0.000 Cl
ATOM     12  C   UNL     1       7.069   4.042  12.545  0.00  0.00    +0.000 A 
ATOM     13  C   UNL     1       7.484   4.809  13.637  0.00  0.00    +0.000 A 
ENDBRANCH   6   7
ENDBRANCH   5   6
ENDBRANCH   2   5
BRANCH   3  14
ATOM     14  C   UNL     1       4.910   3.702  19.351  0.00  0.00    +0.000 C 
BRANCH  14  15
ATOM     15  C   UNL     1       3.650   3.520  18.586  0.00  0.00    +0.000 A 
ATOM     16  N   UNL     1       3.542   3.289  17.287  0.00  0.00    +0.000 NA
ATOM     17  N   UNL     1       2.210   3.123  16.989  0.00  0.00    +0.000 NA
ATOM     18  C   UNL     1       1.532   3.253  18.105  0.00  0.00    +0.000 A 
ATOM     19  N   UNL     1       2.390   3.521  19.126  0.00  0.00    +0.000 N 
BRANCH  19  20
ATOM     20  C   UNL     1       2.042   3.748  20.511  0.00  0.00    +0.000 C 
ATOM     21  C   UNL     1       1.073   2.849  21.264  0.00  0.00    +0.000 C 
ATOM     22  C   UNL     1       2.521   2.813  21.610  0.00  0.00    +0.000 C 
ENDBRANCH  19  20
ENDBRANCH  14  15
ENDBRANCH   3  14
TORSDOF 6
ENDMDL
MODEL 9
REMARK VINA RESULT:      -6.8      3.624      7.026
REMARK  Name = 
REMARK  6 active torsions:
REMARK  status: ('A' for Active; 'I' for Inactive)
REMARK    1  A    between atoms: C_2  and  C_3
REMARK    2  A    between atoms: C_3  and  O_4
REMARK    3  A    between atoms: O_4  and  C_5
REMARK    4  A    between atoms: N_12  and  C_13
REMARK    5  A    between atoms: C_13  and  C_14
REMARK    6  A    between atoms: N_18  and  C_19
REMARK                            x       y       z     vdW  Elec       q    Type
REMARK                         _______ _______ _______ _____ _____    ______ ____
ROOT
ATOM      1  O   UNL     1       7.576   4.148  17.892  0.00  0.00    +0.000 OA
ATOM      2  C   UNL     1       6.770   5.062  17.741  0.00  0.00    +0.000 C 
ATOM      3  N   UNL     1       5.533   5.061  18.338  0.00  0.00    +0.000 N 
ATOM      4  H   UNL     1       4.858   5.792  18.134  0.00  0.00    +0.000 HD
ENDROOT
BRANCH   2   5
ATOM      5  C   UNL     1       7.065   6.298  16.886  0.00  0.00    +0.000 C 
BRANCH   5   6
ATOM      6  O   UNL     1       6.109   6.407  15.840  0.00  0.00    +0.000 OA
BRANCH   6   7
ATOM      7  C   UNL     1       6.168   5.468  14.846  0.00  0.00    +0.000 A 
ATOM      8  C   UNL     1       5.178   4.531  14.539  0.00  0.00    +0.000 A 
ATOM      9  C   UNL     1       5.369   3.619  13.493  0.00  0.00    +0.000 A 
ATOM     10  C   UNL     1       6.548   3.643  12.752  0.00  0.00    +0.000 A 
ATOM     11 CL   UNL     1       6.774   2.526  11.464  0.00  0.00    +0.000 Cl
ATOM     12  C   UNL     1       7.544   4.567  13.052  0.00  0.00    +0.000 A 
ATOM     13  C   UNL     1       7.351   5.474  14.099  0.00  0.00    +0.000 A 
ENDBRANCH   6   7
ENDBRANCH   5   6
ENDBRANCH   2   5
BRANCH   3  14
ATOM     14  C   UNL     1       5.087   3.959  19.164  0.00  0.00    +0.000 C 
BRANCH  14  15
ATOM     15  C   UNL     1       3.812   3.430  18.619  0.00  0.00    +0.000 A 
ATOM     16  N   UNL     1       3.459   3.378  17.345  0.00  0.00    +0.000 NA
ATOM     17  N   UNL     1       2.231   2.763  17.263  0.00  0.00    +0.000 NA
ATOM     18  C   UNL     1       1.859   2.452  18.482  0.00  0.00    +0.000 A 
ATOM     19  N   UNL     1       2.808   2.866  19.364  0.00  0.00    +0.000 N 
BRANCH  19  20
ATOM     20  C   UNL     1       2.770   2.727  20.803  0.00  0.00    +0.000 C 
ATOM     21  C   UNL     1       2.238   3.825  21.712  0.00  0.00    +0.000 C 
ATOM     22  C   UNL     1       1.454   2.570  21.547  0.00  0.00    +0.000 C 
ENDBRANCH  19  20
ENDBRANCH  14  15
ENDBRANCH   3  14
TORSDOF 6
ENDMDL
