MODEL 1
REMARK VINA RESULT:      -7.6      0.000      0.000
REMARK  Name = 
REMARK  6 active torsions:
REMARK  status: ('A' for Active; 'I' for Inactive)
REMARK    1  A    between atoms: C_2  and  C_3
REMARK    2  A    between atoms: C_3  and  C_4
REMARK    3  A    between atoms: C_4  and  N_5
REMARK    4  A    between atoms: C_8  and  C_9
REMARK    5  A    between atoms: C_18  and  O_19
REMARK    6  A    between atoms: O_19  and  C_20
REMARK                            x       y       z     vdW  Elec       q    Type
REMARK                         _______ _______ _______ _____ _____    ______ ____
ROOT
ATOM      1  N   UNL     1       2.654   6.245  19.502  0.00  0.00    +0.000 N 
ATOM      2  C   UNL     1       3.621   5.528  18.807  0.00  0.00    +0.000 A 
ATOM      3  O   UNL     1       4.042   4.439  19.175  0.00  0.00    +0.000 OA
ATOM      4  C   UNL     1       4.185   6.189  17.534  0.00  0.00    +0.000 A 
ATOM      5  N   UNL     1       3.839   7.390  17.171  0.00  0.00    +0.000 NA
ATOM      6  C   UNL     1       2.901   8.073  17.958  0.00  0.00    +0.000 A 
ATOM      7  C   UNL     1       2.498   9.349  17.625  0.00  0.00    +0.000 A 
ATOM      8  N   UNL     1       1.600  10.065  18.328  0.00  0.00    +0.000 NA
ATOM      9  C   UNL     1       1.059   9.455  19.395  0.00  0.00    +0.000 A 
ATOM     10  N   UNL     1       1.388   8.228  19.833  0.00  0.00    +0.000 NA
ATOM     11  C   UNL     1       2.297   7.554  19.099  0.00  0.00    +0.000 A 
ENDROOT
BRANCH   4  12
ATOM     12  C   UNL     1       5.132   5.411  16.752  0.00  0.00    +0.000 A 
ATOM     13  C   UNL     1       4.888   4.479  15.760  0.00  0.00    +0.000 A 
ATOM     14  C   UNL     1       6.078   3.880  15.256  0.00  0.00    +0.000 A 
ATOM     15  C   UNL     1       7.202   4.386  15.867  0.00  0.00    +0.000 A 
ATOM     16  S   UNL     1       6.819   5.587  17.021  0.00  0.00    +0.000 S 
ENDBRANCH   4  12
BRANCH   1  17
ATOM     17  C   UNL     1       2.076   5.668  20.717  0.00  0.00    +0.000 C 
BRANCH  17  18
ATOM     18  C   UNL     1       1.126   4.488  20.507  0.00  0.00    +0.000 C 
BRANCH  18  20
ATOM     19  N   UNL     1       1.798   2.416  21.975  0.00  0.00    +0.000 NA
ATOM     20  C   UNL     1       1.497   3.325  21.319  0.00  0.00    +0.000 C 
ENDBRANCH  18  20
ENDBRANCH  17  18
ENDBRANCH   1  17
BRANCH   9  21
ATOM     21  O   UNL     1       0.102  10.118  20.150  0.00  0.00    +0.000 OA
BRANCH  21  22
ATOM     22  C   UNL     1      -1.029  10.582  19.514  0.00  0.00    +0.000 A 
ATOM     23  C   UNL     1      -1.613   9.962  18.405  0.00  0.00    +0.000 A 
ATOM     24  C   UNL     1      -2.771  10.489  17.833  0.00  0.00    +0.000 A 
ATOM     25  C   UNL     1      -3.371  11.617  18.388  0.00  0.00    +0.000 A 
ATOM     26  C   UNL     1      -2.817  12.216  19.518  0.00  0.00    +0.000 A 
ATOM     27  C   UNL     1      -1.649  11.698  20.083  0.00  0.00    +0.000 A 
ENDBRANCH  21  22
ENDBRANCH   9  21
TORSDOF 6
ENDMDL
MODEL 2
REMARK VINA RESULT:      -7.4      2.807      7.835
REMARK  Name = 
REMARK  6 active torsions:
REMARK  status: ('A' for Active; 'I' for Inactive)
REMARK    1  A    between atoms: C_2  and  C_3
REMARK    2  A    between atoms: C_3  and  C_4
REMARK    3  A    between atoms: C_4  and  N_5
REMARK    4  A    between atoms: C_8  and  C_9
REMARK    5  A    between atoms: C_18  and  O_19
REMARK    6  A    between atoms: O_19  and  C_20
REMARK                            x       y       z     vdW  Elec       q    Type
REMARK                         _______ _______ _______ _____ _____    ______ ____
ROOT
ATOM      1  N   UNL     1       3.358   5.032  19.145  0.00  0.00    +0.000 N 
ATOM      2  C   UNL     1       2.439   5.857  19.784  0.00  0.00    +0.000 A 
ATOM      3  O   UNL     1       1.690   5.466  20.669  0.00  0.00    +0.000 OA
ATOM      4  C   UNL     1       2.373   7.318  19.298  0.00  0.00    +0.000 A 
ATOM      5  N   UNL     1       3.077   7.741  18.289  0.00  0.00    +0.000 NA
ATOM      6  C   UNL     1       3.939   6.831  17.659  0.00  0.00    +0.000 A 
ATOM      7  C   UNL     1       4.708   7.221  16.582  0.00  0.00    +0.000 A 
ATOM      8  N   UNL     1       5.560   6.408  15.929  0.00  0.00    +0.000 NA
ATOM      9  C   UNL     1       5.666   5.155  16.403  0.00  0.00    +0.000 A 
ATOM     10  N   UNL     1       4.954   4.653  17.426  0.00  0.00    +0.000 NA
ATOM     11  C   UNL     1       4.109   5.506  18.043  0.00  0.00    +0.000 A 
ENDROOT
BRANCH   4  12
ATOM     12  C   UNL     1       1.478   8.210  20.017  0.00  0.00    +0.000 A 
ATOM     13  C   UNL     1       1.020   8.126  21.319  0.00  0.00    +0.000 A 
ATOM     14  C   UNL     1       0.106   9.165  21.655  0.00  0.00    +0.000 A 
ATOM     15  C   UNL     1      -0.095  10.028  20.602  0.00  0.00    +0.000 A 
ATOM     16  S   UNL     1       0.829   9.593  19.232  0.00  0.00    +0.000 S 
ENDBRANCH   4  12
BRANCH   1  17
ATOM     17  C   UNL     1       3.472   3.634  19.564  0.00  0.00    +0.000 C 
BRANCH  17  18
ATOM     18  C   UNL     1       2.942   2.596  18.573  0.00  0.00    +0.000 C 
BRANCH  18  20
ATOM     19  N   UNL     1       0.327   2.369  18.658  0.00  0.00    +0.000 NA
ATOM     20  C   UNL     1       1.483   2.468  18.630  0.00  0.00    +0.000 C 
ENDBRANCH  18  20
ENDBRANCH  17  18
ENDBRANCH   1  17
BRANCH   9  21
ATOM     21  O   UNL     1       6.548   4.269  15.803  0.00  0.00    +0.000 OA
BRANCH  21  22
ATOM     22  C   UNL     1       6.709   4.329  14.435  0.00  0.00    +0.000 A 
ATOM     23  C   UNL     1       7.659   5.129  13.794  0.00  0.00    +0.000 A 
ATOM     24  C   UNL     1       7.767   5.116  12.403  0.00  0.00    +0.000 A 
ATOM     25  C   UNL     1       6.952   4.275  11.649  0.00  0.00    +0.000 A 
ATOM     26  C   UNL     1       6.031   3.444  12.285  0.00  0.00    +0.000 A 
ATOM     27  C   UNL     1       5.911   3.468  13.677  0.00  0.00    +0.000 A 
ENDBRANCH  21  22
ENDBRANCH   9  21
TORSDOF 6
ENDMDL
MODEL 3
REMARK VINA RESULT:      -7.4      0.797      1.124
REMARK  Name = 
REMARK  6 active torsions:
REMARK  status: ('A' for Active; 'I' for Inactive)
REMARK    1  A    between atoms: C_2  and  C_3
REMARK    2  A    between atoms: C_3  and  C_4
REMARK    3  A    between atoms: C_4  and  N_5
REMARK    4  A    between atoms: C_8  and  C_9
REMARK    5  A    between atoms: C_18  and  O_19
REMARK    6  A    between atoms: O_19  and  C_20
REMARK                            x       y       z     vdW  Elec       q    Type
REMARK                         _______ _______ _______ _____ _____    ______ ____
ROOT
ATOM      1  N   UNL     1       2.855   5.936  19.559  0.00  0.00    +0.000 N 
ATOM      2  C   UNL     1       3.800   5.321  18.746  0.00  0.00    +0.000 A 
ATOM      3  O   UNL     1       4.316   4.244  19.013  0.00  0.00    +0.000 OA
ATOM      4  C   UNL     1       4.213   6.085  17.472  0.00  0.00    +0.000 A 
ATOM      5  N   UNL     1       3.766   7.279  17.210  0.00  0.00    +0.000 NA
ATOM      6  C   UNL     1       2.860   7.857  18.112  0.00  0.00    +0.000 A 
ATOM      7  C   UNL     1       2.355   9.121  17.889  0.00  0.00    +0.000 A 
ATOM      8  N   UNL     1       1.479   9.739  18.705  0.00  0.00    +0.000 NA
ATOM      9  C   UNL     1       1.069   9.038  19.775  0.00  0.00    +0.000 A 
ATOM     10  N   UNL     1       1.507   7.813  20.111  0.00  0.00    +0.000 NA
ATOM     11  C   UNL     1       2.388   7.239  19.265  0.00  0.00    +0.000 A 
ENDROOT
BRANCH   4  12
ATOM     12  C   UNL     1       5.134   5.414  16.571  0.00  0.00    +0.000 A 
ATOM     13  C   UNL     1       4.871   4.462  15.602  0.00  0.00    +0.000 A 
ATOM     14  C   UNL     1       6.046   3.993  14.950  0.00  0.00    +0.000 A 
ATOM     15  C   UNL     1       7.177   4.616  15.426  0.00  0.00    +0.000 A 
ATOM     16  S   UNL     1       6.813   5.768  16.635  0.00  0.00    +0.000 S 
ENDBRANCH   4  12
BRANCH   1  17
ATOM     17  C   UNL     1       2.420   5.259  20.782  0.00  0.00    +0.000 C 
BRANCH  17  18
ATOM     18  C   UNL     1       1.284   4.247  20.613  0.00  0.00    +0.000 C 
BRANCH  18  20
ATOM     19  N   UNL     1       1.545   2.165  22.192  0.00  0.00    +0.000 NA
ATOM     20  C   UNL     1       1.440   3.086  21.494  0.00  0.00    +0.000 C 
ENDBRANCH  18  20
ENDBRANCH  17  18
ENDBRANCH   1  17
BRANCH   9  21
ATOM     21  O   UNL     1       0.143   9.596  20.644  0.00  0.00    +0.000 OA
BRANCH  21  22
ATOM     22  C   UNL     1      -0.386  10.831  20.334  0.00  0.00    +0.000 A 
ATOM     23  C   UNL     1      -1.369  11.039  19.362  0.00  0.00    +0.000 A 
ATOM     24  C   UNL     1      -1.864  12.321  19.124  0.00  0.00    +0.000 A 
ATOM     25  C   UNL     1      -1.406  13.396  19.883  0.00  0.00    +0.000 A 
ATOM     26  C   UNL     1      -0.456  13.189  20.882  0.00  0.00    +0.000 A 
ATOM     27  C   UNL     1       0.051  11.908  21.110  0.00  0.00    +0.000 A 
ENDBRANCH  21  22
ENDBRANCH   9  21
TORSDOF 6
ENDMDL
MODEL 4
REMARK VINA RESULT:      -7.3      1.566      1.972
REMARK  Name = 
REMARK  6 active torsions:
REMARK  status: ('A' for Active; 'I' for Inactive)
REMARK    1  A    between atoms: C_2  and  C_3
REMARK    2  A    between atoms: C_3  and  C_4
REMARK    3  A    between atoms: C_4  and  N_5
REMARK    4  A    between atoms: C_8  and  C_9
REMARK    5  A    between atoms: C_18  and  O_19
REMARK    6  A    between atoms: O_19  and  C_20
REMARK                            x       y       z     vdW  Elec       q    Type
REMARK                         _______ _______ _______ _____ _____    ______ ____
ROOT
ATOM      1  N   UNL     1       2.933   5.132  19.830  0.00  0.00    +0.000 N 
ATOM      2  C   UNL     1       3.870   4.688  18.904  0.00  0.00    +0.000 A 
ATOM      3  O   UNL     1       4.441   3.609  18.992  0.00  0.00    +0.000 OA
ATOM      4  C   UNL     1       4.200   5.649  17.745  0.00  0.00    +0.000 A 
ATOM      5  N   UNL     1       3.694   6.846  17.678  0.00  0.00    +0.000 NA
ATOM      6  C   UNL     1       2.800   7.242  18.684  0.00  0.00    +0.000 A 
ATOM      7  C   UNL     1       2.233   8.499  18.668  0.00  0.00    +0.000 A 
ATOM      8  N   UNL     1       1.365   8.948  19.594  0.00  0.00    +0.000 NA
ATOM      9  C   UNL     1       1.027   8.080  20.561  0.00  0.00    +0.000 A 
ATOM     10  N   UNL     1       1.529   6.841  20.697  0.00  0.00    +0.000 NA
ATOM     11  C   UNL     1       2.400   6.440  19.748  0.00  0.00    +0.000 A 
ENDROOT
BRANCH   4  12
ATOM     12  C   UNL     1       5.113   5.162  16.724  0.00  0.00    +0.000 A 
ATOM     13  C   UNL     1       4.887   4.238  15.720  0.00  0.00    +0.000 A 
ATOM     14  C   UNL     1       6.048   3.972  14.939  0.00  0.00    +0.000 A 
ATOM     15  C   UNL     1       7.126   4.717  15.357  0.00  0.00    +0.000 A 
ATOM     16  S   UNL     1       6.729   5.740  16.668  0.00  0.00    +0.000 S 
ENDBRANCH   4  12
BRANCH   1  17
ATOM     17  C   UNL     1       2.574   4.262  20.952  0.00  0.00    +0.000 C 
BRANCH  17  18
ATOM     18  C   UNL     1       1.224   3.552  20.838  0.00  0.00    +0.000 C 
BRANCH  18  20
ATOM     19  N   UNL     1       0.843   2.514  18.456  0.00  0.00    +0.000 NA
ATOM     20  C   UNL     1       1.007   2.982  19.505  0.00  0.00    +0.000 C 
ENDBRANCH  18  20
ENDBRANCH  17  18
ENDBRANCH   1  17
BRANCH   9  21
ATOM     21  O   UNL     1       0.113   8.460  21.533  0.00  0.00    +0.000 OA
BRANCH  21  22
ATOM     22  C   UNL     1      -0.350   9.758  21.526  0.00  0.00    +0.000 A 
ATOM     23  C   UNL     1      -0.711  10.454  20.368  0.00  0.00    +0.000 A 
ATOM     24  C   UNL     1      -1.188  11.762  20.454  0.00  0.00    +0.000 A 
ATOM     25  C   UNL     1      -1.343  12.368  21.699  0.00  0.00    +0.000 A 
ATOM     26  C   UNL     1      -1.024  11.664  22.860  0.00  0.00    +0.000 A 
ATOM     27  C   UNL     1      -0.531  10.360  22.774  0.00  0.00    +0.000 A 
ENDBRANCH  21  22
ENDBRANCH   9  21
TORSDOF 6
ENDMDL
MODEL 5
REMARK VINA RESULT:      -7.3      1.024      1.608
REMARK  Name = 
REMARK  6 active torsions:
REMARK  status: ('A' for Active; 'I' for Inactive)
REMARK    1  A    between atoms: C_2  and  C_3
REMARK    2  A    between atoms: C_3  and  C_4
REMARK    3  A    between atoms: C_4  and  N_5
REMARK    4  A    between atoms: C_8  and  C_9
REMARK    5  A    between atoms: C_18  and  O_19
REMARK    6  A    between atoms: O_19  and  C_20
REMARK                            x       y       z     vdW  Elec       q    Type
REMARK                         _______ _______ _______ _____ _____    ______ ____
ROOT
ATOM      1  N   UNL     1       2.735   6.099  19.596  0.00  0.00    +0.000 N 
ATOM      2  C   UNL     1       3.699   5.446  18.835  0.00  0.00    +0.000 A 
ATOM      3  O   UNL     1       4.195   4.375  19.157  0.00  0.00    +0.000 OA
ATOM      4  C   UNL     1       4.159   6.161  17.549  0.00  0.00    +0.000 A 
ATOM      5  N   UNL     1       3.733   7.349  17.231  0.00  0.00    +0.000 NA
ATOM      6  C   UNL     1       2.805   7.966  18.082  0.00  0.00    +0.000 A 
ATOM      7  C   UNL     1       2.320   9.226  17.799  0.00  0.00    +0.000 A 
ATOM      8  N   UNL     1       1.425   9.880  18.564  0.00  0.00    +0.000 NA
ATOM      9  C   UNL     1       0.975   9.222  19.645  0.00  0.00    +0.000 A 
ATOM     10  N   UNL     1       1.389   8.005  20.038  0.00  0.00    +0.000 NA
ATOM     11  C   UNL     1       2.291   7.394  19.241  0.00  0.00    +0.000 A 
ENDROOT
BRANCH   4  12
ATOM     12  C   UNL     1       5.101   5.449  16.701  0.00  0.00    +0.000 A 
ATOM     13  C   UNL     1       4.867   4.421  15.807  0.00  0.00    +0.000 A 
ATOM     14  C   UNL     1       6.058   3.937  15.193  0.00  0.00    +0.000 A 
ATOM     15  C   UNL     1       7.169   4.625  15.622  0.00  0.00    +0.000 A 
ATOM     16  S   UNL     1       6.770   5.854  16.741  0.00  0.00    +0.000 S 
ENDBRANCH   4  12
BRANCH   1  17
ATOM     17  C   UNL     1       2.255   5.469  20.827  0.00  0.00    +0.000 C 
BRANCH  17  18
ATOM     18  C   UNL     1       1.236   4.342  20.644  0.00  0.00    +0.000 C 
BRANCH  18  20
ATOM     19  N   UNL     1       1.797   2.237  22.111  0.00  0.00    +0.000 NA
ATOM     20  C   UNL     1       1.558   3.166  21.457  0.00  0.00    +0.000 C 
ENDBRANCH  18  20
ENDBRANCH  17  18
ENDBRANCH   1  17
BRANCH   9  21
ATOM     21  O   UNL     1       0.027   9.819  20.464  0.00  0.00    +0.000 OA
BRANCH  21  22
ATOM     22  C   UNL     1      -0.100  11.191  20.428  0.00  0.00    +0.000 A 
ATOM     23  C   UNL     1       0.869  12.079  20.905  0.00  0.00    +0.000 A 
ATOM     24  C   UNL     1       0.668  13.456  20.814  0.00  0.00    +0.000 A 
ATOM     25  C   UNL     1      -0.486  13.953  20.211  0.00  0.00    +0.000 A 
ATOM     26  C   UNL     1      -1.437  13.073  19.696  0.00  0.00    +0.000 A 
ATOM     27  C   UNL     1      -1.243  11.694  19.801  0.00  0.00    +0.000 A 
ENDBRANCH  21  22
ENDBRANCH   9  21
TORSDOF 6
ENDMDL
MODEL 6
REMARK VINA RESULT:      -7.3      2.685      7.761
REMARK  Name = 
REMARK  6 active torsions:
REMARK  status: ('A' for Active; 'I' for Inactive)
REMARK    1  A    between atoms: C_2  and  C_3
REMARK    2  A    between atoms: C_3  and  C_4
REMARK    3  A    between atoms: C_4  and  N_5
REMARK    4  A    between atoms: C_8  and  C_9
REMARK    5  A    between atoms: C_18  and  O_19
REMARK    6  A    between atoms: O_19  and  C_20
REMARK                            x       y       z     vdW  Elec       q    Type
REMARK                         _______ _______ _______ _____ _____    ______ ____
ROOT
ATOM      1  N   UNL     1       2.943   4.931  18.829  0.00  0.00    +0.000 N 
ATOM      2  C   UNL     1       2.120   5.842  19.483  0.00  0.00    +0.000 A 
ATOM      3  O   UNL     1       1.228   5.508  20.251  0.00  0.00    +0.000 OA
ATOM      4  C   UNL     1       2.358   7.332  19.168  0.00  0.00    +0.000 A 
ATOM      5  N   UNL     1       3.224   7.717  18.276  0.00  0.00    +0.000 NA
ATOM      6  C   UNL     1       3.975   6.733  17.617  0.00  0.00    +0.000 A 
ATOM      7  C   UNL     1       4.906   7.080  16.661  0.00  0.00    +0.000 A 
ATOM      8  N   UNL     1       5.666   6.194  15.989  0.00  0.00    +0.000 NA
ATOM      9  C   UNL     1       5.504   4.903  16.321  0.00  0.00    +0.000 A 
ATOM     10  N   UNL     1       4.615   4.440  17.215  0.00  0.00    +0.000 NA
ATOM     11  C   UNL     1       3.872   5.367  17.856  0.00  0.00    +0.000 A 
ENDROOT
BRANCH   4  12
ATOM     12  C   UNL     1       1.564   8.297  19.909  0.00  0.00    +0.000 A 
ATOM     13  C   UNL     1       1.232   8.308  21.252  0.00  0.00    +0.000 A 
ATOM     14  C   UNL     1       0.385   9.396  21.606  0.00  0.00    +0.000 A 
ATOM     15  C   UNL     1       0.108  10.200  20.524  0.00  0.00    +0.000 A 
ATOM     16  S   UNL     1       0.881   9.651  19.103  0.00  0.00    +0.000 S 
ENDBRANCH   4  12
BRANCH   1  17
ATOM     17  C   UNL     1       2.768   3.501  19.090  0.00  0.00    +0.000 C 
BRANCH  17  18
ATOM     18  C   UNL     1       3.413   2.975  20.374  0.00  0.00    +0.000 C 
BRANCH  18  20
ATOM     19  N   UNL     1       1.649   2.528  22.267  0.00  0.00    +0.000 NA
ATOM     20  C   UNL     1       2.428   2.736  21.432  0.00  0.00    +0.000 C 
ENDBRANCH  18  20
ENDBRANCH  17  18
ENDBRANCH   1  17
BRANCH   9  21
ATOM     21  O   UNL     1       6.276   3.934  15.695  0.00  0.00    +0.000 OA
BRANCH  21  22
ATOM     22  C   UNL     1       6.523   4.063  14.345  0.00  0.00    +0.000 A 
ATOM     23  C   UNL     1       5.782   3.420  13.349  0.00  0.00    +0.000 A 
ATOM     24  C   UNL     1       6.089   3.620  12.003  0.00  0.00    +0.000 A 
ATOM     25  C   UNL     1       7.113   4.495  11.645  0.00  0.00    +0.000 A 
ATOM     26  C   UNL     1       7.828   5.171  12.632  0.00  0.00    +0.000 A 
ATOM     27  C   UNL     1       7.532   4.959  13.981  0.00  0.00    +0.000 A 
ENDBRANCH  21  22
ENDBRANCH   9  21
TORSDOF 6
ENDMDL
MODEL 7
REMARK VINA RESULT:      -7.2      3.841      8.931
REMARK  Name = 
REMARK  6 active torsions:
REMARK  status: ('A' for Active; 'I' for Inactive)
REMARK    1  A    between atoms: C_2  and  C_3
REMARK    2  A    between atoms: C_3  and  C_4
REMARK    3  A    between atoms: C_4  and  N_5
REMARK    4  A    between atoms: C_8  and  C_9
REMARK    5  A    between atoms: C_18  and  O_19
REMARK    6  A    between atoms: O_19  and  C_20
REMARK                            x       y       z     vdW  Elec       q    Type
REMARK                         _______ _______ _______ _____ _____    ______ ____
ROOT
ATOM      1  N   UNL     1      -0.664  10.844  19.919  0.00  0.00    +0.000 N 
ATOM      2  C   UNL     1      -1.371  11.754  20.696  0.00  0.00    +0.000 A 
ATOM      3  O   UNL     1      -2.086  12.627  20.222  0.00  0.00    +0.000 OA
ATOM      4  C   UNL     1      -1.188  11.643  22.222  0.00  0.00    +0.000 A 
ATOM      5  N   UNL     1      -0.355  10.799  22.756  0.00  0.00    +0.000 NA
ATOM      6  C   UNL     1       0.367   9.952  21.900  0.00  0.00    +0.000 A 
ATOM      7  C   UNL     1       1.266   9.039  22.408  0.00  0.00    +0.000 A 
ATOM      8  N   UNL     1       1.990   8.192  21.652  0.00  0.00    +0.000 NA
ATOM      9  C   UNL     1       1.773   8.246  20.327  0.00  0.00    +0.000 A 
ATOM     10  N   UNL     1       0.943   9.106  19.714  0.00  0.00    +0.000 NA
ATOM     11  C   UNL     1       0.246   9.939  20.515  0.00  0.00    +0.000 A 
ENDROOT
BRANCH   4  12
ATOM     12  C   UNL     1      -1.988  12.533  23.048  0.00  0.00    +0.000 A 
ATOM     13  C   UNL     1      -3.258  12.341  23.561  0.00  0.00    +0.000 A 
ATOM     14  C   UNL     1      -3.740  13.469  24.285  0.00  0.00    +0.000 A 
ATOM     15  C   UNL     1      -2.814  14.486  24.322  0.00  0.00    +0.000 A 
ATOM     16  S   UNL     1      -1.372  14.069  23.504  0.00  0.00    +0.000 S 
ENDBRANCH   4  12
BRANCH   1  17
ATOM     17  C   UNL     1      -0.799  10.896  18.462  0.00  0.00    +0.000 C 
BRANCH  17  18
ATOM     18  C   UNL     1      -1.902  10.021  17.864  0.00  0.00    +0.000 C 
BRANCH  18  20
ATOM     19  N   UNL     1      -2.773  10.972  15.576  0.00  0.00    +0.000 NA
ATOM     20  C   UNL     1      -2.397  10.545  16.588  0.00  0.00    +0.000 C 
ENDBRANCH  18  20
ENDBRANCH  17  18
ENDBRANCH   1  17
BRANCH   9  21
ATOM     21  O   UNL     1       2.458   7.381  19.486  0.00  0.00    +0.000 OA
BRANCH  21  22
ATOM     22  C   UNL     1       2.018   6.079  19.384  0.00  0.00    +0.000 A 
ATOM     23  C   UNL     1       1.992   5.353  18.189  0.00  0.00    +0.000 A 
ATOM     24  C   UNL     1       1.547   4.031  18.178  0.00  0.00    +0.000 A 
ATOM     25  C   UNL     1       1.163   3.415  19.368  0.00  0.00    +0.000 A 
ATOM     26  C   UNL     1       1.227   4.120  20.569  0.00  0.00    +0.000 A 
ATOM     27  C   UNL     1       1.656   5.449  20.578  0.00  0.00    +0.000 A 
ENDBRANCH  21  22
ENDBRANCH   9  21
TORSDOF 6
ENDMDL
MODEL 8
REMARK VINA RESULT:      -7.2      3.855      9.043
REMARK  Name = 
REMARK  6 active torsions:
REMARK  status: ('A' for Active; 'I' for Inactive)
REMARK    1  A    between atoms: C_2  and  C_3
REMARK    2  A    between atoms: C_3  and  C_4
REMARK    3  A    between atoms: C_4  and  N_5
REMARK    4  A    between atoms: C_8  and  C_9
REMARK    5  A    between atoms: C_18  and  O_19
REMARK    6  A    between atoms: O_19  and  C_20
REMARK                            x       y       z     vdW  Elec       q    Type
REMARK                         _______ _______ _______ _____ _____    ______ ____
ROOT
ATOM      1  N   UNL     1      -0.727  10.943  19.982  0.00  0.00    +0.000 N 
ATOM      2  C   UNL     1      -1.439  11.842  20.769  0.00  0.00    +0.000 A 
ATOM      3  O   UNL     1      -2.148  12.724  20.304  0.00  0.00    +0.000 OA
ATOM      4  C   UNL     1      -1.270  11.702  22.295  0.00  0.00    +0.000 A 
ATOM      5  N   UNL     1      -0.444  10.847  22.821  0.00  0.00    +0.000 NA
ATOM      6  C   UNL     1       0.283  10.014  21.957  0.00  0.00    +0.000 A 
ATOM      7  C   UNL     1       1.176   9.090  22.456  0.00  0.00    +0.000 A 
ATOM      8  N   UNL     1       1.906   8.255  21.691  0.00  0.00    +0.000 NA
ATOM      9  C   UNL     1       1.701   8.333  20.366  0.00  0.00    +0.000 A 
ATOM     10  N   UNL     1       0.879   9.206  19.761  0.00  0.00    +0.000 NA
ATOM     11  C   UNL     1       0.175  10.026  20.570  0.00  0.00    +0.000 A 
ENDROOT
BRANCH   4  12
ATOM     12  C   UNL     1      -2.076  12.579  23.129  0.00  0.00    +0.000 A 
ATOM     13  C   UNL     1      -3.345  12.375  23.640  0.00  0.00    +0.000 A 
ATOM     14  C   UNL     1      -3.834  13.492  24.375  0.00  0.00    +0.000 A 
ATOM     15  C   UNL     1      -2.914  14.514  24.421  0.00  0.00    +0.000 A 
ATOM     16  S   UNL     1      -1.470  14.115  23.600  0.00  0.00    +0.000 S 
ENDBRANCH   4  12
BRANCH   1  17
ATOM     17  C   UNL     1      -0.848  11.022  18.525  0.00  0.00    +0.000 C 
BRANCH  17  18
ATOM     18  C   UNL     1      -1.938  10.149  17.900  0.00  0.00    +0.000 C 
BRANCH  18  20
ATOM     19  N   UNL     1      -3.985  11.557  17.049  0.00  0.00    +0.000 NA
ATOM     20  C   UNL     1      -3.074  10.940  17.418  0.00  0.00    +0.000 C 
ENDBRANCH  18  20
ENDBRANCH  17  18
ENDBRANCH   1  17
BRANCH   9  21
ATOM     21  O   UNL     1       2.392   7.482  19.516  0.00  0.00    +0.000 OA
BRANCH  21  22
ATOM     22  C   UNL     1       2.025   6.153  19.477  0.00  0.00    +0.000 A 
ATOM     23  C   UNL     1       1.550   5.441  20.582  0.00  0.00    +0.000 A 
ATOM     24  C   UNL     1       1.183   4.101  20.451  0.00  0.00    +0.000 A 
ATOM     25  C   UNL     1       1.254   3.478  19.207  0.00  0.00    +0.000 A 
ATOM     26  C   UNL     1       1.688   4.195  18.093  0.00  0.00    +0.000 A 
ATOM     27  C   UNL     1       2.071   5.532  18.227  0.00  0.00    +0.000 A 
ENDBRANCH  21  22
ENDBRANCH   9  21
TORSDOF 6
ENDMDL
MODEL 9
REMARK VINA RESULT:      -7.2      2.896      7.833
REMARK  Name = 
REMARK  6 active torsions:
REMARK  status: ('A' for Active; 'I' for Inactive)
REMARK    1  A    between atoms: C_2  and  C_3
REMARK    2  A    between atoms: C_3  and  C_4
REMARK    3  A    between atoms: C_4  and  N_5
REMARK    4  A    between atoms: C_8  and  C_9
REMARK    5  A    between atoms: C_18  and  O_19
REMARK    6  A    between atoms: O_19  and  C_20
REMARK                            x       y       z     vdW  Elec       q    Type
REMARK                         _______ _______ _______ _____ _____    ______ ____
ROOT
ATOM      1  N   UNL     1       2.661   4.848  18.995  0.00  0.00    +0.000 N 
ATOM      2  C   UNL     1       1.932   5.791  19.710  0.00  0.00    +0.000 A 
ATOM      3  O   UNL     1       1.048   5.494  20.502  0.00  0.00    +0.000 OA
ATOM      4  C   UNL     1       2.266   7.270  19.435  0.00  0.00    +0.000 A 
ATOM      5  N   UNL     1       3.123   7.625  18.524  0.00  0.00    +0.000 NA
ATOM      6  C   UNL     1       3.776   6.614  17.802  0.00  0.00    +0.000 A 
ATOM      7  C   UNL     1       4.693   6.929  16.822  0.00  0.00    +0.000 A 
ATOM      8  N   UNL     1       5.362   6.016  16.092  0.00  0.00    +0.000 NA
ATOM      9  C   UNL     1       5.119   4.728  16.387  0.00  0.00    +0.000 A 
ATOM     10  N   UNL     1       4.233   4.297  17.300  0.00  0.00    +0.000 NA
ATOM     11  C   UNL     1       3.583   5.251  18.000  0.00  0.00    +0.000 A 
ENDROOT
BRANCH   4  12
ATOM     12  C   UNL     1       1.571   8.262  20.240  0.00  0.00    +0.000 A 
ATOM     13  C   UNL     1       1.369   8.292  21.608  0.00  0.00    +0.000 A 
ATOM     14  C   UNL     1       0.589   9.406  22.030  0.00  0.00    +0.000 A 
ATOM     15  C   UNL     1       0.232  10.209  20.972  0.00  0.00    +0.000 A 
ATOM     16  S   UNL     1       0.852   9.629  19.489  0.00  0.00    +0.000 S 
ENDBRANCH   4  12
BRANCH   1  17
ATOM     17  C   UNL     1       2.394   3.425  19.214  0.00  0.00    +0.000 C 
BRANCH  17  18
ATOM     18  C   UNL     1       2.815   2.872  20.577  0.00  0.00    +0.000 C 
BRANCH  18  20
ATOM     19  N   UNL     1       5.173   1.717  20.515  0.00  0.00    +0.000 NA
ATOM     20  C   UNL     1       4.132   2.231  20.533  0.00  0.00    +0.000 C 
ENDBRANCH  18  20
ENDBRANCH  17  18
ENDBRANCH   1  17
BRANCH   9  21
ATOM     21  O   UNL     1       5.794   3.730  15.699  0.00  0.00    +0.000 OA
BRANCH  21  22
ATOM     22  C   UNL     1       6.274   4.012  14.438  0.00  0.00    +0.000 A 
ATOM     23  C   UNL     1       7.389   4.818  14.187  0.00  0.00    +0.000 A 
ATOM     24  C   UNL     1       7.818   5.037  12.878  0.00  0.00    +0.000 A 
ATOM     25  C   UNL     1       7.160   4.421  11.816  0.00  0.00    +0.000 A 
ATOM     26  C   UNL     1       6.073   3.583  12.062  0.00  0.00    +0.000 A 
ATOM     27  C   UNL     1       5.632   3.376  13.372  0.00  0.00    +0.000 A 
ENDBRANCH  21  22
ENDBRANCH   9  21
TORSDOF 6
ENDMDL
