MODEL 1
REMARK VINA RESULT:      -7.0      0.000      0.000
REMARK  Name = 
REMARK  17 active torsions:
REMARK  status: ('A' for Active; 'I' for Inactive)
REMARK    1  A    between atoms: C_1  and  C_2
REMARK    2  A    between atoms: C_2  and  C_3
REMARK    3  A    between atoms: C_4  and  C_5
REMARK    4  A    between atoms: C_5  and  C_6
REMARK    5  A    between atoms: C_6  and  C_7
REMARK    6  A    between atoms: C_7  and  C_8
REMARK    7  A    between atoms: C_9  and  C_10
REMARK    8  A    between atoms: C_10  and  N_11
REMARK    9  A    between atoms: C_13  and  C_14
REMARK   10  A    between atoms: C_14  and  C_15
REMARK   11  A    between atoms: C_15  and  C_16
REMARK   12  A    between atoms: C_15  and  P_17
REMARK   13  A    between atoms: C_15  and  P_21
REMARK   14  A    between atoms: P_17  and  O_19
REMARK   15  A    between atoms: P_17  and  O_20
REMARK   16  A    between atoms: P_21  and  O_23
REMARK   17  A    between atoms: P_21  and  O_24
REMARK                            x       y       z     vdW  Elec       q    Type
REMARK                         _______ _______ _______ _____ _____    ______ ____
ROOT
ATOM      1  N   UNL     1       7.415   6.325  18.227  0.00  0.00    +0.000 N 
ATOM      2  C   UNL     1       6.137   6.425  17.749  0.00  0.00    +0.000 A 
ATOM      3  C   UNL     1       5.711   5.118  17.623  0.00  0.00    +0.000 A 
ATOM      4  N   UNL     1       6.722   4.296  18.051  0.00  0.00    +0.000 NA
ATOM      5  N   UNL     1       7.768   5.038  18.373  0.00  0.00    +0.000 NA
ENDROOT
BRANCH   1   6
ATOM      6  C   UNL     1       8.325   7.385  18.642  0.00  0.00    +0.000 C 
BRANCH   6   9
ATOM      7  C   UNL     1       8.547   9.906  18.296  0.00  0.00    +0.000 C 
ATOM      8  C   UNL     1       8.145  11.089  17.455  0.00  0.00    +0.000 C 
ATOM      9  C   UNL     1       8.084   8.688  17.937  0.00  0.00    +0.000 C 
BRANCH   7  10
ATOM     10  C   UNL     1       9.468  10.086  19.495  0.00  0.00    +0.000 C 
BRANCH  10  11
ATOM     11  C   UNL     1      10.379  11.321  19.515  0.00  0.00    +0.000 C 
BRANCH  11  15
ATOM     12  C   UNL     1       9.451  14.033  22.173  0.00  0.00    +0.000 C 
ATOM     13  C   UNL     1       9.545  13.316  20.855  0.00  0.00    +0.000 C 
ATOM     14  C   UNL     1       8.904  13.977  19.667  0.00  0.00    +0.000 C 
ATOM     15  C   UNL     1      10.187  12.132  20.770  0.00  0.00    +0.000 C 
ENDBRANCH  11  15
ENDBRANCH  10  11
ENDBRANCH   7  10
ENDBRANCH   6   9
ENDBRANCH   1   6
BRANCH   3  16
ATOM     16  C   UNL     1       4.425   4.536  17.109  0.00  0.00    +0.000 C 
BRANCH  16  17
ATOM     17  C   UNL     1       3.371   4.202  18.188  0.00  0.00    +0.000 C 
ATOM     18  C   UNL     1       2.013   3.791  17.462  0.00  0.00    +0.000 C 
BRANCH  17  19
ATOM     19  P   UNL     1       3.690   2.610  19.072  0.00  0.00    +0.000 P 
ATOM     20  O   UNL     1       3.551   1.385  18.236  0.00  0.00    +0.000 OA
BRANCH  19  21
ATOM     21  O   UNL     1       5.139   2.713  19.758  0.00  0.00    +0.000 OA
ATOM     22  H   UNL     1       5.822   3.216  19.279  0.00  0.00    +0.000 HD
ENDBRANCH  19  21
BRANCH  19  23
ATOM     23  O   UNL     1       2.824   2.472  20.406  0.00  0.00    +0.000 OA
ATOM     24  H   UNL     1       2.521   3.370  20.675  0.00  0.00    +0.000 HD
ENDBRANCH  19  23
ENDBRANCH  17  19
BRANCH  17  25
ATOM     25  P   UNL     1       2.951   5.547  19.355  0.00  0.00    +0.000 P 
ATOM     26  O   UNL     1       2.550   6.499  18.228  0.00  0.00    +0.000 OA
BRANCH  25  27
ATOM     27  O   UNL     1       1.578   4.831  19.865  0.00  0.00    +0.000 OA
ATOM     28  H   UNL     1       1.122   4.275  19.202  0.00  0.00    +0.000 HD
ENDBRANCH  25  27
BRANCH  25  29
ATOM     29  O   UNL     1       2.556   6.819  20.459  0.00  0.00    +0.000 OA
ATOM     30  H   UNL     1       3.416   7.176  20.755  0.00  0.00    +0.000 HD
ENDBRANCH  25  29
ENDBRANCH  17  25
ENDBRANCH  16  17
ENDBRANCH   3  16
TORSDOF 13
ENDMDL
MODEL 2
REMARK VINA RESULT:      -6.9      1.077      1.567
REMARK  Name = 
REMARK  17 active torsions:
REMARK  status: ('A' for Active; 'I' for Inactive)
REMARK    1  A    between atoms: C_1  and  C_2
REMARK    2  A    between atoms: C_2  and  C_3
REMARK    3  A    between atoms: C_4  and  C_5
REMARK    4  A    between atoms: C_5  and  C_6
REMARK    5  A    between atoms: C_6  and  C_7
REMARK    6  A    between atoms: C_7  and  C_8
REMARK    7  A    between atoms: C_9  and  C_10
REMARK    8  A    between atoms: C_10  and  N_11
REMARK    9  A    between atoms: C_13  and  C_14
REMARK   10  A    between atoms: C_14  and  C_15
REMARK   11  A    between atoms: C_15  and  C_16
REMARK   12  A    between atoms: C_15  and  P_17
REMARK   13  A    between atoms: C_15  and  P_21
REMARK   14  A    between atoms: P_17  and  O_19
REMARK   15  A    between atoms: P_17  and  O_20
REMARK   16  A    between atoms: P_21  and  O_23
REMARK   17  A    between atoms: P_21  and  O_24
REMARK                            x       y       z     vdW  Elec       q    Type
REMARK                         _______ _______ _______ _____ _____    ______ ____
ROOT
ATOM      1  N   UNL     1       7.482   6.269  18.651  0.00  0.00    +0.000 N 
ATOM      2  C   UNL     1       6.607   6.012  17.631  0.00  0.00    +0.000 A 
ATOM      3  C   UNL     1       5.875   4.926  18.068  0.00  0.00    +0.000 A 
ATOM      4  N   UNL     1       6.311   4.595  19.325  0.00  0.00    +0.000 NA
ATOM      5  N   UNL     1       7.317   5.389  19.651  0.00  0.00    +0.000 NA
ENDROOT
BRANCH   1   6
ATOM      6  C   UNL     1       8.435   7.363  18.788  0.00  0.00    +0.000 C 
BRANCH   6   9
ATOM      7  C   UNL     1       8.420   9.858  18.245  0.00  0.00    +0.000 C 
ATOM      8  C   UNL     1       7.900  10.932  17.324  0.00  0.00    +0.000 C 
ATOM      9  C   UNL     1       8.066   8.579  17.991  0.00  0.00    +0.000 C 
BRANCH   7  10
ATOM     10  C   UNL     1       9.340  10.214  19.405  0.00  0.00    +0.000 C 
BRANCH  10  11
ATOM     11  C   UNL     1      10.575  11.072  19.100  0.00  0.00    +0.000 C 
BRANCH  11  15
ATOM     12  C   UNL     1      10.239  14.965  18.983  0.00  0.00    +0.000 C 
ATOM     13  C   UNL     1      10.497  13.553  18.539  0.00  0.00    +0.000 C 
ATOM     14  C   UNL     1      10.945  13.351  17.119  0.00  0.00    +0.000 C 
ATOM     15  C   UNL     1      10.328  12.528  19.401  0.00  0.00    +0.000 C 
ENDBRANCH  11  15
ENDBRANCH  10  11
ENDBRANCH   7  10
ENDBRANCH   6   9
ENDBRANCH   1   6
BRANCH   3  16
ATOM     16  C   UNL     1       4.790   4.126  17.404  0.00  0.00    +0.000 C 
BRANCH  16  17
ATOM     17  C   UNL     1       3.499   3.945  18.233  0.00  0.00    +0.000 C 
ATOM     18  C   UNL     1       2.282   3.707  17.231  0.00  0.00    +0.000 C 
BRANCH  17  19
ATOM     19  P   UNL     1       3.415   2.336  19.138  0.00  0.00    +0.000 P 
ATOM     20  O   UNL     1       3.776   2.405  20.582  0.00  0.00    +0.000 OA
BRANCH  19  21
ATOM     21  O   UNL     1       1.949   1.721  18.911  0.00  0.00    +0.000 OA
ATOM     22  H   UNL     1       1.532   1.274  19.669  0.00  0.00    +0.000 HD
ENDBRANCH  19  21
BRANCH  19  23
ATOM     23  O   UNL     1       4.252   1.186  18.413  0.00  0.00    +0.000 OA
ATOM     24  H   UNL     1       3.751   0.341  18.489  0.00  0.00    +0.000 HD
ENDBRANCH  19  23
ENDBRANCH  17  19
BRANCH  17  25
ATOM     25  P   UNL     1       3.023   5.347  19.308  0.00  0.00    +0.000 P 
ATOM     26  O   UNL     1       2.267   6.051  18.180  0.00  0.00    +0.000 OA
BRANCH  25  27
ATOM     27  O   UNL     1       1.916   4.483  20.138  0.00  0.00    +0.000 OA
ATOM     28  H   UNL     1       2.151   4.278  21.064  0.00  0.00    +0.000 HD
ENDBRANCH  25  27
BRANCH  25  29
ATOM     29  O   UNL     1       2.574   6.673  20.325  0.00  0.00    +0.000 OA
ATOM     30  H   UNL     1       2.181   6.262  21.119  0.00  0.00    +0.000 HD
ENDBRANCH  25  29
ENDBRANCH  17  25
ENDBRANCH  16  17
ENDBRANCH   3  16
TORSDOF 13
ENDMDL
MODEL 3
REMARK VINA RESULT:      -6.9      5.495      6.734
REMARK  Name = 
REMARK  17 active torsions:
REMARK  status: ('A' for Active; 'I' for Inactive)
REMARK    1  A    between atoms: C_1  and  C_2
REMARK    2  A    between atoms: C_2  and  C_3
REMARK    3  A    between atoms: C_4  and  C_5
REMARK    4  A    between atoms: C_5  and  C_6
REMARK    5  A    between atoms: C_6  and  C_7
REMARK    6  A    between atoms: C_7  and  C_8
REMARK    7  A    between atoms: C_9  and  C_10
REMARK    8  A    between atoms: C_10  and  N_11
REMARK    9  A    between atoms: C_13  and  C_14
REMARK   10  A    between atoms: C_14  and  C_15
REMARK   11  A    between atoms: C_15  and  C_16
REMARK   12  A    between atoms: C_15  and  P_17
REMARK   13  A    between atoms: C_15  and  P_21
REMARK   14  A    between atoms: P_17  and  O_19
REMARK   15  A    between atoms: P_17  and  O_20
REMARK   16  A    between atoms: P_21  and  O_23
REMARK   17  A    between atoms: P_21  and  O_24
REMARK                            x       y       z     vdW  Elec       q    Type
REMARK                         _______ _______ _______ _____ _____    ______ ____
ROOT
ATOM      1  N   UNL     1       2.097   8.208  18.607  0.00  0.00    +0.000 N 
ATOM      2  C   UNL     1       1.854   7.620  19.818  0.00  0.00    +0.000 A 
ATOM      3  C   UNL     1       2.409   6.361  19.710  0.00  0.00    +0.000 A 
ATOM      4  N   UNL     1       2.983   6.253  18.469  0.00  0.00    +0.000 NA
ATOM      5  N   UNL     1       2.748   7.364  17.791  0.00  0.00    +0.000 NA
ENDROOT
BRANCH   1   6
ATOM      6  C   UNL     1       1.822   9.574  18.179  0.00  0.00    +0.000 C 
BRANCH   6   9
ATOM      7  C   UNL     1      -0.223  11.041  18.612  0.00  0.00    +0.000 C 
ATOM      8  C   UNL     1      -1.723  11.148  18.522  0.00  0.00    +0.000 C 
ATOM      9  C   UNL     1       0.360   9.910  18.157  0.00  0.00    +0.000 C 
BRANCH   7  10
ATOM     10  C   UNL     1       0.602  12.190  19.175  0.00  0.00    +0.000 C 
BRANCH  10  11
ATOM     11  C   UNL     1       0.646  12.358  20.700  0.00  0.00    +0.000 C 
BRANCH  11  15
ATOM     12  C   UNL     1      -0.328   9.333  22.977  0.00  0.00    +0.000 C 
ATOM     13  C   UNL     1      -0.371  10.688  22.330  0.00  0.00    +0.000 C 
ATOM     14  C   UNL     1      -1.471  11.620  22.757  0.00  0.00    +0.000 C 
ATOM     15  C   UNL     1       0.554  11.030  21.407  0.00  0.00    +0.000 C 
ENDBRANCH  11  15
ENDBRANCH  10  11
ENDBRANCH   7  10
ENDBRANCH   6   9
ENDBRANCH   1   6
BRANCH   3  16
ATOM     16  C   UNL     1       2.445   5.203  20.667  0.00  0.00    +0.000 C 
BRANCH  16  17
ATOM     17  C   UNL     1       2.877   3.851  20.057  0.00  0.00    +0.000 C 
ATOM     18  C   UNL     1       2.894   2.755  21.213  0.00  0.00    +0.000 C 
BRANCH  17  19
ATOM     19  P   UNL     1       1.592   3.078  18.977  0.00  0.00    +0.000 P 
ATOM     20  O   UNL     1       1.911   1.701  18.503  0.00  0.00    +0.000 OA
BRANCH  19  21
ATOM     21  O   UNL     1       0.192   3.136  19.763  0.00  0.00    +0.000 OA
ATOM     22  H   UNL     1      -0.119   4.012  20.053  0.00  0.00    +0.000 HD
ENDBRANCH  19  21
BRANCH  19  23
ATOM     23  O   UNL     1       1.193   4.010  17.744  0.00  0.00    +0.000 OA
ATOM     24  H   UNL     1       0.273   4.336  17.886  0.00  0.00    +0.000 HD
ENDBRANCH  19  23
ENDBRANCH  17  19
BRANCH  17  25
ATOM     25  P   UNL     1       4.529   3.808  19.272  0.00  0.00    +0.000 P 
ATOM     26  O   UNL     1       4.893   2.481  19.940  0.00  0.00    +0.000 OA
BRANCH  25  27
ATOM     27  O   UNL     1       3.944   3.435  17.796  0.00  0.00    +0.000 OA
ATOM     28  H   UNL     1       3.263   2.733  17.778  0.00  0.00    +0.000 HD
ENDBRANCH  25  27
BRANCH  25  29
ATOM     29  O   UNL     1       6.092   3.768  18.530  0.00  0.00    +0.000 OA
ATOM     30  H   UNL     1       6.264   2.823  18.351  0.00  0.00    +0.000 HD
ENDBRANCH  25  29
ENDBRANCH  17  25
ENDBRANCH  16  17
ENDBRANCH   3  16
TORSDOF 13
ENDMDL
MODEL 4
REMARK VINA RESULT:      -6.9      1.617      2.278
REMARK  Name = 
REMARK  17 active torsions:
REMARK  status: ('A' for Active; 'I' for Inactive)
REMARK    1  A    between atoms: C_1  and  C_2
REMARK    2  A    between atoms: C_2  and  C_3
REMARK    3  A    between atoms: C_4  and  C_5
REMARK    4  A    between atoms: C_5  and  C_6
REMARK    5  A    between atoms: C_6  and  C_7
REMARK    6  A    between atoms: C_7  and  C_8
REMARK    7  A    between atoms: C_9  and  C_10
REMARK    8  A    between atoms: C_10  and  N_11
REMARK    9  A    between atoms: C_13  and  C_14
REMARK   10  A    between atoms: C_14  and  C_15
REMARK   11  A    between atoms: C_15  and  C_16
REMARK   12  A    between atoms: C_15  and  P_17
REMARK   13  A    between atoms: C_15  and  P_21
REMARK   14  A    between atoms: P_17  and  O_19
REMARK   15  A    between atoms: P_17  and  O_20
REMARK   16  A    between atoms: P_21  and  O_23
REMARK   17  A    between atoms: P_21  and  O_24
REMARK                            x       y       z     vdW  Elec       q    Type
REMARK                         _______ _______ _______ _____ _____    ______ ____
ROOT
ATOM      1  N   UNL     1       7.347   7.445  17.516  0.00  0.00    +0.000 N 
ATOM      2  C   UNL     1       7.320   6.454  18.458  0.00  0.00    +0.000 A 
ATOM      3  C   UNL     1       6.400   5.544  17.977  0.00  0.00    +0.000 A 
ATOM      4  N   UNL     1       5.939   6.001  16.770  0.00  0.00    +0.000 NA
ATOM      5  N   UNL     1       6.487   7.178  16.520  0.00  0.00    +0.000 NA
ENDROOT
BRANCH   1   6
ATOM      6  C   UNL     1       8.207   8.620  17.444  0.00  0.00    +0.000 C 
BRANCH   6   9
ATOM      7  C   UNL     1       9.225  10.335  19.039  0.00  0.00    +0.000 C 
ATOM      8  C   UNL     1       9.490  10.698  20.477  0.00  0.00    +0.000 C 
ATOM      9  C   UNL     1       8.550   9.191  18.789  0.00  0.00    +0.000 C 
BRANCH   7  10
ATOM     10  C   UNL     1       9.686  11.251  17.914  0.00  0.00    +0.000 C 
BRANCH  10  11
ATOM     11  C   UNL     1      11.159  11.682  17.902  0.00  0.00    +0.000 C 
BRANCH  11  15
ATOM     12  C   UNL     1      11.510  15.574  17.817  0.00  0.00    +0.000 C 
ATOM     13  C   UNL     1      11.386  14.176  18.353  0.00  0.00    +0.000 C 
ATOM     14  C   UNL     1      11.350  14.013  19.847  0.00  0.00    +0.000 C 
ATOM     15  C   UNL     1      11.311  13.128  17.506  0.00  0.00    +0.000 C 
ENDBRANCH  11  15
ENDBRANCH  10  11
ENDBRANCH   7  10
ENDBRANCH   6   9
ENDBRANCH   1   6
BRANCH   3  16
ATOM     16  C   UNL     1       5.874   4.261  18.556  0.00  0.00    +0.000 C 
BRANCH  16  17
ATOM     17  C   UNL     1       4.335   4.144  18.617  0.00  0.00    +0.000 C 
ATOM     18  C   UNL     1       3.783   3.934  17.137  0.00  0.00    +0.000 C 
BRANCH  17  19
ATOM     19  P   UNL     1       3.738   2.555  19.350  0.00  0.00    +0.000 P 
ATOM     20  O   UNL     1       4.235   2.269  20.725  0.00  0.00    +0.000 OA
BRANCH  19  21
ATOM     21  O   UNL     1       2.134   2.552  19.274  0.00  0.00    +0.000 OA
ATOM     22  H   UNL     1       1.669   3.309  19.673  0.00  0.00    +0.000 HD
ENDBRANCH  19  21
BRANCH  19  23
ATOM     23  O   UNL     1       4.007   1.306  18.393  0.00  0.00    +0.000 OA
ATOM     24  H   UNL     1       3.699   1.537  17.486  0.00  0.00    +0.000 HD
ENDBRANCH  19  23
ENDBRANCH  17  19
BRANCH  17  25
ATOM     25  P   UNL     1       3.440   5.581  19.309  0.00  0.00    +0.000 P 
ATOM     26  O   UNL     1       2.246   5.382  18.374  0.00  0.00    +0.000 OA
BRANCH  25  27
ATOM     27  O   UNL     1       3.065   4.822  20.703  0.00  0.00    +0.000 OA
ATOM     28  H   UNL     1       3.435   3.922  20.804  0.00  0.00    +0.000 HD
ENDBRANCH  25  27
BRANCH  25  29
ATOM     29  O   UNL     1       2.594   6.942  19.964  0.00  0.00    +0.000 OA
ATOM     30  H   UNL     1       2.525   7.577  19.225  0.00  0.00    +0.000 HD
ENDBRANCH  25  29
ENDBRANCH  17  25
ENDBRANCH  16  17
ENDBRANCH   3  16
TORSDOF 13
ENDMDL
MODEL 5
REMARK VINA RESULT:      -6.9      5.729      8.178
REMARK  Name = 
REMARK  17 active torsions:
REMARK  status: ('A' for Active; 'I' for Inactive)
REMARK    1  A    between atoms: C_1  and  C_2
REMARK    2  A    between atoms: C_2  and  C_3
REMARK    3  A    between atoms: C_4  and  C_5
REMARK    4  A    between atoms: C_5  and  C_6
REMARK    5  A    between atoms: C_6  and  C_7
REMARK    6  A    between atoms: C_7  and  C_8
REMARK    7  A    between atoms: C_9  and  C_10
REMARK    8  A    between atoms: C_10  and  N_11
REMARK    9  A    between atoms: C_13  and  C_14
REMARK   10  A    between atoms: C_14  and  C_15
REMARK   11  A    between atoms: C_15  and  C_16
REMARK   12  A    between atoms: C_15  and  P_17
REMARK   13  A    between atoms: C_15  and  P_21
REMARK   14  A    between atoms: P_17  and  O_19
REMARK   15  A    between atoms: P_17  and  O_20
REMARK   16  A    between atoms: P_21  and  O_23
REMARK   17  A    between atoms: P_21  and  O_24
REMARK                            x       y       z     vdW  Elec       q    Type
REMARK                         _______ _______ _______ _____ _____    ______ ____
ROOT
ATOM      1  N   UNL     1       2.416   7.670  18.588  0.00  0.00    +0.000 N 
ATOM      2  C   UNL     1       3.165   6.998  17.660  0.00  0.00    +0.000 A 
ATOM      3  C   UNL     1       3.604   5.869  18.320  0.00  0.00    +0.000 A 
ATOM      4  N   UNL     1       3.087   5.888  19.590  0.00  0.00    +0.000 NA
ATOM      5  N   UNL     1       2.404   7.008  19.756  0.00  0.00    +0.000 NA
ENDROOT
BRANCH   1   6
ATOM      6  C   UNL     1       1.625   8.882  18.425  0.00  0.00    +0.000 C 
BRANCH   6   9
ATOM      7  C   UNL     1      -0.023  10.237  19.829  0.00  0.00    +0.000 C 
ATOM      8  C   UNL     1      -0.466  10.607  21.221  0.00  0.00    +0.000 C 
ATOM      9  C   UNL     1       1.000   9.362  19.702  0.00  0.00    +0.000 C 
BRANCH   7  10
ATOM     10  C   UNL     1      -0.732  10.816  18.613  0.00  0.00    +0.000 C 
BRANCH  10  11
ATOM     11  C   UNL     1      -2.103  10.235  18.242  0.00  0.00    +0.000 C 
BRANCH  11  15
ATOM     12  C   UNL     1      -3.241  10.091  14.505  0.00  0.00    +0.000 C 
ATOM     13  C   UNL     1      -3.235  10.422  15.971  0.00  0.00    +0.000 C 
ATOM     14  C   UNL     1      -4.389  11.228  16.498  0.00  0.00    +0.000 C 
ATOM     15  C   UNL     1      -2.224   9.999  16.759  0.00  0.00    +0.000 C 
ENDBRANCH  11  15
ENDBRANCH  10  11
ENDBRANCH   7  10
ENDBRANCH   6   9
ENDBRANCH   1   6
BRANCH   3  16
ATOM     16  C   UNL     1       4.502   4.746  17.882  0.00  0.00    +0.000 C 
BRANCH  16  17
ATOM     17  C   UNL     1       5.777   5.177  17.121  0.00  0.00    +0.000 C 
ATOM     18  C   UNL     1       5.645   6.719  16.743  0.00  0.00    +0.000 C 
BRANCH  17  19
ATOM     19  P   UNL     1       7.279   5.293  18.191  0.00  0.00    +0.000 P 
ATOM     20  O   UNL     1       7.976   6.609  18.158  0.00  0.00    +0.000 OA
BRANCH  19  21
ATOM     21  O   UNL     1       6.853   4.872  19.681  0.00  0.00    +0.000 OA
ATOM     22  H   UNL     1       6.128   5.374  20.094  0.00  0.00    +0.000 HD
ENDBRANCH  19  21
BRANCH  19  23
ATOM     23  O   UNL     1       8.315   4.110  17.914  0.00  0.00    +0.000 OA
ATOM     24  H   UNL     1       9.147   4.305  18.405  0.00  0.00    +0.000 HD
ENDBRANCH  19  23
ENDBRANCH  17  19
BRANCH  17  25
ATOM     25  P   UNL     1       6.128   4.286  15.562  0.00  0.00    +0.000 P 
ATOM     26  O   UNL     1       5.126   5.126  14.769  0.00  0.00    +0.000 OA
BRANCH  25  27
ATOM     27  O   UNL     1       7.585   4.989  15.356  0.00  0.00    +0.000 OA
ATOM     28  H   UNL     1       8.035   5.273  16.176  0.00  0.00    +0.000 HD
ENDBRANCH  25  27
BRANCH  25  29
ATOM     29  O   UNL     1       6.461   3.443  14.088  0.00  0.00    +0.000 OA
ATOM     30  H   UNL     1       7.317   3.798  13.780  0.00  0.00    +0.000 HD
ENDBRANCH  25  29
ENDBRANCH  17  25
ENDBRANCH  16  17
ENDBRANCH   3  16
TORSDOF 13
ENDMDL
MODEL 6
REMARK VINA RESULT:      -6.8      5.712      7.144
REMARK  Name = 
REMARK  17 active torsions:
REMARK  status: ('A' for Active; 'I' for Inactive)
REMARK    1  A    between atoms: C_1  and  C_2
REMARK    2  A    between atoms: C_2  and  C_3
REMARK    3  A    between atoms: C_4  and  C_5
REMARK    4  A    between atoms: C_5  and  C_6
REMARK    5  A    between atoms: C_6  and  C_7
REMARK    6  A    between atoms: C_7  and  C_8
REMARK    7  A    between atoms: C_9  and  C_10
REMARK    8  A    between atoms: C_10  and  N_11
REMARK    9  A    between atoms: C_13  and  C_14
REMARK   10  A    between atoms: C_14  and  C_15
REMARK   11  A    between atoms: C_15  and  C_16
REMARK   12  A    between atoms: C_15  and  P_17
REMARK   13  A    between atoms: C_15  and  P_21
REMARK   14  A    between atoms: P_17  and  O_19
REMARK   15  A    between atoms: P_17  and  O_20
REMARK   16  A    between atoms: P_21  and  O_23
REMARK   17  A    between atoms: P_21  and  O_24
REMARK                            x       y       z     vdW  Elec       q    Type
REMARK                         _______ _______ _______ _____ _____    ______ ____
ROOT
ATOM      1  N   UNL     1       2.752   5.433  19.843  0.00  0.00    +0.000 N 
ATOM      2  C   UNL     1       3.061   5.374  18.511  0.00  0.00    +0.000 A 
ATOM      3  C   UNL     1       3.889   4.276  18.395  0.00  0.00    +0.000 A 
ATOM      4  N   UNL     1       4.020   3.708  19.636  0.00  0.00    +0.000 NA
ATOM      5  N   UNL     1       3.362   4.444  20.515  0.00  0.00    +0.000 NA
ENDROOT
BRANCH   1   6
ATOM      6  C   UNL     1       1.835   6.330  20.534  0.00  0.00    +0.000 C 
BRANCH   6   9
ATOM      7  C   UNL     1       1.046   8.753  20.365  0.00  0.00    +0.000 C 
ATOM      8  C   UNL     1       1.178  10.060  19.626  0.00  0.00    +0.000 C 
ATOM      9  C   UNL     1       1.824   7.721  19.970  0.00  0.00    +0.000 C 
BRANCH   7  10
ATOM     10  C   UNL     1       0.082   8.622  21.536  0.00  0.00    +0.000 C 
BRANCH  10  11
ATOM     11  C   UNL     1       0.310   9.527  22.754  0.00  0.00    +0.000 C 
BRANCH  11  15
ATOM     12  C   UNL     1      -2.608  12.050  23.383  0.00  0.00    +0.000 C 
ATOM     13  C   UNL     1      -1.319  11.479  22.865  0.00  0.00    +0.000 C 
ATOM     14  C   UNL     1      -0.470  12.369  22.002  0.00  0.00    +0.000 C 
ATOM     15  C   UNL     1      -0.961  10.216  23.180  0.00  0.00    +0.000 C 
ENDBRANCH  11  15
ENDBRANCH  10  11
ENDBRANCH   7  10
ENDBRANCH   6   9
ENDBRANCH   1   6
BRANCH   3  16
ATOM     16  C   UNL     1       4.610   3.695  17.212  0.00  0.00    +0.000 C 
BRANCH  16  17
ATOM     17  C   UNL     1       5.672   4.614  16.566  0.00  0.00    +0.000 C 
ATOM     18  C   UNL     1       5.042   6.067  16.384  0.00  0.00    +0.000 C 
BRANCH  17  19
ATOM     19  P   UNL     1       7.056   5.066  17.705  0.00  0.00    +0.000 P 
ATOM     20  O   UNL     1       7.591   6.445  17.530  0.00  0.00    +0.000 OA
BRANCH  19  21
ATOM     21  O   UNL     1       6.561   4.796  19.209  0.00  0.00    +0.000 OA
ATOM     22  H   UNL     1       7.209   4.413  19.827  0.00  0.00    +0.000 HD
ENDBRANCH  19  21
BRANCH  19  23
ATOM     23  O   UNL     1       8.245   4.001  17.668  0.00  0.00    +0.000 OA
ATOM     24  H   UNL     1       8.423   3.702  18.590  0.00  0.00    +0.000 HD
ENDBRANCH  19  23
ENDBRANCH  17  19
BRANCH  17  25
ATOM     25  P   UNL     1       6.292   4.105  14.922  0.00  0.00    +0.000 P 
ATOM     26  O   UNL     1       5.005   4.540  14.220  0.00  0.00    +0.000 OA
BRANCH  25  27
ATOM     27  O   UNL     1       7.330   5.356  14.800  0.00  0.00    +0.000 OA
ATOM     28  H   UNL     1       7.056   6.072  14.193  0.00  0.00    +0.000 HD
ENDBRANCH  25  27
BRANCH  25  29
ATOM     29  O   UNL     1       6.879   3.622  13.368  0.00  0.00    +0.000 OA
ATOM     30  H   UNL     1       6.666   2.671  13.300  0.00  0.00    +0.000 HD
ENDBRANCH  25  29
ENDBRANCH  17  25
ENDBRANCH  16  17
ENDBRANCH   3  16
TORSDOF 13
ENDMDL
MODEL 7
REMARK VINA RESULT:      -6.8      1.391      1.826
REMARK  Name = 
REMARK  17 active torsions:
REMARK  status: ('A' for Active; 'I' for Inactive)
REMARK    1  A    between atoms: C_1  and  C_2
REMARK    2  A    between atoms: C_2  and  C_3
REMARK    3  A    between atoms: C_4  and  C_5
REMARK    4  A    between atoms: C_5  and  C_6
REMARK    5  A    between atoms: C_6  and  C_7
REMARK    6  A    between atoms: C_7  and  C_8
REMARK    7  A    between atoms: C_9  and  C_10
REMARK    8  A    between atoms: C_10  and  N_11
REMARK    9  A    between atoms: C_13  and  C_14
REMARK   10  A    between atoms: C_14  and  C_15
REMARK   11  A    between atoms: C_15  and  C_16
REMARK   12  A    between atoms: C_15  and  P_17
REMARK   13  A    between atoms: C_15  and  P_21
REMARK   14  A    between atoms: P_17  and  O_19
REMARK   15  A    between atoms: P_17  and  O_20
REMARK   16  A    between atoms: P_21  and  O_23
REMARK   17  A    between atoms: P_21  and  O_24
REMARK                            x       y       z     vdW  Elec       q    Type
REMARK                         _______ _______ _______ _____ _____    ______ ____
ROOT
ATOM      1  N   UNL     1       6.998   6.233  17.606  0.00  0.00    +0.000 N 
ATOM      2  C   UNL     1       5.638   6.249  17.756  0.00  0.00    +0.000 A 
ATOM      3  C   UNL     1       5.213   5.066  17.185  0.00  0.00    +0.000 A 
ATOM      4  N   UNL     1       6.317   4.381  16.749  0.00  0.00    +0.000 NA
ATOM      5  N   UNL     1       7.392   5.119  16.969  0.00  0.00    +0.000 NA
ENDROOT
BRANCH   1   6
ATOM      6  C   UNL     1       7.987   7.180  18.105  0.00  0.00    +0.000 C 
BRANCH   6   9
ATOM      7  C   UNL     1       8.312   9.713  18.100  0.00  0.00    +0.000 C 
ATOM      8  C   UNL     1       7.946  11.016  17.439  0.00  0.00    +0.000 C 
ATOM      9  C   UNL     1       7.789   8.576  17.591  0.00  0.00    +0.000 C 
BRANCH   7  10
ATOM     10  C   UNL     1       9.265   9.690  19.288  0.00  0.00    +0.000 C 
BRANCH  10  11
ATOM     11  C   UNL     1      10.044  10.973  19.602  0.00  0.00    +0.000 C 
BRANCH  11  15
ATOM     12  C   UNL     1      12.071  13.059  16.991  0.00  0.00    +0.000 C 
ATOM     13  C   UNL     1      11.620  12.496  18.309  0.00  0.00    +0.000 C 
ATOM     14  C   UNL     1      12.331  12.979  19.542  0.00  0.00    +0.000 C 
ATOM     15  C   UNL     1      10.614  11.597  18.355  0.00  0.00    +0.000 C 
ENDBRANCH  11  15
ENDBRANCH  10  11
ENDBRANCH   7  10
ENDBRANCH   6   9
ENDBRANCH   1   6
BRANCH   3  16
ATOM     16  C   UNL     1       3.836   4.499  16.980  0.00  0.00    +0.000 C 
BRANCH  16  17
ATOM     17  C   UNL     1       3.081   4.110  18.271  0.00  0.00    +0.000 C 
ATOM     18  C   UNL     1       1.698   3.431  17.864  0.00  0.00    +0.000 C 
BRANCH  17  19
ATOM     19  P   UNL     1       3.828   2.677  19.167  0.00  0.00    +0.000 P 
ATOM     20  O   UNL     1       3.682   1.360  18.484  0.00  0.00    +0.000 OA
BRANCH  19  21
ATOM     21  O   UNL     1       5.365   3.034  19.468  0.00  0.00    +0.000 OA
ATOM     22  H   UNL     1       5.542   3.653  20.198  0.00  0.00    +0.000 HD
ENDBRANCH  19  21
BRANCH  19  23
ATOM     23  O   UNL     1       3.324   2.575  20.678  0.00  0.00    +0.000 OA
ATOM     24  H   UNL     1       2.389   2.887  20.716  0.00  0.00    +0.000 HD
ENDBRANCH  19  23
ENDBRANCH  17  19
BRANCH  17  25
ATOM     25  P   UNL     1       2.673   5.479  19.414  0.00  0.00    +0.000 P 
ATOM     26  O   UNL     1       1.461   4.741  19.983  0.00  0.00    +0.000 OA
BRANCH  25  27
ATOM     27  O   UNL     1       3.919   5.163  20.419  0.00  0.00    +0.000 OA
ATOM     28  H   UNL     1       4.768   5.586  20.182  0.00  0.00    +0.000 HD
ENDBRANCH  25  27
BRANCH  25  29
ATOM     29  O   UNL     1       2.288   6.775  20.495  0.00  0.00    +0.000 OA
ATOM     30  H   UNL     1       3.052   6.836  21.101  0.00  0.00    +0.000 HD
ENDBRANCH  25  29
ENDBRANCH  17  25
ENDBRANCH  16  17
ENDBRANCH   3  16
TORSDOF 13
ENDMDL
MODEL 8
REMARK VINA RESULT:      -6.7      0.989      1.447
REMARK  Name = 
REMARK  17 active torsions:
REMARK  status: ('A' for Active; 'I' for Inactive)
REMARK    1  A    between atoms: C_1  and  C_2
REMARK    2  A    between atoms: C_2  and  C_3
REMARK    3  A    between atoms: C_4  and  C_5
REMARK    4  A    between atoms: C_5  and  C_6
REMARK    5  A    between atoms: C_6  and  C_7
REMARK    6  A    between atoms: C_7  and  C_8
REMARK    7  A    between atoms: C_9  and  C_10
REMARK    8  A    between atoms: C_10  and  N_11
REMARK    9  A    between atoms: C_13  and  C_14
REMARK   10  A    between atoms: C_14  and  C_15
REMARK   11  A    between atoms: C_15  and  C_16
REMARK   12  A    between atoms: C_15  and  P_17
REMARK   13  A    between atoms: C_15  and  P_21
REMARK   14  A    between atoms: P_17  and  O_19
REMARK   15  A    between atoms: P_17  and  O_20
REMARK   16  A    between atoms: P_21  and  O_23
REMARK   17  A    between atoms: P_21  and  O_24
REMARK                            x       y       z     vdW  Elec       q    Type
REMARK                         _______ _______ _______ _____ _____    ______ ____
ROOT
ATOM      1  N   UNL     1       7.600   6.352  18.684  0.00  0.00    +0.000 N 
ATOM      2  C   UNL     1       6.758   6.057  17.647  0.00  0.00    +0.000 A 
ATOM      3  C   UNL     1       6.027   4.974  18.091  0.00  0.00    +0.000 A 
ATOM      4  N   UNL     1       6.428   4.683  19.368  0.00  0.00    +0.000 NA
ATOM      5  N   UNL     1       7.415   5.497  19.703  0.00  0.00    +0.000 NA
ENDROOT
BRANCH   1   6
ATOM      6  C   UNL     1       8.535   7.461  18.821  0.00  0.00    +0.000 C 
BRANCH   6   9
ATOM      7  C   UNL     1       8.524   9.960  18.293  0.00  0.00    +0.000 C 
ATOM      8  C   UNL     1       7.938  11.052  17.437  0.00  0.00    +0.000 C 
ATOM      9  C   UNL     1       8.115   8.692  18.071  0.00  0.00    +0.000 C 
BRANCH   7  10
ATOM     10  C   UNL     1       9.567  10.286  19.354  0.00  0.00    +0.000 C 
BRANCH  10  11
ATOM     11  C   UNL     1       9.491  11.661  20.031  0.00  0.00    +0.000 C 
BRANCH  11  15
ATOM     12  C   UNL     1       8.486  12.297  23.754  0.00  0.00    +0.000 C 
ATOM     13  C   UNL     1       8.987  12.551  22.360  0.00  0.00    +0.000 C 
ATOM     14  C   UNL     1       9.468  13.940  22.046  0.00  0.00    +0.000 C 
ATOM     15  C   UNL     1       8.995  11.555  21.450  0.00  0.00    +0.000 C 
ENDBRANCH  11  15
ENDBRANCH  10  11
ENDBRANCH   7  10
ENDBRANCH   6   9
ENDBRANCH   1   6
BRANCH   3  16
ATOM     16  C   UNL     1       4.972   4.143  17.417  0.00  0.00    +0.000 C 
BRANCH  16  17
ATOM     17  C   UNL     1       3.655   3.974  18.209  0.00  0.00    +0.000 C 
ATOM     18  C   UNL     1       2.490   3.612  17.184  0.00  0.00    +0.000 C 
BRANCH  17  19
ATOM     19  P   UNL     1       3.596   2.436  19.232  0.00  0.00    +0.000 P 
ATOM     20  O   UNL     1       4.767   2.231  20.131  0.00  0.00    +0.000 OA
BRANCH  19  21
ATOM     21  O   UNL     1       2.208   2.439  20.041  0.00  0.00    +0.000 OA
ATOM     22  H   UNL     1       2.211   2.842  20.927  0.00  0.00    +0.000 HD
ENDBRANCH  19  21
BRANCH  19  23
ATOM     23  O   UNL     1       3.337   1.130  18.352  0.00  0.00    +0.000 OA
ATOM     24  H   UNL     1       3.536   1.345  17.411  0.00  0.00    +0.000 HD
ENDBRANCH  19  23
ENDBRANCH  17  19
BRANCH  17  25
ATOM     25  P   UNL     1       3.085   5.433  19.153  0.00  0.00    +0.000 P 
ATOM     26  O   UNL     1       1.612   5.061  18.981  0.00  0.00    +0.000 OA
BRANCH  25  27
ATOM     27  O   UNL     1       3.549   4.825  20.593  0.00  0.00    +0.000 OA
ATOM     28  H   UNL     1       2.896   4.909  21.316  0.00  0.00    +0.000 HD
ENDBRANCH  25  27
BRANCH  25  29
ATOM     29  O   UNL     1       2.546   6.814  20.046  0.00  0.00    +0.000 OA
ATOM     30  H   UNL     1       2.198   7.432  19.374  0.00  0.00    +0.000 HD
ENDBRANCH  25  29
ENDBRANCH  17  25
ENDBRANCH  16  17
ENDBRANCH   3  16
TORSDOF 13
ENDMDL
MODEL 9
REMARK VINA RESULT:      -6.7      5.442      7.939
REMARK  Name = 
REMARK  17 active torsions:
REMARK  status: ('A' for Active; 'I' for Inactive)
REMARK    1  A    between atoms: C_1  and  C_2
REMARK    2  A    between atoms: C_2  and  C_3
REMARK    3  A    between atoms: C_4  and  C_5
REMARK    4  A    between atoms: C_5  and  C_6
REMARK    5  A    between atoms: C_6  and  C_7
REMARK    6  A    between atoms: C_7  and  C_8
REMARK    7  A    between atoms: C_9  and  C_10
REMARK    8  A    between atoms: C_10  and  N_11
REMARK    9  A    between atoms: C_13  and  C_14
REMARK   10  A    between atoms: C_14  and  C_15
REMARK   11  A    between atoms: C_15  and  C_16
REMARK   12  A    between atoms: C_15  and  P_17
REMARK   13  A    between atoms: C_15  and  P_21
REMARK   14  A    between atoms: P_17  and  O_19
REMARK   15  A    between atoms: P_17  and  O_20
REMARK   16  A    between atoms: P_21  and  O_23
REMARK   17  A    between atoms: P_21  and  O_24
REMARK                            x       y       z     vdW  Elec       q    Type
REMARK                         _______ _______ _______ _____ _____    ______ ____
ROOT
ATOM      1  N   UNL     1       5.779   4.308  16.117  0.00  0.00    +0.000 N 
ATOM      2  C   UNL     1       4.559   4.070  16.688  0.00  0.00    +0.000 A 
ATOM      3  C   UNL     1       4.448   5.026  17.677  0.00  0.00    +0.000 A 
ATOM      4  N   UNL     1       5.573   5.808  17.644  0.00  0.00    +0.000 NA
ATOM      5  N   UNL     1       6.395   5.335  16.723  0.00  0.00    +0.000 NA
ENDROOT
BRANCH   1   6
ATOM      6  C   UNL     1       6.389   3.670  14.957  0.00  0.00    +0.000 C 
BRANCH   6   9
ATOM      7  C   UNL     1       6.988   4.486  12.612  0.00  0.00    +0.000 C 
ATOM      8  C   UNL     1       7.606   5.591  11.796  0.00  0.00    +0.000 C 
ATOM      9  C   UNL     1       6.927   4.647  13.953  0.00  0.00    +0.000 C 
BRANCH   7  10
ATOM     10  C   UNL     1       6.427   3.244  11.933  0.00  0.00    +0.000 C 
BRANCH  10  11
ATOM     11  C   UNL     1       4.904   3.057  11.931  0.00  0.00    +0.000 C 
BRANCH  11  15
ATOM     12  C   UNL     1       2.656   4.735   9.209  0.00  0.00    +0.000 C 
ATOM     13  C   UNL     1       3.219   3.693  10.134  0.00  0.00    +0.000 C 
ATOM     14  C   UNL     1       2.611   2.319  10.073  0.00  0.00    +0.000 C 
ATOM     15  C   UNL     1       4.229   4.004  10.973  0.00  0.00    +0.000 C 
ENDBRANCH  11  15
ENDBRANCH  10  11
ENDBRANCH   7  10
ENDBRANCH   6   9
ENDBRANCH   1   6
BRANCH   3  16
ATOM     16  C   UNL     1       3.374   5.281  18.697  0.00  0.00    +0.000 C 
BRANCH  16  17
ATOM     17  C   UNL     1       2.868   4.031  19.453  0.00  0.00    +0.000 C 
ATOM     18  C   UNL     1       2.215   4.501  20.829  0.00  0.00    +0.000 C 
BRANCH  17  19
ATOM     19  P   UNL     1       1.368   3.261  18.697  0.00  0.00    +0.000 P 
ATOM     20  O   UNL     1       0.903   3.895  17.431  0.00  0.00    +0.000 OA
BRANCH  19  21
ATOM     21  O   UNL     1       1.663   1.692  18.513  0.00  0.00    +0.000 OA
ATOM     22  H   UNL     1       2.596   1.416  18.484  0.00  0.00    +0.000 HD
ENDBRANCH  19  21
BRANCH  19  23
ATOM     23  O   UNL     1       0.159   3.140  19.732  0.00  0.00    +0.000 OA
ATOM     24  H   UNL     1       0.403   3.629  20.552  0.00  0.00    +0.000 HD
ENDBRANCH  19  23
ENDBRANCH  17  19
BRANCH  17  25
ATOM     25  P   UNL     1       4.129   2.775  19.876  0.00  0.00    +0.000 P 
ATOM     26  O   UNL     1       5.124   3.831  20.360  0.00  0.00    +0.000 OA
BRANCH  25  27
ATOM     27  O   UNL     1       3.330   2.254  21.199  0.00  0.00    +0.000 OA
ATOM     28  H   UNL     1       3.775   2.424  22.053  0.00  0.00    +0.000 HD
ENDBRANCH  25  27
BRANCH  25  29
ATOM     29  O   UNL     1       5.321   1.587  20.276  0.00  0.00    +0.000 OA
ATOM     30  H   UNL     1       5.309   1.532  21.252  0.00  0.00    +0.000 HD
ENDBRANCH  25  29
ENDBRANCH  17  25
ENDBRANCH  16  17
ENDBRANCH   3  16
TORSDOF 13
ENDMDL
