MODEL 1
REMARK VINA RESULT:      -7.6      0.000      0.000
REMARK  Name = 
REMARK  2 active torsions:
REMARK  status: ('A' for Active; 'I' for Inactive)
REMARK    1  A    between atoms: C_2  and  C_10
REMARK    2  A    between atoms: N_3  and  C_4
REMARK                            x       y       z     vdW  Elec       q    Type
REMARK                         _______ _______ _______ _____ _____    ______ ____
ROOT
ATOM      1  O   UNL     1       4.888   6.179  15.995  0.00  0.00    +0.000 OA
ATOM      2  C   UNL     1       4.903   4.983  16.225  0.00  0.00    +0.000 C 
ATOM      3  N   UNL     1       5.537   4.034  15.436  0.00  0.00    +0.000 N 
ATOM      4  H   UNL     1       5.274   3.065  15.602  0.00  0.00    +0.000 HD
ENDROOT
BRANCH   2   5
ATOM      5  C   UNL     1       4.141   4.413  17.328  0.00  0.00    +0.000 A 
ATOM      6  C   UNL     1       2.789   4.140  17.388  0.00  0.00    +0.000 A 
ATOM      7  C   UNL     1       2.436   3.394  18.569  0.00  0.00    +0.000 A 
ATOM      8  C   UNL     1       3.536   3.220  19.390  0.00  0.00    +0.000 A 
ATOM      9  S   UNL     1       4.937   3.938  18.755  0.00  0.00    +0.000 S 
ATOM     10  C   UNL     1       3.686   2.451  20.661  0.00  0.00    +0.000 C 
ATOM     11  C   UNL     1       2.559   2.583  21.678  0.00  0.00    +0.000 C 
ATOM     12  C   UNL     1       1.356   3.444  21.306  0.00  0.00    +0.000 C 
ATOM     13  C   UNL     1       0.501   2.831  20.204  0.00  0.00    +0.000 C 
ATOM     14  C   UNL     1       1.074   2.806  18.786  0.00  0.00    +0.000 C 
ENDBRANCH   2   5
BRANCH   3  15
ATOM     15  C   UNL     1       6.293   4.331  14.303  0.00  0.00    +0.000 A 
ATOM     16  C   UNL     1       6.069   3.717  13.066  0.00  0.00    +0.000 A 
ATOM     17  C   UNL     1       6.884   4.015  11.989  0.00  0.00    +0.000 A 
ATOM     18  C   UNL     1       7.898   4.939  12.171  0.00  0.00    +0.000 A 
ATOM     19  N   UNL     1       8.138   5.574  13.340  0.00  0.00    +0.000 NA
ATOM     20  C   UNL     1       7.332   5.259  14.375  0.00  0.00    +0.000 A 
ENDBRANCH   3  15
TORSDOF 2
ENDMDL
MODEL 2
REMARK VINA RESULT:      -7.1      1.319      1.821
REMARK  Name = 
REMARK  2 active torsions:
REMARK  status: ('A' for Active; 'I' for Inactive)
REMARK    1  A    between atoms: C_2  and  C_10
REMARK    2  A    between atoms: N_3  and  C_4
REMARK                            x       y       z     vdW  Elec       q    Type
REMARK                         _______ _______ _______ _____ _____    ______ ____
ROOT
ATOM      1  O   UNL     1       7.079   4.211  16.859  0.00  0.00    +0.000 OA
ATOM      2  C   UNL     1       5.889   4.182  16.599  0.00  0.00    +0.000 C 
ATOM      3  N   UNL     1       5.355   4.291  15.322  0.00  0.00    +0.000 N 
ATOM      4  H   UNL     1       4.359   4.493  15.270  0.00  0.00    +0.000 HD
ENDROOT
BRANCH   2   5
ATOM      5  C   UNL     1       4.883   4.138  17.652  0.00  0.00    +0.000 A 
ATOM      6  C   UNL     1       4.638   3.130  18.563  0.00  0.00    +0.000 A 
ATOM      7  C   UNL     1       3.696   3.531  19.577  0.00  0.00    +0.000 A 
ATOM      8  C   UNL     1       3.208   4.801  19.323  0.00  0.00    +0.000 A 
ATOM      9  S   UNL     1       3.862   5.474  17.909  0.00  0.00    +0.000 S 
ATOM     10  C   UNL     1       2.291   5.665  20.124  0.00  0.00    +0.000 C 
ATOM     11  C   UNL     1       1.077   4.985  20.745  0.00  0.00    +0.000 C 
ATOM     12  C   UNL     1       0.916   3.482  20.542  0.00  0.00    +0.000 C 
ATOM     13  C   UNL     1       1.956   2.664  21.297  0.00  0.00    +0.000 C 
ATOM     14  C   UNL     1       3.399   2.700  20.789  0.00  0.00    +0.000 C 
ENDBRANCH   2   5
BRANCH   3  15
ATOM     15  C   UNL     1       6.116   4.388  14.158  0.00  0.00    +0.000 A 
ATOM     16  C   UNL     1       5.920   3.546  13.059  0.00  0.00    +0.000 A 
ATOM     17  C   UNL     1       6.740   3.655  11.951  0.00  0.00    +0.000 A 
ATOM     18  C   UNL     1       7.730   4.622  11.961  0.00  0.00    +0.000 A 
ATOM     19  N   UNL     1       7.942   5.472  12.990  0.00  0.00    +0.000 NA
ATOM     20  C   UNL     1       7.132   5.338  14.061  0.00  0.00    +0.000 A 
ENDBRANCH   3  15
TORSDOF 2
ENDMDL
MODEL 3
REMARK VINA RESULT:      -7.1      0.712      1.125
REMARK  Name = 
REMARK  2 active torsions:
REMARK  status: ('A' for Active; 'I' for Inactive)
REMARK    1  A    between atoms: C_2  and  C_10
REMARK    2  A    between atoms: N_3  and  C_4
REMARK                            x       y       z     vdW  Elec       q    Type
REMARK                         _______ _______ _______ _____ _____    ______ ____
ROOT
ATOM      1  O   UNL     1       5.190   6.110  15.990  0.00  0.00    +0.000 OA
ATOM      2  C   UNL     1       5.056   4.910  16.159  0.00  0.00    +0.000 C 
ATOM      3  N   UNL     1       5.539   3.933  15.299  0.00  0.00    +0.000 N 
ATOM      4  H   UNL     1       5.157   2.998  15.426  0.00  0.00    +0.000 HD
ENDROOT
BRANCH   2   5
ATOM      5  C   UNL     1       4.259   4.382  17.257  0.00  0.00    +0.000 A 
ATOM      6  C   UNL     1       2.905   4.116  17.286  0.00  0.00    +0.000 A 
ATOM      7  C   UNL     1       2.514   3.414  18.481  0.00  0.00    +0.000 A 
ATOM      8  C   UNL     1       3.588   3.265  19.341  0.00  0.00    +0.000 A 
ATOM      9  S   UNL     1       5.010   3.955  18.724  0.00  0.00    +0.000 S 
ATOM     10  C   UNL     1       3.696   2.541  20.642  0.00  0.00    +0.000 C 
ATOM     11  C   UNL     1       2.539   2.713  21.619  0.00  0.00    +0.000 C 
ATOM     12  C   UNL     1       1.352   3.564  21.181  0.00  0.00    +0.000 C 
ATOM     13  C   UNL     1       0.528   2.915  20.076  0.00  0.00    +0.000 C 
ATOM     14  C   UNL     1       1.143   2.838  18.678  0.00  0.00    +0.000 C 
ENDBRANCH   2   5
BRANCH   3  15
ATOM     15  C   UNL     1       6.294   4.194  14.157  0.00  0.00    +0.000 A 
ATOM     16  C   UNL     1       7.324   5.140  14.136  0.00  0.00    +0.000 A 
ATOM     17  C   UNL     1       8.004   5.394  12.958  0.00  0.00    +0.000 A 
ATOM     18  C   UNL     1       7.649   4.677  11.828  0.00  0.00    +0.000 A 
ATOM     19  N   UNL     1       6.677   3.739  11.807  0.00  0.00    +0.000 NA
ATOM     20  C   UNL     1       6.025   3.517  12.968  0.00  0.00    +0.000 A 
ENDBRANCH   3  15
TORSDOF 2
ENDMDL
MODEL 4
REMARK VINA RESULT:      -7.0      1.004      1.589
REMARK  Name = 
REMARK  2 active torsions:
REMARK  status: ('A' for Active; 'I' for Inactive)
REMARK    1  A    between atoms: C_2  and  C_10
REMARK    2  A    between atoms: N_3  and  C_4
REMARK                            x       y       z     vdW  Elec       q    Type
REMARK                         _______ _______ _______ _____ _____    ______ ____
ROOT
ATOM      1  O   UNL     1       4.952   6.391  15.924  0.00  0.00    +0.000 OA
ATOM      2  C   UNL     1       4.863   5.208  16.201  0.00  0.00    +0.000 C 
ATOM      3  N   UNL     1       5.401   4.176  15.445  0.00  0.00    +0.000 N 
ATOM      4  H   UNL     1       5.053   3.242  15.652  0.00  0.00    +0.000 HD
ENDROOT
BRANCH   2   5
ATOM      5  C   UNL     1       4.065   4.751  17.332  0.00  0.00    +0.000 A 
ATOM      6  C   UNL     1       3.966   5.305  18.592  0.00  0.00    +0.000 A 
ATOM      7  C   UNL     1       2.926   4.690  19.376  0.00  0.00    +0.000 A 
ATOM      8  C   UNL     1       2.349   3.634  18.692  0.00  0.00    +0.000 A 
ATOM      9  S   UNL     1       3.048   3.397  17.163  0.00  0.00    +0.000 S 
ATOM     10  C   UNL     1       1.193   2.762  19.050  0.00  0.00    +0.000 C 
ATOM     11  C   UNL     1       1.128   2.268  20.490  0.00  0.00    +0.000 C 
ATOM     12  C   UNL     1       2.212   2.735  21.456  0.00  0.00    +0.000 C 
ATOM     13  C   UNL     1       2.112   4.217  21.795  0.00  0.00    +0.000 C 
ATOM     14  C   UNL     1       2.481   5.224  20.705  0.00  0.00    +0.000 C 
ENDBRANCH   2   5
BRANCH   3  15
ATOM     15  C   UNL     1       6.167   4.361  14.295  0.00  0.00    +0.000 A 
ATOM     16  C   UNL     1       5.910   3.678  13.102  0.00  0.00    +0.000 A 
ATOM     17  C   UNL     1       6.736   3.863  12.008  0.00  0.00    +0.000 A 
ATOM     18  C   UNL     1       7.796   4.747  12.130  0.00  0.00    +0.000 A 
ATOM     19  N   UNL     1       8.070   5.443  13.254  0.00  0.00    +0.000 NA
ATOM     20  C   UNL     1       7.251   5.238  14.308  0.00  0.00    +0.000 A 
ENDBRANCH   3  15
TORSDOF 2
ENDMDL
MODEL 5
REMARK VINA RESULT:      -7.0      1.299      1.638
REMARK  Name = 
REMARK  2 active torsions:
REMARK  status: ('A' for Active; 'I' for Inactive)
REMARK    1  A    between atoms: C_2  and  C_10
REMARK    2  A    between atoms: N_3  and  C_4
REMARK                            x       y       z     vdW  Elec       q    Type
REMARK                         _______ _______ _______ _____ _____    ______ ____
ROOT
ATOM      1  O   UNL     1       6.939   4.122  16.726  0.00  0.00    +0.000 OA
ATOM      2  C   UNL     1       5.756   4.106  16.430  0.00  0.00    +0.000 C 
ATOM      3  N   UNL     1       5.263   4.231  15.139  0.00  0.00    +0.000 N 
ATOM      4  H   UNL     1       4.270   4.442  15.058  0.00  0.00    +0.000 HD
ENDROOT
BRANCH   2   5
ATOM      5  C   UNL     1       4.719   4.058  17.452  0.00  0.00    +0.000 A 
ATOM      6  C   UNL     1       4.242   5.086  18.240  0.00  0.00    +0.000 A 
ATOM      7  C   UNL     1       3.076   4.698  18.993  0.00  0.00    +0.000 A 
ATOM      8  C   UNL     1       2.787   3.359  18.800  0.00  0.00    +0.000 A 
ATOM      9  S   UNL     1       3.889   2.603  17.753  0.00  0.00    +0.000 S 
ATOM     10  C   UNL     1       1.644   2.533  19.291  0.00  0.00    +0.000 C 
ATOM     11  C   UNL     1       1.229   2.734  20.743  0.00  0.00    +0.000 C 
ATOM     12  C   UNL     1       1.973   3.783  21.563  0.00  0.00    +0.000 C 
ATOM     13  C   UNL     1       1.676   5.209  21.117  0.00  0.00    +0.000 C 
ATOM     14  C   UNL     1       2.251   5.673  19.778  0.00  0.00    +0.000 C 
ENDBRANCH   2   5
BRANCH   3  15
ATOM     15  C   UNL     1       6.059   4.335  14.000  0.00  0.00    +0.000 A 
ATOM     16  C   UNL     1       5.891   3.505  12.886  0.00  0.00    +0.000 A 
ATOM     17  C   UNL     1       6.745   3.619  11.805  0.00  0.00    +0.000 A 
ATOM     18  C   UNL     1       7.742   4.579  11.855  0.00  0.00    +0.000 A 
ATOM     19  N   UNL     1       7.928   5.416  12.898  0.00  0.00    +0.000 NA
ATOM     20  C   UNL     1       7.085   5.278  13.943  0.00  0.00    +0.000 A 
ENDBRANCH   3  15
TORSDOF 2
ENDMDL
MODEL 6
REMARK VINA RESULT:      -6.9      1.553      2.140
REMARK  Name = 
REMARK  2 active torsions:
REMARK  status: ('A' for Active; 'I' for Inactive)
REMARK    1  A    between atoms: C_2  and  C_10
REMARK    2  A    between atoms: N_3  and  C_4
REMARK                            x       y       z     vdW  Elec       q    Type
REMARK                         _______ _______ _______ _____ _____    ______ ____
ROOT
ATOM      1  O   UNL     1       7.094   4.174  16.833  0.00  0.00    +0.000 OA
ATOM      2  C   UNL     1       5.905   4.173  16.565  0.00  0.00    +0.000 C 
ATOM      3  N   UNL     1       5.384   4.270  15.282  0.00  0.00    +0.000 N 
ATOM      4  H   UNL     1       4.394   4.498  15.217  0.00  0.00    +0.000 HD
ENDROOT
BRANCH   2   5
ATOM      5  C   UNL     1       4.891   4.179  17.610  0.00  0.00    +0.000 A 
ATOM      6  C   UNL     1       4.551   3.165  18.484  0.00  0.00    +0.000 A 
ATOM      7  C   UNL     1       3.640   3.610  19.506  0.00  0.00    +0.000 A 
ATOM      8  C   UNL     1       3.265   4.926  19.296  0.00  0.00    +0.000 A 
ATOM      9  S   UNL     1       3.986   5.589  17.910  0.00  0.00    +0.000 S 
ATOM     10  C   UNL     1       2.420   5.837  20.122  0.00  0.00    +0.000 C 
ATOM     11  C   UNL     1       1.147   5.244  20.712  0.00  0.00    +0.000 C 
ATOM     12  C   UNL     1       0.859   3.769  20.455  0.00  0.00    +0.000 C 
ATOM     13  C   UNL     1       1.818   2.837  21.185  0.00  0.00    +0.000 C 
ATOM     14  C   UNL     1       3.262   2.765  20.686  0.00  0.00    +0.000 C 
ENDBRANCH   2   5
BRANCH   3  15
ATOM     15  C   UNL     1       6.156   4.321  14.122  0.00  0.00    +0.000 A 
ATOM     16  C   UNL     1       7.206   5.230  13.958  0.00  0.00    +0.000 A 
ATOM     17  C   UNL     1       7.904   5.270  12.764  0.00  0.00    +0.000 A 
ATOM     18  C   UNL     1       7.544   4.382  11.764  0.00  0.00    +0.000 A 
ATOM     19  N   UNL     1       6.552   3.473  11.886  0.00  0.00    +0.000 NA
ATOM     20  C   UNL     1       5.884   3.461  13.059  0.00  0.00    +0.000 A 
ENDBRANCH   3  15
TORSDOF 2
ENDMDL
MODEL 7
REMARK VINA RESULT:      -6.9      4.517      5.231
REMARK  Name = 
REMARK  2 active torsions:
REMARK  status: ('A' for Active; 'I' for Inactive)
REMARK    1  A    between atoms: C_2  and  C_10
REMARK    2  A    between atoms: N_3  and  C_4
REMARK                            x       y       z     vdW  Elec       q    Type
REMARK                         _______ _______ _______ _____ _____    ______ ____
ROOT
ATOM      1  O   UNL     1       3.118   5.038  18.057  0.00  0.00    +0.000 OA
ATOM      2  C   UNL     1       3.365   6.228  17.970  0.00  0.00    +0.000 C 
ATOM      3  N   UNL     1       4.460   6.760  17.302  0.00  0.00    +0.000 N 
ATOM      4  H   UNL     1       4.679   7.733  17.508  0.00  0.00    +0.000 HD
ENDROOT
BRANCH   2   5
ATOM      5  C   UNL     1       2.567   7.223  18.672  0.00  0.00    +0.000 A 
ATOM      6  C   UNL     1       2.122   7.201  19.979  0.00  0.00    +0.000 A 
ATOM      7  C   UNL     1       1.531   8.453  20.374  0.00  0.00    +0.000 A 
ATOM      8  C   UNL     1       1.478   9.333  19.307  0.00  0.00    +0.000 A 
ATOM      9  S   UNL     1       2.115   8.662  17.884  0.00  0.00    +0.000 S 
ATOM     10  C   UNL     1       1.038  10.758  19.245  0.00  0.00    +0.000 C 
ATOM     11  C   UNL     1      -0.234  11.116  20.004  0.00  0.00    +0.000 C 
ATOM     12  C   UNL     1      -0.929  10.013  20.796  0.00  0.00    +0.000 C 
ATOM     13  C   UNL     1      -0.137   9.569  22.020  0.00  0.00    +0.000 C 
ATOM     14  C   UNL     1       1.142   8.762  21.788  0.00  0.00    +0.000 C 
ENDBRANCH   2   5
BRANCH   3  15
ATOM     15  C   UNL     1       5.391   6.005  16.591  0.00  0.00    +0.000 A 
ATOM     16  C   UNL     1       5.206   5.651  15.251  0.00  0.00    +0.000 A 
ATOM     17  C   UNL     1       6.140   4.855  14.612  0.00  0.00    +0.000 A 
ATOM     18  C   UNL     1       7.252   4.447  15.328  0.00  0.00    +0.000 A 
ATOM     19  N   UNL     1       7.484   4.782  16.616  0.00  0.00    +0.000 NA
ATOM     20  C   UNL     1       6.553   5.553  17.216  0.00  0.00    +0.000 A 
ENDBRANCH   3  15
TORSDOF 2
ENDMDL
MODEL 8
REMARK VINA RESULT:      -6.8      5.838      7.092
REMARK  Name = 
REMARK  2 active torsions:
REMARK  status: ('A' for Active; 'I' for Inactive)
REMARK    1  A    between atoms: C_2  and  C_10
REMARK    2  A    between atoms: N_3  and  C_4
REMARK                            x       y       z     vdW  Elec       q    Type
REMARK                         _______ _______ _______ _____ _____    ______ ____
ROOT
ATOM      1  O   UNL     1       2.791   8.159  17.793  0.00  0.00    +0.000 OA
ATOM      2  C   UNL     1       2.265   7.821  18.839  0.00  0.00    +0.000 C 
ATOM      3  N   UNL     1       2.323   6.543  19.376  0.00  0.00    +0.000 N 
ATOM      4  H   UNL     1       1.652   6.336  20.113  0.00  0.00    +0.000 HD
ENDROOT
BRANCH   2   5
ATOM      5  C   UNL     1       1.411   8.733  19.588  0.00  0.00    +0.000 A 
ATOM      6  C   UNL     1       0.662   9.793  19.116  0.00  0.00    +0.000 A 
ATOM      7  C   UNL     1      -0.209  10.336  20.126  0.00  0.00    +0.000 A 
ATOM      8  C   UNL     1      -0.005   9.710  21.344  0.00  0.00    +0.000 A 
ATOM      9  S   UNL     1       1.200   8.517  21.263  0.00  0.00    +0.000 S 
ATOM     10  C   UNL     1      -0.719   9.865  22.646  0.00  0.00    +0.000 C 
ATOM     11  C   UNL     1      -1.049  11.287  23.080  0.00  0.00    +0.000 C 
ATOM     12  C   UNL     1      -0.670  12.429  22.142  0.00  0.00    +0.000 C 
ATOM     13  C   UNL     1      -1.507  12.457  20.869  0.00  0.00    +0.000 C 
ATOM     14  C   UNL     1      -1.261  11.362  19.830  0.00  0.00    +0.000 C 
ENDBRANCH   2   5
BRANCH   3  15
ATOM     15  C   UNL     1       3.042   5.487  18.818  0.00  0.00    +0.000 A 
ATOM     16  C   UNL     1       2.506   4.648  17.836  0.00  0.00    +0.000 A 
ATOM     17  C   UNL     1       3.248   3.584  17.356  0.00  0.00    +0.000 A 
ATOM     18  C   UNL     1       4.525   3.396  17.859  0.00  0.00    +0.000 A 
ATOM     19  N   UNL     1       5.092   4.194  18.790  0.00  0.00    +0.000 NA
ATOM     20  C   UNL     1       4.342   5.219  19.246  0.00  0.00    +0.000 A 
ENDBRANCH   3  15
TORSDOF 2
ENDMDL
MODEL 9
REMARK VINA RESULT:      -6.8      4.777      5.433
REMARK  Name = 
REMARK  2 active torsions:
REMARK  status: ('A' for Active; 'I' for Inactive)
REMARK    1  A    between atoms: C_2  and  C_10
REMARK    2  A    between atoms: N_3  and  C_4
REMARK                            x       y       z     vdW  Elec       q    Type
REMARK                         _______ _______ _______ _____ _____    ______ ____
ROOT
ATOM      1  O   UNL     1       3.236   5.347  18.370  0.00  0.00    +0.000 OA
ATOM      2  C   UNL     1       3.395   6.527  18.111  0.00  0.00    +0.000 C 
ATOM      3  N   UNL     1       4.421   7.032  17.324  0.00  0.00    +0.000 N 
ATOM      4  H   UNL     1       4.579   8.035  17.384  0.00  0.00    +0.000 HD
ENDROOT
BRANCH   2   5
ATOM      5  C   UNL     1       2.557   7.556  18.712  0.00  0.00    +0.000 A 
ATOM      6  C   UNL     1       2.090   8.723  18.143  0.00  0.00    +0.000 A 
ATOM      7  C   UNL     1       1.126   9.389  18.981  0.00  0.00    +0.000 A 
ATOM      8  C   UNL     1       0.984   8.730  20.190  0.00  0.00    +0.000 A 
ATOM      9  S   UNL     1       1.983   7.363  20.302  0.00  0.00    +0.000 S 
ATOM     10  C   UNL     1       0.055   8.985  21.330  0.00  0.00    +0.000 C 
ATOM     11  C   UNL     1      -0.135  10.438  21.747  0.00  0.00    +0.000 C 
ATOM     12  C   UNL     1       0.594  11.513  20.947  0.00  0.00    +0.000 C 
ATOM     13  C   UNL     1       0.045  11.683  19.536  0.00  0.00    +0.000 C 
ATOM     14  C   UNL     1       0.324  10.571  18.524  0.00  0.00    +0.000 C 
ENDBRANCH   2   5
BRANCH   3  15
ATOM     15  C   UNL     1       5.373   6.247  16.675  0.00  0.00    +0.000 A 
ATOM     16  C   UNL     1       5.223   5.822  15.351  0.00  0.00    +0.000 A 
ATOM     17  C   UNL     1       6.177   5.001  14.777  0.00  0.00    +0.000 A 
ATOM     18  C   UNL     1       7.274   4.638  15.539  0.00  0.00    +0.000 A 
ATOM     19  N   UNL     1       7.472   5.042  16.813  0.00  0.00    +0.000 NA
ATOM     20  C   UNL     1       6.522   5.836  17.351  0.00  0.00    +0.000 A 
ENDBRANCH   3  15
TORSDOF 2
ENDMDL
