MODEL 1
REMARK VINA RESULT:      -7.3      0.000      0.000
REMARK  Name = 
REMARK  6 active torsions:
REMARK  status: ('A' for Active; 'I' for Inactive)
REMARK    1  A    between atoms: C_2  and  C_3
REMARK    2  A    between atoms: C_7  and  C_8
REMARK    3  A    between atoms: C_14  and  O_15
REMARK    4  A    between atoms: O_15  and  C_16
REMARK    5  A    between atoms: C_16  and  C_17
REMARK    6  A    between atoms: C_17  and  O_19
REMARK                            x       y       z     vdW  Elec       q    Type
REMARK                         _______ _______ _______ _____ _____    ______ ____
ROOT
ATOM      1  C   UNL     1       3.982   6.102  18.341  0.00  0.00    +0.000 A 
ATOM      2  C   UNL     1       3.514   7.327  17.794  0.00  0.00    +0.000 A 
ATOM      3  C   UNL     1       2.469   8.053  18.361  0.00  0.00    +0.000 A 
ATOM      4 CL   UNL     1       1.947   9.518  17.628  0.00  0.00    +0.000 Cl
ATOM      5  C   UNL     1       1.850   7.592  19.504  0.00  0.00    +0.000 A 
ATOM      6  C   UNL     1       2.274   6.392  20.075  0.00  0.00    +0.000 A 
ATOM      7  C   UNL     1       3.307   5.620  19.497  0.00  0.00    +0.000 A 
ENDROOT
BRANCH   1  12
ATOM      8  C   UNL     1       6.094   4.486  15.578  0.00  0.00    +0.000 A 
ATOM      9  C   UNL     1       7.344   4.403  16.192  0.00  0.00    +0.000 A 
ATOM     10  C   UNL     1       7.476   4.779  17.520  0.00  0.00    +0.000 A 
ATOM     11  C   UNL     1       6.361   5.243  18.223  0.00  0.00    +0.000 A 
ATOM     12  C   UNL     1       5.093   5.412  17.614  0.00  0.00    +0.000 A 
ATOM     13  C   UNL     1       4.988   5.001  16.278  0.00  0.00    +0.000 A 
BRANCH   8  15
ATOM     14  N   UNL     1       5.805   3.719  13.120  0.00  0.00    +0.000 NA
ATOM     15  C   UNL     1       5.941   4.058  14.225  0.00  0.00    +0.000 C 
ENDBRANCH   8  15
ENDBRANCH   1  12
BRANCH   7  16
ATOM     16  O   UNL     1       3.676   4.398  20.037  0.00  0.00    +0.000 OA
BRANCH  16  17
ATOM     17  C   UNL     1       2.733   3.334  19.833  0.00  0.00    +0.000 C 
BRANCH  17  18
ATOM     18  C   UNL     1       2.036   2.875  21.105  0.00  0.00    +0.000 C 
ATOM     19  O   UNL     1       2.635   2.498  22.103  0.00  0.00    +0.000 OA
BRANCH  18  20
ATOM     20  O   UNL     1       0.688   2.905  21.026  0.00  0.00    +0.000 OA
ATOM     21  H   UNL     1       0.342   3.769  21.333  0.00  0.00    +0.000 HD
ENDBRANCH  18  20
ENDBRANCH  17  18
ENDBRANCH  16  17
ENDBRANCH   7  16
TORSDOF 6
ENDMDL
MODEL 2
REMARK VINA RESULT:      -7.2      1.525      1.928
REMARK  Name = 
REMARK  6 active torsions:
REMARK  status: ('A' for Active; 'I' for Inactive)
REMARK    1  A    between atoms: C_2  and  C_3
REMARK    2  A    between atoms: C_7  and  C_8
REMARK    3  A    between atoms: C_14  and  O_15
REMARK    4  A    between atoms: O_15  and  C_16
REMARK    5  A    between atoms: C_16  and  C_17
REMARK    6  A    between atoms: C_17  and  O_19
REMARK                            x       y       z     vdW  Elec       q    Type
REMARK                         _______ _______ _______ _____ _____    ______ ____
ROOT
ATOM      1  C   UNL     1       3.842   5.453  19.057  0.00  0.00    +0.000 A 
ATOM      2  C   UNL     1       3.317   6.755  18.839  0.00  0.00    +0.000 A 
ATOM      3  C   UNL     1       2.197   7.237  19.513  0.00  0.00    +0.000 A 
ATOM      4 CL   UNL     1       1.610   8.818  19.180  0.00  0.00    +0.000 Cl
ATOM      5  C   UNL     1       1.555   6.441  20.440  0.00  0.00    +0.000 A 
ATOM      6  C   UNL     1       2.034   5.154  20.684  0.00  0.00    +0.000 A 
ATOM      7  C   UNL     1       3.146   4.631  19.986  0.00  0.00    +0.000 A 
ENDROOT
BRANCH   1  12
ATOM      8  C   UNL     1       6.100   4.481  16.114  0.00  0.00    +0.000 A 
ATOM      9  C   UNL     1       7.371   4.626  16.674  0.00  0.00    +0.000 A 
ATOM     10  C   UNL     1       7.489   4.942  18.019  0.00  0.00    +0.000 A 
ATOM     11  C   UNL     1       6.338   5.120  18.793  0.00  0.00    +0.000 A 
ATOM     12  C   UNL     1       5.033   5.055  18.244  0.00  0.00    +0.000 A 
ATOM     13  C   UNL     1       4.949   4.711  16.888  0.00  0.00    +0.000 A 
BRANCH   8  15
ATOM     14  N   UNL     1       5.876   3.820  13.619  0.00  0.00    +0.000 NA
ATOM     15  C   UNL     1       5.971   4.111  14.742  0.00  0.00    +0.000 C 
ENDBRANCH   8  15
ENDBRANCH   1  12
BRANCH   7  16
ATOM     16  O   UNL     1       3.573   3.329  20.191  0.00  0.00    +0.000 OA
BRANCH  16  17
ATOM     17  C   UNL     1       2.695   2.314  19.678  0.00  0.00    +0.000 C 
BRANCH  17  18
ATOM     18  C   UNL     1       2.944   1.963  18.220  0.00  0.00    +0.000 C 
ATOM     19  O   UNL     1       2.207   2.315  17.307  0.00  0.00    +0.000 OA
BRANCH  18  20
ATOM     20  O   UNL     1       4.047   1.209  18.022  0.00  0.00    +0.000 OA
ATOM     21  H   UNL     1       3.896   0.288  18.321  0.00  0.00    +0.000 HD
ENDBRANCH  18  20
ENDBRANCH  17  18
ENDBRANCH  16  17
ENDBRANCH   7  16
TORSDOF 6
ENDMDL
MODEL 3
REMARK VINA RESULT:      -7.2      1.087      1.526
REMARK  Name = 
REMARK  6 active torsions:
REMARK  status: ('A' for Active; 'I' for Inactive)
REMARK    1  A    between atoms: C_2  and  C_3
REMARK    2  A    between atoms: C_7  and  C_8
REMARK    3  A    between atoms: C_14  and  O_15
REMARK    4  A    between atoms: O_15  and  C_16
REMARK    5  A    between atoms: C_16  and  C_17
REMARK    6  A    between atoms: C_17  and  O_19
REMARK                            x       y       z     vdW  Elec       q    Type
REMARK                         _______ _______ _______ _____ _____    ______ ____
ROOT
ATOM      1  C   UNL     1       3.927   6.110  18.436  0.00  0.00    +0.000 A 
ATOM      2  C   UNL     1       3.461   7.328  17.874  0.00  0.00    +0.000 A 
ATOM      3  C   UNL     1       2.400   8.050  18.415  0.00  0.00    +0.000 A 
ATOM      4 CL   UNL     1       1.881   9.506  17.665  0.00  0.00    +0.000 Cl
ATOM      5  C   UNL     1       1.761   7.589  19.548  0.00  0.00    +0.000 A 
ATOM      6  C   UNL     1       2.183   6.395  20.133  0.00  0.00    +0.000 A 
ATOM      7  C   UNL     1       3.233   5.628  19.581  0.00  0.00    +0.000 A 
ENDROOT
BRANCH   1  12
ATOM      8  C   UNL     1       6.106   4.495  15.725  0.00  0.00    +0.000 A 
ATOM      9  C   UNL     1       7.345   4.427  16.364  0.00  0.00    +0.000 A 
ATOM     10  C   UNL     1       7.448   4.812  17.691  0.00  0.00    +0.000 A 
ATOM     11  C   UNL     1       6.315   5.271  18.370  0.00  0.00    +0.000 A 
ATOM     12  C   UNL     1       5.058   5.425  17.736  0.00  0.00    +0.000 A 
ATOM     13  C   UNL     1       4.983   5.005  16.400  0.00  0.00    +0.000 A 
BRANCH   8  15
ATOM     14  N   UNL     1       5.898   3.698  13.269  0.00  0.00    +0.000 NA
ATOM     15  C   UNL     1       5.983   4.057  14.372  0.00  0.00    +0.000 C 
ENDBRANCH   8  15
ENDBRANCH   1  12
BRANCH   7  16
ATOM     16  O   UNL     1       3.601   4.412  20.135  0.00  0.00    +0.000 OA
BRANCH  16  17
ATOM     17  C   UNL     1       2.921   3.268  19.593  0.00  0.00    +0.000 C 
BRANCH  17  18
ATOM     18  C   UNL     1       3.854   2.173  19.101  0.00  0.00    +0.000 C 
ATOM     19  O   UNL     1       3.541   1.357  18.243  0.00  0.00    +0.000 OA
BRANCH  18  20
ATOM     20  O   UNL     1       5.059   2.170  19.711  0.00  0.00    +0.000 OA
ATOM     21  H   UNL     1       5.781   2.103  19.052  0.00  0.00    +0.000 HD
ENDBRANCH  18  20
ENDBRANCH  17  18
ENDBRANCH  16  17
ENDBRANCH   7  16
TORSDOF 6
ENDMDL
MODEL 4
REMARK VINA RESULT:      -7.1      3.420      5.759
REMARK  Name = 
REMARK  6 active torsions:
REMARK  status: ('A' for Active; 'I' for Inactive)
REMARK    1  A    between atoms: C_2  and  C_3
REMARK    2  A    between atoms: C_7  and  C_8
REMARK    3  A    between atoms: C_14  and  O_15
REMARK    4  A    between atoms: O_15  and  C_16
REMARK    5  A    between atoms: C_16  and  C_17
REMARK    6  A    between atoms: C_17  and  O_19
REMARK                            x       y       z     vdW  Elec       q    Type
REMARK                         _______ _______ _______ _____ _____    ______ ____
ROOT
ATOM      1  C   UNL     1       5.110   5.138  16.270  0.00  0.00    +0.000 A 
ATOM      2  C   UNL     1       4.936   4.405  15.066  0.00  0.00    +0.000 A 
ATOM      3  C   UNL     1       5.949   4.256  14.122  0.00  0.00    +0.000 A 
ATOM      4 CL   UNL     1       5.654   3.369  12.680  0.00  0.00    +0.000 Cl
ATOM      5  C   UNL     1       7.185   4.829  14.341  0.00  0.00    +0.000 A 
ATOM      6  C   UNL     1       7.401   5.562  15.509  0.00  0.00    +0.000 A 
ATOM      7  C   UNL     1       6.377   5.756  16.463  0.00  0.00    +0.000 A 
ENDROOT
BRANCH   1  12
ATOM      8  C   UNL     1       2.066   4.244  18.423  0.00  0.00    +0.000 A 
ATOM      9  C   UNL     1       1.899   5.410  19.172  0.00  0.00    +0.000 A 
ATOM     10  C   UNL     1       2.705   6.507  18.912  0.00  0.00    +0.000 A 
ATOM     11  C   UNL     1       3.679   6.429  17.912  0.00  0.00    +0.000 A 
ATOM     12  C   UNL     1       3.929   5.241  17.182  0.00  0.00    +0.000 A 
ATOM     13  C   UNL     1       3.081   4.158  17.454  0.00  0.00    +0.000 A 
BRANCH   8  15
ATOM     14  N   UNL     1       0.500   2.224  18.849  0.00  0.00    +0.000 NA
ATOM     15  C   UNL     1       1.209   3.126  18.655  0.00  0.00    +0.000 C 
ENDBRANCH   8  15
ENDBRANCH   1  12
BRANCH   7  16
ATOM     16  O   UNL     1       6.585   6.539  17.588  0.00  0.00    +0.000 OA
BRANCH  16  17
ATOM     17  C   UNL     1       7.682   6.128  18.420  0.00  0.00    +0.000 C 
BRANCH  17  18
ATOM     18  C   UNL     1       7.255   5.431  19.702  0.00  0.00    +0.000 C 
ATOM     19  O   UNL     1       6.166   4.890  19.845  0.00  0.00    +0.000 OA
BRANCH  18  20
ATOM     20  O   UNL     1       8.185   5.477  20.681  0.00  0.00    +0.000 OA
ATOM     21  H   UNL     1       8.956   4.917  20.454  0.00  0.00    +0.000 HD
ENDBRANCH  18  20
ENDBRANCH  17  18
ENDBRANCH  16  17
ENDBRANCH   7  16
TORSDOF 6
ENDMDL
MODEL 5
REMARK VINA RESULT:      -7.1      1.591      2.267
REMARK  Name = 
REMARK  6 active torsions:
REMARK  status: ('A' for Active; 'I' for Inactive)
REMARK    1  A    between atoms: C_2  and  C_3
REMARK    2  A    between atoms: C_7  and  C_8
REMARK    3  A    between atoms: C_14  and  O_15
REMARK    4  A    between atoms: O_15  and  C_16
REMARK    5  A    between atoms: C_16  and  C_17
REMARK    6  A    between atoms: C_17  and  O_19
REMARK                            x       y       z     vdW  Elec       q    Type
REMARK                         _______ _______ _______ _____ _____    ______ ____
ROOT
ATOM      1  C   UNL     1       2.532   6.860  18.841  0.00  0.00    +0.000 A 
ATOM      2  C   UNL     1       2.213   8.142  18.318  0.00  0.00    +0.000 A 
ATOM      3  C   UNL     1       1.528   9.105  19.054  0.00  0.00    +0.000 A 
ATOM      4 CL   UNL     1       1.162  10.627  18.345  0.00  0.00    +0.000 Cl
ATOM      5  C   UNL     1       1.136   8.834  20.349  0.00  0.00    +0.000 A 
ATOM      6  C   UNL     1       1.426   7.586  20.903  0.00  0.00    +0.000 A 
ATOM      7  C   UNL     1       2.087   6.581  20.163  0.00  0.00    +0.000 A 
ENDROOT
BRANCH   1  12
ATOM      8  C   UNL     1       5.220   5.217  16.654  0.00  0.00    +0.000 A 
ATOM      9  C   UNL     1       4.693   3.938  16.474  0.00  0.00    +0.000 A 
ATOM     10  C   UNL     1       3.435   3.644  16.976  0.00  0.00    +0.000 A 
ATOM     11  C   UNL     1       2.715   4.627  17.663  0.00  0.00    +0.000 A 
ATOM     12  C   UNL     1       3.247   5.912  17.931  0.00  0.00    +0.000 A 
ATOM     13  C   UNL     1       4.511   6.184  17.389  0.00  0.00    +0.000 A 
BRANCH   8  15
ATOM     14  N   UNL     1       7.539   5.790  15.648  0.00  0.00    +0.000 NA
ATOM     15  C   UNL     1       6.496   5.541  16.100  0.00  0.00    +0.000 C 
ENDBRANCH   8  15
ENDBRANCH   1  12
BRANCH   7  16
ATOM     16  O   UNL     1       2.312   5.324  20.703  0.00  0.00    +0.000 OA
BRANCH  16  17
ATOM     17  C   UNL     1       1.181   4.438  20.671  0.00  0.00    +0.000 C 
BRANCH  17  18
ATOM     18  C   UNL     1       1.537   2.976  20.893  0.00  0.00    +0.000 C 
ATOM     19  O   UNL     1       1.612   2.156  19.987  0.00  0.00    +0.000 OA
BRANCH  18  20
ATOM     20  O   UNL     1       1.747   2.659  22.189  0.00  0.00    +0.000 OA
ATOM     21  H   UNL     1       1.318   3.312  22.780  0.00  0.00    +0.000 HD
ENDBRANCH  18  20
ENDBRANCH  17  18
ENDBRANCH  16  17
ENDBRANCH   7  16
TORSDOF 6
ENDMDL
MODEL 6
REMARK VINA RESULT:      -7.0      2.854      4.061
REMARK  Name = 
REMARK  6 active torsions:
REMARK  status: ('A' for Active; 'I' for Inactive)
REMARK    1  A    between atoms: C_2  and  C_3
REMARK    2  A    between atoms: C_7  and  C_8
REMARK    3  A    between atoms: C_14  and  O_15
REMARK    4  A    between atoms: O_15  and  C_16
REMARK    5  A    between atoms: C_16  and  C_17
REMARK    6  A    between atoms: C_17  and  O_19
REMARK                            x       y       z     vdW  Elec       q    Type
REMARK                         _______ _______ _______ _____ _____    ______ ____
ROOT
ATOM      1  C   UNL     1       3.756   4.878  19.078  0.00  0.00    +0.000 A 
ATOM      2  C   UNL     1       3.375   3.764  19.873  0.00  0.00    +0.000 A 
ATOM      3  C   UNL     1       2.265   3.784  20.714  0.00  0.00    +0.000 A 
ATOM      4 CL   UNL     1       1.880   2.400  21.658  0.00  0.00    +0.000 Cl
ATOM      5  C   UNL     1       1.481   4.917  20.794  0.00  0.00    +0.000 A 
ATOM      6  C   UNL     1       1.820   6.037  20.034  0.00  0.00    +0.000 A 
ATOM      7  C   UNL     1       2.961   6.052  19.203  0.00  0.00    +0.000 A 
ENDROOT
BRANCH   1  12
ATOM      8  C   UNL     1       6.106   4.420  16.084  0.00  0.00    +0.000 A 
ATOM      9  C   UNL     1       7.337   4.780  16.634  0.00  0.00    +0.000 A 
ATOM     10  C   UNL     1       7.417   5.075  17.986  0.00  0.00    +0.000 A 
ATOM     11  C   UNL     1       6.266   5.017  18.778  0.00  0.00    +0.000 A 
ATOM     12  C   UNL     1       4.987   4.729  18.241  0.00  0.00    +0.000 A 
ATOM     13  C   UNL     1       4.945   4.412  16.876  0.00  0.00    +0.000 A 
BRANCH   8  15
ATOM     14  N   UNL     1       5.964   3.771  13.579  0.00  0.00    +0.000 NA
ATOM     15  C   UNL     1       6.026   4.070  14.702  0.00  0.00    +0.000 C 
ENDBRANCH   8  15
ENDBRANCH   1  12
BRANCH   7  16
ATOM     16  O   UNL     1       3.322   7.192  18.502  0.00  0.00    +0.000 OA
BRANCH  16  17
ATOM     17  C   UNL     1       2.269   7.789  17.728  0.00  0.00    +0.000 C 
BRANCH  17  18
ATOM     18  C   UNL     1       1.841   9.161  18.224  0.00  0.00    +0.000 C 
ATOM     19  O   UNL     1       1.346   9.355  19.327  0.00  0.00    +0.000 OA
BRANCH  18  20
ATOM     20  O   UNL     1       2.042  10.151  17.327  0.00  0.00    +0.000 OA
ATOM     21  H   UNL     1       1.507  10.001  16.520  0.00  0.00    +0.000 HD
ENDBRANCH  18  20
ENDBRANCH  17  18
ENDBRANCH  16  17
ENDBRANCH   7  16
TORSDOF 6
ENDMDL
MODEL 7
REMARK VINA RESULT:      -7.0      3.579      6.069
REMARK  Name = 
REMARK  6 active torsions:
REMARK  status: ('A' for Active; 'I' for Inactive)
REMARK    1  A    between atoms: C_2  and  C_3
REMARK    2  A    between atoms: C_7  and  C_8
REMARK    3  A    between atoms: C_14  and  O_15
REMARK    4  A    between atoms: O_15  and  C_16
REMARK    5  A    between atoms: C_16  and  C_17
REMARK    6  A    between atoms: C_17  and  O_19
REMARK                            x       y       z     vdW  Elec       q    Type
REMARK                         _______ _______ _______ _____ _____    ______ ____
ROOT
ATOM      1  C   UNL     1       5.501   4.589  15.534  0.00  0.00    +0.000 A 
ATOM      2  C   UNL     1       4.956   4.015  14.355  0.00  0.00    +0.000 A 
ATOM      3  C   UNL     1       5.683   3.889  13.174  0.00  0.00    +0.000 A 
ATOM      4 CL   UNL     1       4.947   3.199  11.782  0.00  0.00    +0.000 Cl
ATOM      5  C   UNL     1       6.991   4.325  13.120  0.00  0.00    +0.000 A 
ATOM      6  C   UNL     1       7.567   4.899  14.254  0.00  0.00    +0.000 A 
ATOM      7  C   UNL     1       6.837   5.071  15.451  0.00  0.00    +0.000 A 
ENDROOT
BRANCH   1  12
ATOM      8  C   UNL     1       3.080   5.940  18.184  0.00  0.00    +0.000 A 
ATOM      9  C   UNL     1       2.636   4.762  18.786  0.00  0.00    +0.000 A 
ATOM     10  C   UNL     1       3.188   3.550  18.400  0.00  0.00    +0.000 A 
ATOM     11  C   UNL     1       4.175   3.523  17.409  0.00  0.00    +0.000 A 
ATOM     12  C   UNL     1       4.598   4.688  16.723  0.00  0.00    +0.000 A 
ATOM     13  C   UNL     1       4.036   5.898  17.154  0.00  0.00    +0.000 A 
BRANCH   8  15
ATOM     14  N   UNL     1       2.100   8.212  18.954  0.00  0.00    +0.000 NA
ATOM     15  C   UNL     1       2.548   7.195  18.609  0.00  0.00    +0.000 C 
ENDBRANCH   8  15
ENDBRANCH   1  12
BRANCH   7  16
ATOM     16  O   UNL     1       7.400   5.700  16.550  0.00  0.00    +0.000 OA
BRANCH  16  17
ATOM     17  C   UNL     1       7.663   4.842  17.673  0.00  0.00    +0.000 C 
BRANCH  17  18
ATOM     18  C   UNL     1       7.447   5.509  19.022  0.00  0.00    +0.000 C 
ATOM     19  O   UNL     1       6.530   5.217  19.779  0.00  0.00    +0.000 OA
BRANCH  18  20
ATOM     20  O   UNL     1       8.352   6.470  19.305  0.00  0.00    +0.000 OA
ATOM     21  H   UNL     1       9.257   6.097  19.332  0.00  0.00    +0.000 HD
ENDBRANCH  18  20
ENDBRANCH  17  18
ENDBRANCH  16  17
ENDBRANCH   7  16
TORSDOF 6
ENDMDL
MODEL 8
REMARK VINA RESULT:      -7.0      3.527      6.026
REMARK  Name = 
REMARK  6 active torsions:
REMARK  status: ('A' for Active; 'I' for Inactive)
REMARK    1  A    between atoms: C_2  and  C_3
REMARK    2  A    between atoms: C_7  and  C_8
REMARK    3  A    between atoms: C_14  and  O_15
REMARK    4  A    between atoms: O_15  and  C_16
REMARK    5  A    between atoms: C_16  and  C_17
REMARK    6  A    between atoms: C_17  and  O_19
REMARK                            x       y       z     vdW  Elec       q    Type
REMARK                         _______ _______ _______ _____ _____    ______ ____
ROOT
ATOM      1  C   UNL     1       5.460   4.748  15.461  0.00  0.00    +0.000 A 
ATOM      2  C   UNL     1       4.891   4.177  14.292  0.00  0.00    +0.000 A 
ATOM      3  C   UNL     1       5.637   3.902  13.148  0.00  0.00    +0.000 A 
ATOM      4 CL   UNL     1       4.871   3.226  11.766  0.00  0.00    +0.000 Cl
ATOM      5  C   UNL     1       6.989   4.180  13.124  0.00  0.00    +0.000 A 
ATOM      6  C   UNL     1       7.590   4.746  14.249  0.00  0.00    +0.000 A 
ATOM      7  C   UNL     1       6.846   5.066  15.406  0.00  0.00    +0.000 A 
ENDROOT
BRANCH   1  12
ATOM      8  C   UNL     1       3.229   4.282  18.544  0.00  0.00    +0.000 A 
ATOM      9  C   UNL     1       3.053   5.600  18.967  0.00  0.00    +0.000 A 
ATOM     10  C   UNL     1       3.573   6.634  18.204  0.00  0.00    +0.000 A 
ATOM     11  C   UNL     1       4.273   6.344  17.028  0.00  0.00    +0.000 A 
ATOM     12  C   UNL     1       4.536   5.017  16.607  0.00  0.00    +0.000 A 
ATOM     13  C   UNL     1       3.976   3.997  17.388  0.00  0.00    +0.000 A 
BRANCH   8  15
ATOM     14  N   UNL     1       2.203   2.342  19.923  0.00  0.00    +0.000 NA
ATOM     15  C   UNL     1       2.656   3.215  19.301  0.00  0.00    +0.000 C 
ENDBRANCH   8  15
ENDBRANCH   1  12
BRANCH   7  16
ATOM     16  O   UNL     1       7.442   5.686  16.493  0.00  0.00    +0.000 OA
BRANCH  16  17
ATOM     17  C   UNL     1       7.629   4.846  17.644  0.00  0.00    +0.000 C 
BRANCH  17  18
ATOM     18  C   UNL     1       7.483   5.576  18.970  0.00  0.00    +0.000 C 
ATOM     19  O   UNL     1       6.675   5.254  19.831  0.00  0.00    +0.000 OA
BRANCH  18  20
ATOM     20  O   UNL     1       8.319   6.629  19.106  0.00  0.00    +0.000 OA
ATOM     21  H   UNL     1       8.373   7.139  18.272  0.00  0.00    +0.000 HD
ENDBRANCH  18  20
ENDBRANCH  17  18
ENDBRANCH  16  17
ENDBRANCH   7  16
TORSDOF 6
ENDMDL
MODEL 9
REMARK VINA RESULT:      -6.9      3.659      6.033
REMARK  Name = 
REMARK  6 active torsions:
REMARK  status: ('A' for Active; 'I' for Inactive)
REMARK    1  A    between atoms: C_2  and  C_3
REMARK    2  A    between atoms: C_7  and  C_8
REMARK    3  A    between atoms: C_14  and  O_15
REMARK    4  A    between atoms: O_15  and  C_16
REMARK    5  A    between atoms: C_16  and  C_17
REMARK    6  A    between atoms: C_17  and  O_19
REMARK                            x       y       z     vdW  Elec       q    Type
REMARK                         _______ _______ _______ _____ _____    ______ ____
ROOT
ATOM      1  C   UNL     1       5.195   4.839  16.149  0.00  0.00    +0.000 A 
ATOM      2  C   UNL     1       5.081   4.092  14.946  0.00  0.00    +0.000 A 
ATOM      3  C   UNL     1       6.054   4.117  13.950  0.00  0.00    +0.000 A 
ATOM      4 CL   UNL     1       5.835   3.200  12.513  0.00  0.00    +0.000 Cl
ATOM      5  C   UNL     1       7.190   4.883  14.115  0.00  0.00    +0.000 A 
ATOM      6  C   UNL     1       7.343   5.635  15.280  0.00  0.00    +0.000 A 
ATOM      7  C   UNL     1       6.352   5.655  16.287  0.00  0.00    +0.000 A 
ENDROOT
BRANCH   1  12
ATOM      8  C   UNL     1       2.513   5.736  18.739  0.00  0.00    +0.000 A 
ATOM      9  C   UNL     1       1.699   4.603  18.706  0.00  0.00    +0.000 A 
ATOM     10  C   UNL     1       2.071   3.521  17.923  0.00  0.00    +0.000 A 
ATOM     11  C   UNL     1       3.249   3.582  17.171  0.00  0.00    +0.000 A 
ATOM     12  C   UNL     1       4.061   4.742  17.120  0.00  0.00    +0.000 A 
ATOM     13  C   UNL     1       3.669   5.808  17.941  0.00  0.00    +0.000 A 
BRANCH   8  15
ATOM     14  N   UNL     1       1.859   7.734  20.254  0.00  0.00    +0.000 NA
ATOM     15  C   UNL     1       2.159   6.836  19.578  0.00  0.00    +0.000 C 
ENDBRANCH   8  15
ENDBRANCH   1  12
BRANCH   7  16
ATOM     16  O   UNL     1       6.487   6.456  17.410  0.00  0.00    +0.000 OA
BRANCH  16  17
ATOM     17  C   UNL     1       7.690   6.244  18.166  0.00  0.00    +0.000 C 
BRANCH  17  18
ATOM     18  C   UNL     1       7.471   5.512  19.481  0.00  0.00    +0.000 C 
ATOM     19  O   UNL     1       6.385   5.068  19.833  0.00  0.00    +0.000 OA
BRANCH  18  20
ATOM     20  O   UNL     1       8.584   5.410  20.239  0.00  0.00    +0.000 OA
ATOM     21  H   UNL     1       9.388   5.508  19.688  0.00  0.00    +0.000 HD
ENDBRANCH  18  20
ENDBRANCH  17  18
ENDBRANCH  16  17
ENDBRANCH   7  16
TORSDOF 6
ENDMDL
