MODEL 1
REMARK VINA RESULT:      -7.9      0.000      0.000
REMARK  Name = 
REMARK  12 active torsions:
REMARK  status: ('A' for Active; 'I' for Inactive)
REMARK    1  A    between atoms: C_8  and  C_9
REMARK    2  A    between atoms: C_10  and  C_11
REMARK    3  A    between atoms: C_11  and  C_12
REMARK    4  A    between atoms: C_11  and  C_13
REMARK    5  A    between atoms: C_13  and  C_14
REMARK    6  A    between atoms: C_14  and  C_15
REMARK    7  A    between atoms: C_15  and  O_16
REMARK    8  A    between atoms: O_16  and  C_17
REMARK    9  A    between atoms: C_17  and  C_18
REMARK   10  A    between atoms: C_20  and  O_21
REMARK   11  A    between atoms: O_21  and  C_22
REMARK   12  A    between atoms: C_22  and  C_23
REMARK                            x       y       z     vdW  Elec       q    Type
REMARK                         _______ _______ _______ _____ _____    ______ ____
ROOT
ATOM      1  C   UNL     1       7.830   4.929  18.530  0.00  0.00    +0.000 C 
ATOM      2  C   UNL     1       7.349   5.786  17.624  0.00  0.00    +0.000 C 
ATOM      3  C   UNL     1       7.583   7.254  17.732  0.00  0.00    +0.000 C 
ATOM      4  O   UNL     1       8.341   7.818  18.492  0.00  0.00    +0.000 OA
ATOM      5  O   UNL     1       6.787   7.853  16.796  0.00  0.00    +0.000 OA
ATOM      6  C   UNL     1       5.813   6.901  16.330  0.00  0.00    +0.000 C 
ATOM      7  C   UNL     1       4.573   7.004  17.221  0.00  0.00    +0.000 C 
ATOM      8  C   UNL     1       3.819   5.729  17.550  0.00  0.00    +0.000 C 
ATOM      9  C   UNL     1       2.562   6.079  18.311  0.00  0.00    +0.000 C 
ATOM     10  C   UNL     1       4.266   4.498  17.180  0.00  0.00    +0.000 C 
ATOM     11  C   UNL     1       5.539   4.393  16.313  0.00  0.00    +0.000 C 
ATOM     12  C   UNL     1       6.518   5.568  16.401  0.00  0.00    +0.000 C 
ENDROOT
BRANCH  10  13
ATOM     13  C   UNL     1       3.634   3.101  17.431  0.00  0.00    +0.000 C 
ATOM     14  C   UNL     1       4.198   2.458  18.717  0.00  0.00    +0.000 C 
BRANCH  13  15
ATOM     15  C   UNL     1       2.106   2.921  17.492  0.00  0.00    +0.000 C 
BRANCH  15  16
ATOM     16  C   UNL     1       1.597   2.155  18.715  0.00  0.00    +0.000 C 
BRANCH  16  17
ATOM     17  C   UNL     1       0.721   3.071  19.574  0.00  0.00    +0.000 C 
BRANCH  17  18
ATOM     18  O   UNL     1       0.877   2.734  20.959  0.00  0.00    +0.000 OA
BRANCH  18  19
ATOM     19  C   UNL     1       2.057   3.129  21.512  0.00  0.00    +0.000 C 
ATOM     20  C   UNL     1       2.258   4.603  21.344  0.00  0.00    +0.000 C 
ATOM     21  O   UNL     1       2.878   2.387  22.035  0.00  0.00    +0.000 OA
ENDBRANCH  18  19
ENDBRANCH  17  18
ENDBRANCH  16  17
ENDBRANCH  15  16
ENDBRANCH  13  15
ENDBRANCH  10  13
BRANCH  11  22
ATOM     22  O   UNL     1       5.068   4.314  14.942  0.00  0.00    +0.000 OA
BRANCH  22  23
ATOM     23  C   UNL     1       5.995   4.047  13.983  0.00  0.00    +0.000 C 
ATOM     24  C   UNL     1       5.328   3.559  12.732  0.00  0.00    +0.000 C 
ATOM     25  O   UNL     1       7.205   4.158  14.111  0.00  0.00    +0.000 OA
ENDBRANCH  22  23
ENDBRANCH  11  22
TORSDOF 8
ENDMDL
MODEL 2
REMARK VINA RESULT:      -7.6      1.766      6.474
REMARK  Name = 
REMARK  12 active torsions:
REMARK  status: ('A' for Active; 'I' for Inactive)
REMARK    1  A    between atoms: C_8  and  C_9
REMARK    2  A    between atoms: C_10  and  C_11
REMARK    3  A    between atoms: C_11  and  C_12
REMARK    4  A    between atoms: C_11  and  C_13
REMARK    5  A    between atoms: C_13  and  C_14
REMARK    6  A    between atoms: C_14  and  C_15
REMARK    7  A    between atoms: C_15  and  O_16
REMARK    8  A    between atoms: O_16  and  C_17
REMARK    9  A    between atoms: C_17  and  C_18
REMARK   10  A    between atoms: C_20  and  O_21
REMARK   11  A    between atoms: O_21  and  C_22
REMARK   12  A    between atoms: C_22  and  C_23
REMARK                            x       y       z     vdW  Elec       q    Type
REMARK                         _______ _______ _______ _____ _____    ______ ____
ROOT
ATOM      1  C   UNL     1       2.880   2.438  17.539  0.00  0.00    +0.000 C 
ATOM      2  C   UNL     1       2.919   3.095  18.703  0.00  0.00    +0.000 C 
ATOM      3  C   UNL     1       1.777   3.061  19.660  0.00  0.00    +0.000 C 
ATOM      4  O   UNL     1       0.804   2.339  19.611  0.00  0.00    +0.000 OA
ATOM      5  O   UNL     1       2.039   3.995  20.624  0.00  0.00    +0.000 OA
ATOM      6  C   UNL     1       3.098   4.856  20.167  0.00  0.00    +0.000 C 
ATOM      7  C   UNL     1       2.471   6.035  19.417  0.00  0.00    +0.000 C 
ATOM      8  C   UNL     1       3.198   6.580  18.202  0.00  0.00    +0.000 C 
ATOM      9  C   UNL     1       2.486   7.818  17.712  0.00  0.00    +0.000 C 
ATOM     10  C   UNL     1       4.315   5.992  17.694  0.00  0.00    +0.000 C 
ATOM     11  C   UNL     1       4.925   4.779  18.428  0.00  0.00    +0.000 C 
ATOM     12  C   UNL     1       3.968   3.970  19.310  0.00  0.00    +0.000 C 
ENDROOT
BRANCH  10  13
ATOM     13  C   UNL     1       5.178   6.404  16.469  0.00  0.00    +0.000 C 
ATOM     14  C   UNL     1       6.156   7.541  16.835  0.00  0.00    +0.000 C 
BRANCH  13  15
ATOM     15  C   UNL     1       6.000   5.362  15.689  0.00  0.00    +0.000 C 
BRANCH  15  16
ATOM     16  C   UNL     1       5.215   4.580  14.634  0.00  0.00    +0.000 C 
BRANCH  16  17
ATOM     17  C   UNL     1       6.163   3.669  13.851  0.00  0.00    +0.000 C 
BRANCH  17  18
ATOM     18  O   UNL     1       6.004   3.897  12.443  0.00  0.00    +0.000 OA
BRANCH  18  19
ATOM     19  C   UNL     1       5.389   2.886  11.769  0.00  0.00    +0.000 C 
ATOM     20  C   UNL     1       4.031   3.306  11.299  0.00  0.00    +0.000 C 
ATOM     21  O   UNL     1       5.848   1.764  11.603  0.00  0.00    +0.000 OA
ENDBRANCH  18  19
ENDBRANCH  17  18
ENDBRANCH  16  17
ENDBRANCH  15  16
ENDBRANCH  13  15
ENDBRANCH  10  13
BRANCH  11  22
ATOM     22  O   UNL     1       5.959   5.327  19.288  0.00  0.00    +0.000 OA
BRANCH  22  23
ATOM     23  C   UNL     1       7.249   5.072  18.945  0.00  0.00    +0.000 C 
ATOM     24  C   UNL     1       8.172   6.043  19.618  0.00  0.00    +0.000 C 
ATOM     25  O   UNL     1       7.624   4.196  18.179  0.00  0.00    +0.000 OA
ENDBRANCH  22  23
ENDBRANCH  11  22
TORSDOF 8
ENDMDL
MODEL 3
REMARK VINA RESULT:      -7.4      1.601      6.390
REMARK  Name = 
REMARK  12 active torsions:
REMARK  status: ('A' for Active; 'I' for Inactive)
REMARK    1  A    between atoms: C_8  and  C_9
REMARK    2  A    between atoms: C_10  and  C_11
REMARK    3  A    between atoms: C_11  and  C_12
REMARK    4  A    between atoms: C_11  and  C_13
REMARK    5  A    between atoms: C_13  and  C_14
REMARK    6  A    between atoms: C_14  and  C_15
REMARK    7  A    between atoms: C_15  and  O_16
REMARK    8  A    between atoms: O_16  and  C_17
REMARK    9  A    between atoms: C_17  and  C_18
REMARK   10  A    between atoms: C_20  and  O_21
REMARK   11  A    between atoms: O_21  and  C_22
REMARK   12  A    between atoms: C_22  and  C_23
REMARK                            x       y       z     vdW  Elec       q    Type
REMARK                         _______ _______ _______ _____ _____    ______ ____
ROOT
ATOM      1  C   UNL     1       3.489   2.530  17.576  0.00  0.00    +0.000 C 
ATOM      2  C   UNL     1       3.455   3.166  18.752  0.00  0.00    +0.000 C 
ATOM      3  C   UNL     1       2.368   2.925  19.742  0.00  0.00    +0.000 C 
ATOM      4  O   UNL     1       1.530   2.050  19.707  0.00  0.00    +0.000 OA
ATOM      5  O   UNL     1       2.500   3.875  20.716  0.00  0.00    +0.000 OA
ATOM      6  C   UNL     1       3.383   4.910  20.246  0.00  0.00    +0.000 C 
ATOM      7  C   UNL     1       2.542   5.977  19.540  0.00  0.00    +0.000 C 
ATOM      8  C   UNL     1       3.127   6.656  18.315  0.00  0.00    +0.000 C 
ATOM      9  C   UNL     1       2.200   7.762  17.872  0.00  0.00    +0.000 C 
ATOM     10  C   UNL     1       4.310   6.272  17.761  0.00  0.00    +0.000 C 
ATOM     11  C   UNL     1       5.139   5.169  18.452  0.00  0.00    +0.000 C 
ATOM     12  C   UNL     1       4.362   4.196  19.345  0.00  0.00    +0.000 C 
ENDROOT
BRANCH  10  13
ATOM     13  C   UNL     1       5.049   6.843  16.519  0.00  0.00    +0.000 C 
ATOM     14  C   UNL     1       6.444   7.383  16.902  0.00  0.00    +0.000 C 
BRANCH  13  15
ATOM     15  C   UNL     1       5.250   5.991  15.253  0.00  0.00    +0.000 C 
BRANCH  15  16
ATOM     16  C   UNL     1       6.559   5.202  15.207  0.00  0.00    +0.000 C 
BRANCH  16  17
ATOM     17  C   UNL     1       6.303   3.801  14.649  0.00  0.00    +0.000 C 
BRANCH  17  18
ATOM     18  O   UNL     1       5.509   3.889  13.457  0.00  0.00    +0.000 OA
BRANCH  18  19
ATOM     19  C   UNL     1       6.157   3.529  12.315  0.00  0.00    +0.000 C 
ATOM     20  C   UNL     1       5.462   2.384  11.646  0.00  0.00    +0.000 C 
ATOM     21  O   UNL     1       7.194   4.030  11.900  0.00  0.00    +0.000 OA
ENDBRANCH  18  19
ENDBRANCH  17  18
ENDBRANCH  16  17
ENDBRANCH  15  16
ENDBRANCH  13  15
ENDBRANCH  10  13
BRANCH  11  22
ATOM     22  O   UNL     1       6.093   5.871  19.292  0.00  0.00    +0.000 OA
BRANCH  22  23
ATOM     23  C   UNL     1       7.295   5.270  19.499  0.00  0.00    +0.000 C 
ATOM     24  C   UNL     1       7.786   4.632  18.234  0.00  0.00    +0.000 C 
ATOM     25  O   UNL     1       7.895   5.222  20.563  0.00  0.00    +0.000 OA
ENDBRANCH  22  23
ENDBRANCH  11  22
TORSDOF 8
ENDMDL
MODEL 4
REMARK VINA RESULT:      -7.2      1.711      6.518
REMARK  Name = 
REMARK  12 active torsions:
REMARK  status: ('A' for Active; 'I' for Inactive)
REMARK    1  A    between atoms: C_8  and  C_9
REMARK    2  A    between atoms: C_10  and  C_11
REMARK    3  A    between atoms: C_11  and  C_12
REMARK    4  A    between atoms: C_11  and  C_13
REMARK    5  A    between atoms: C_13  and  C_14
REMARK    6  A    between atoms: C_14  and  C_15
REMARK    7  A    between atoms: C_15  and  O_16
REMARK    8  A    between atoms: O_16  and  C_17
REMARK    9  A    between atoms: C_17  and  C_18
REMARK   10  A    between atoms: C_20  and  O_21
REMARK   11  A    between atoms: O_21  and  C_22
REMARK   12  A    between atoms: C_22  and  C_23
REMARK                            x       y       z     vdW  Elec       q    Type
REMARK                         _______ _______ _______ _____ _____    ______ ____
ROOT
ATOM      1  C   UNL     1       2.768   2.636  17.360  0.00  0.00    +0.000 C 
ATOM      2  C   UNL     1       2.836   3.170  18.585  0.00  0.00    +0.000 C 
ATOM      3  C   UNL     1       1.727   3.020  19.568  0.00  0.00    +0.000 C 
ATOM      4  O   UNL     1       0.761   2.292  19.474  0.00  0.00    +0.000 OA
ATOM      5  O   UNL     1       2.008   3.853  20.615  0.00  0.00    +0.000 OA
ATOM      6  C   UNL     1       3.041   4.773  20.217  0.00  0.00    +0.000 C 
ATOM      7  C   UNL     1       2.376   6.013  19.614  0.00  0.00    +0.000 C 
ATOM      8  C   UNL     1       3.058   6.692  18.440  0.00  0.00    +0.000 C 
ATOM      9  C   UNL     1       2.315   7.963  18.104  0.00  0.00    +0.000 C 
ATOM     10  C   UNL     1       4.165   6.176  17.839  0.00  0.00    +0.000 C 
ATOM     11  C   UNL     1       4.812   4.904  18.425  0.00  0.00    +0.000 C 
ATOM     12  C   UNL     1       3.894   3.993  19.247  0.00  0.00    +0.000 C 
ENDROOT
BRANCH  10  13
ATOM     13  C   UNL     1       4.982   6.727  16.638  0.00  0.00    +0.000 C 
ATOM     14  C   UNL     1       5.909   7.880  17.077  0.00  0.00    +0.000 C 
BRANCH  13  15
ATOM     15  C   UNL     1       5.841   5.791  15.767  0.00  0.00    +0.000 C 
BRANCH  15  16
ATOM     16  C   UNL     1       5.080   4.629  15.126  0.00  0.00    +0.000 C 
BRANCH  16  17
ATOM     17  C   UNL     1       5.897   4.047  13.971  0.00  0.00    +0.000 C 
BRANCH  17  18
ATOM     18  O   UNL     1       7.278   4.405  14.122  0.00  0.00    +0.000 OA
BRANCH  18  19
ATOM     19  C   UNL     1       7.825   5.031  13.044  0.00  0.00    +0.000 C 
ATOM     20  C   UNL     1       7.293   4.458  11.767  0.00  0.00    +0.000 C 
ATOM     21  O   UNL     1       8.674   5.912  13.090  0.00  0.00    +0.000 OA
ENDBRANCH  18  19
ENDBRANCH  17  18
ENDBRANCH  16  17
ENDBRANCH  15  16
ENDBRANCH  13  15
ENDBRANCH  10  13
BRANCH  11  22
ATOM     22  O   UNL     1       5.866   5.376  19.305  0.00  0.00    +0.000 OA
BRANCH  22  23
ATOM     23  C   UNL     1       7.147   5.111  18.934  0.00  0.00    +0.000 C 
ATOM     24  C   UNL     1       8.079   6.143  19.497  0.00  0.00    +0.000 C 
ATOM     25  O   UNL     1       7.507   4.185  18.222  0.00  0.00    +0.000 OA
ENDBRANCH  22  23
ENDBRANCH  11  22
TORSDOF 8
ENDMDL
MODEL 5
REMARK VINA RESULT:      -7.0      0.958      1.592
REMARK  Name = 
REMARK  12 active torsions:
REMARK  status: ('A' for Active; 'I' for Inactive)
REMARK    1  A    between atoms: C_8  and  C_9
REMARK    2  A    between atoms: C_10  and  C_11
REMARK    3  A    between atoms: C_11  and  C_12
REMARK    4  A    between atoms: C_11  and  C_13
REMARK    5  A    between atoms: C_13  and  C_14
REMARK    6  A    between atoms: C_14  and  C_15
REMARK    7  A    between atoms: C_15  and  O_16
REMARK    8  A    between atoms: O_16  and  C_17
REMARK    9  A    between atoms: C_17  and  C_18
REMARK   10  A    between atoms: C_20  and  O_21
REMARK   11  A    between atoms: O_21  and  C_22
REMARK   12  A    between atoms: C_22  and  C_23
REMARK                            x       y       z     vdW  Elec       q    Type
REMARK                         _______ _______ _______ _____ _____    ______ ____
ROOT
ATOM      1  C   UNL     1       7.844   5.562  19.341  0.00  0.00    +0.000 C 
ATOM      2  C   UNL     1       7.530   6.231  18.227  0.00  0.00    +0.000 C 
ATOM      3  C   UNL     1       7.860   7.675  18.061  0.00  0.00    +0.000 C 
ATOM      4  O   UNL     1       8.570   8.349  18.777  0.00  0.00    +0.000 OA
ATOM      5  O   UNL     1       7.218   8.102  16.932  0.00  0.00    +0.000 OA
ATOM      6  C   UNL     1       6.233   7.123  16.554  0.00  0.00    +0.000 C 
ATOM      7  C   UNL     1       4.913   7.475  17.247  0.00  0.00    +0.000 C 
ATOM      8  C   UNL     1       4.034   6.338  17.734  0.00  0.00    +0.000 C 
ATOM      9  C   UNL     1       2.732   6.904  18.248  0.00  0.00    +0.000 C 
ATOM     10  C   UNL     1       4.426   5.036  17.681  0.00  0.00    +0.000 C 
ATOM     11  C   UNL     1       5.775   4.685  17.017  0.00  0.00    +0.000 C 
ATOM     12  C   UNL     1       6.823   5.802  16.981  0.00  0.00    +0.000 C 
ENDROOT
BRANCH  10  13
ATOM     13  C   UNL     1       3.668   3.757  18.133  0.00  0.00    +0.000 C 
ATOM     14  C   UNL     1       2.710   3.259  17.029  0.00  0.00    +0.000 C 
BRANCH  13  15
ATOM     15  C   UNL     1       4.430   2.517  18.634  0.00  0.00    +0.000 C 
BRANCH  15  16
ATOM     16  C   UNL     1       4.349   2.276  20.142  0.00  0.00    +0.000 C 
BRANCH  16  17
ATOM     17  C   UNL     1       3.181   3.070  20.733  0.00  0.00    +0.000 C 
BRANCH  17  18
ATOM     18  O   UNL     1       1.978   2.291  20.662  0.00  0.00    +0.000 OA
BRANCH  18  19
ATOM     19  C   UNL     1       0.943   2.902  20.023  0.00  0.00    +0.000 C 
ATOM     20  C   UNL     1       0.854   4.346  20.408  0.00  0.00    +0.000 C 
ATOM     21  O   UNL     1       0.152   2.350  19.269  0.00  0.00    +0.000 OA
ENDBRANCH  18  19
ENDBRANCH  17  18
ENDBRANCH  16  17
ENDBRANCH  15  16
ENDBRANCH  13  15
ENDBRANCH  10  13
BRANCH  11  22
ATOM     22  O   UNL     1       5.451   4.342  15.643  0.00  0.00    +0.000 OA
BRANCH  22  23
ATOM     23  C   UNL     1       6.487   4.259  14.766  0.00  0.00    +0.000 C 
ATOM     24  C   UNL     1       5.998   3.816  13.419  0.00  0.00    +0.000 C 
ATOM     25  O   UNL     1       7.660   4.485  15.024  0.00  0.00    +0.000 OA
ENDBRANCH  22  23
ENDBRANCH  11  22
TORSDOF 8
ENDMDL
MODEL 6
REMARK VINA RESULT:      -6.9      1.034      1.593
REMARK  Name = 
REMARK  12 active torsions:
REMARK  status: ('A' for Active; 'I' for Inactive)
REMARK    1  A    between atoms: C_8  and  C_9
REMARK    2  A    between atoms: C_10  and  C_11
REMARK    3  A    between atoms: C_11  and  C_12
REMARK    4  A    between atoms: C_11  and  C_13
REMARK    5  A    between atoms: C_13  and  C_14
REMARK    6  A    between atoms: C_14  and  C_15
REMARK    7  A    between atoms: C_15  and  O_16
REMARK    8  A    between atoms: O_16  and  C_17
REMARK    9  A    between atoms: C_17  and  C_18
REMARK   10  A    between atoms: C_20  and  O_21
REMARK   11  A    between atoms: O_21  and  C_22
REMARK   12  A    between atoms: C_22  and  C_23
REMARK                            x       y       z     vdW  Elec       q    Type
REMARK                         _______ _______ _______ _____ _____    ______ ____
ROOT
ATOM      1  C   UNL     1       7.703   5.560  19.491  0.00  0.00    +0.000 C 
ATOM      2  C   UNL     1       7.437   6.131  18.311  0.00  0.00    +0.000 C 
ATOM      3  C   UNL     1       7.807   7.545  18.024  0.00  0.00    +0.000 C 
ATOM      4  O   UNL     1       8.515   8.266  18.696  0.00  0.00    +0.000 OA
ATOM      5  O   UNL     1       7.208   7.881  16.842  0.00  0.00    +0.000 OA
ATOM      6  C   UNL     1       6.209   6.894  16.527  0.00  0.00    +0.000 C 
ATOM      7  C   UNL     1       4.880   7.338  17.146  0.00  0.00    +0.000 C 
ATOM      8  C   UNL     1       3.960   6.271  17.709  0.00  0.00    +0.000 C 
ATOM      9  C   UNL     1       2.659   6.910  18.130  0.00  0.00    +0.000 C 
ATOM     10  C   UNL     1       4.320   4.961  17.786  0.00  0.00    +0.000 C 
ATOM     11  C   UNL     1       5.677   4.520  17.196  0.00  0.00    +0.000 C 
ATOM     12  C   UNL     1       6.754   5.605  17.090  0.00  0.00    +0.000 C 
ENDROOT
BRANCH  10  13
ATOM     13  C   UNL     1       3.518   3.746  18.330  0.00  0.00    +0.000 C 
ATOM     14  C   UNL     1       2.504   3.235  17.284  0.00  0.00    +0.000 C 
BRANCH  13  15
ATOM     15  C   UNL     1       4.238   2.500  18.878  0.00  0.00    +0.000 C 
BRANCH  15  16
ATOM     16  C   UNL     1       4.475   2.505  20.389  0.00  0.00    +0.000 C 
BRANCH  16  17
ATOM     17  C   UNL     1       3.232   1.981  21.112  0.00  0.00    +0.000 C 
BRANCH  17  18
ATOM     18  O   UNL     1       2.691   3.006  21.957  0.00  0.00    +0.000 OA
BRANCH  18  19
ATOM     19  C   UNL     1       1.938   3.938  21.310  0.00  0.00    +0.000 C 
ATOM     20  C   UNL     1       0.787   3.294  20.600  0.00  0.00    +0.000 C 
ATOM     21  O   UNL     1       2.179   5.136  21.263  0.00  0.00    +0.000 OA
ENDBRANCH  18  19
ENDBRANCH  17  18
ENDBRANCH  16  17
ENDBRANCH  15  16
ENDBRANCH  13  15
ENDBRANCH  10  13
BRANCH  11  22
ATOM     22  O   UNL     1       5.383   4.059  15.851  0.00  0.00    +0.000 OA
BRANCH  22  23
ATOM     23  C   UNL     1       6.411   4.052  14.960  0.00  0.00    +0.000 C 
ATOM     24  C   UNL     1       5.886   4.041  13.556  0.00  0.00    +0.000 C 
ATOM     25  O   UNL     1       7.599   4.033  15.243  0.00  0.00    +0.000 OA
ENDBRANCH  22  23
ENDBRANCH  11  22
TORSDOF 8
ENDMDL
MODEL 7
REMARK VINA RESULT:      -6.8      2.430      7.167
REMARK  Name = 
REMARK  12 active torsions:
REMARK  status: ('A' for Active; 'I' for Inactive)
REMARK    1  A    between atoms: C_8  and  C_9
REMARK    2  A    between atoms: C_10  and  C_11
REMARK    3  A    between atoms: C_11  and  C_12
REMARK    4  A    between atoms: C_11  and  C_13
REMARK    5  A    between atoms: C_13  and  C_14
REMARK    6  A    between atoms: C_14  and  C_15
REMARK    7  A    between atoms: C_15  and  O_16
REMARK    8  A    between atoms: O_16  and  C_17
REMARK    9  A    between atoms: C_17  and  C_18
REMARK   10  A    between atoms: C_20  and  O_21
REMARK   11  A    between atoms: O_21  and  C_22
REMARK   12  A    between atoms: C_22  and  C_23
REMARK                            x       y       z     vdW  Elec       q    Type
REMARK                         _______ _______ _______ _____ _____    ______ ____
ROOT
ATOM      1  C   UNL     1       3.068   3.429  20.823  0.00  0.00    +0.000 C 
ATOM      2  C   UNL     1       2.348   3.666  19.722  0.00  0.00    +0.000 C 
ATOM      3  C   UNL     1       1.460   2.627  19.127  0.00  0.00    +0.000 C 
ATOM      4  O   UNL     1       1.144   1.566  19.622  0.00  0.00    +0.000 OA
ATOM      5  O   UNL     1       1.052   3.102  17.911  0.00  0.00    +0.000 OA
ATOM      6  C   UNL     1       1.882   4.217  17.541  0.00  0.00    +0.000 C 
ATOM      7  C   UNL     1       3.082   3.684  16.753  0.00  0.00    +0.000 C 
ATOM      8  C   UNL     1       4.427   4.358  16.952  0.00  0.00    +0.000 C 
ATOM      9  C   UNL     1       5.424   3.773  15.980  0.00  0.00    +0.000 C 
ATOM     10  C   UNL     1       4.627   5.332  17.881  0.00  0.00    +0.000 C 
ATOM     11  C   UNL     1       3.424   5.843  18.702  0.00  0.00    +0.000 C 
ATOM     12  C   UNL     1       2.244   4.876  18.849  0.00  0.00    +0.000 C 
ENDROOT
BRANCH  10  13
ATOM     13  C   UNL     1       5.921   6.121  18.222  0.00  0.00    +0.000 C 
ATOM     14  C   UNL     1       7.116   5.166  18.429  0.00  0.00    +0.000 C 
BRANCH  13  15
ATOM     15  C   UNL     1       6.426   7.252  17.308  0.00  0.00    +0.000 C 
BRANCH  15  16
ATOM     16  C   UNL     1       7.930   7.521  17.386  0.00  0.00    +0.000 C 
BRANCH  16  17
ATOM     17  C   UNL     1       8.216   8.562  18.470  0.00  0.00    +0.000 C 
BRANCH  17  18
ATOM     18  O   UNL     1       8.565   9.814  17.863  0.00  0.00    +0.000 OA
BRANCH  18  19
ATOM     19  C   UNL     1       9.256  10.665  18.671  0.00  0.00    +0.000 C 
ATOM     20  C   UNL     1       9.788  11.828  17.891  0.00  0.00    +0.000 C 
ATOM     21  O   UNL     1       9.465  10.496  19.865  0.00  0.00    +0.000 OA
ENDBRANCH  18  19
ENDBRANCH  17  18
ENDBRANCH  16  17
ENDBRANCH  15  16
ENDBRANCH  13  15
ENDBRANCH  10  13
BRANCH  11  22
ATOM     22  O   UNL     1       2.944   7.018  17.996  0.00  0.00    +0.000 OA
BRANCH  22  23
ATOM     23  C   UNL     1       2.265   7.944  18.726  0.00  0.00    +0.000 C 
ATOM     24  C   UNL     1       1.827   9.080  17.851  0.00  0.00    +0.000 C 
ATOM     25  O   UNL     1       2.054   7.889  19.928  0.00  0.00    +0.000 OA
ENDBRANCH  22  23
ENDBRANCH  11  22
TORSDOF 8
ENDMDL
MODEL 8
REMARK VINA RESULT:      -6.7      3.678      5.042
REMARK  Name = 
REMARK  12 active torsions:
REMARK  status: ('A' for Active; 'I' for Inactive)
REMARK    1  A    between atoms: C_8  and  C_9
REMARK    2  A    between atoms: C_10  and  C_11
REMARK    3  A    between atoms: C_11  and  C_12
REMARK    4  A    between atoms: C_11  and  C_13
REMARK    5  A    between atoms: C_13  and  C_14
REMARK    6  A    between atoms: C_14  and  C_15
REMARK    7  A    between atoms: C_15  and  O_16
REMARK    8  A    between atoms: O_16  and  C_17
REMARK    9  A    between atoms: C_17  and  C_18
REMARK   10  A    between atoms: C_20  and  O_21
REMARK   11  A    between atoms: O_21  and  C_22
REMARK   12  A    between atoms: C_22  and  C_23
REMARK                            x       y       z     vdW  Elec       q    Type
REMARK                         _______ _______ _______ _____ _____    ______ ____
ROOT
ATOM      1  C   UNL     1       6.463   5.428  19.387  0.00  0.00    +0.000 C 
ATOM      2  C   UNL     1       5.991   5.497  18.138  0.00  0.00    +0.000 C 
ATOM      3  C   UNL     1       6.777   6.123  17.037  0.00  0.00    +0.000 C 
ATOM      4  O   UNL     1       7.940   6.462  17.073  0.00  0.00    +0.000 OA
ATOM      5  O   UNL     1       5.938   6.232  15.963  0.00  0.00    +0.000 OA
ATOM      6  C   UNL     1       4.583   6.033  16.404  0.00  0.00    +0.000 C 
ATOM      7  C   UNL     1       3.999   7.393  16.798  0.00  0.00    +0.000 C 
ATOM      8  C   UNL     1       3.052   7.450  17.982  0.00  0.00    +0.000 C 
ATOM      9  C   UNL     1       2.490   8.846  18.100  0.00  0.00    +0.000 C 
ATOM     10  C   UNL     1       2.796   6.368  18.767  0.00  0.00    +0.000 C 
ATOM     11  C   UNL     1       3.416   5.005  18.391  0.00  0.00    +0.000 C 
ATOM     12  C   UNL     1       4.693   5.052  17.545  0.00  0.00    +0.000 C 
ENDROOT
BRANCH  10  13
ATOM     13  C   UNL     1       1.869   6.245  20.008  0.00  0.00    +0.000 C 
ATOM     14  C   UNL     1       2.134   4.931  20.774  0.00  0.00    +0.000 C 
BRANCH  13  15
ATOM     15  C   UNL     1       1.812   7.359  21.070  0.00  0.00    +0.000 C 
BRANCH  15  16
ATOM     16  C   UNL     1       0.488   8.123  21.132  0.00  0.00    +0.000 C 
BRANCH  16  17
ATOM     17  C   UNL     1       0.503   9.093  22.315  0.00  0.00    +0.000 C 
BRANCH  17  18
ATOM     18  O   UNL     1       1.023  10.363  21.897  0.00  0.00    +0.000 OA
BRANCH  18  19
ATOM     19  C   UNL     1       0.079  11.267  21.517  0.00  0.00    +0.000 C 
ATOM     20  C   UNL     1      -0.934  11.469  22.601  0.00  0.00    +0.000 C 
ATOM     21  O   UNL     1       0.021  11.815  20.424  0.00  0.00    +0.000 OA
ENDBRANCH  18  19
ENDBRANCH  17  18
ENDBRANCH  16  17
ENDBRANCH  15  16
ENDBRANCH  13  15
ENDBRANCH  10  13
BRANCH  11  22
ATOM     22  O   UNL     1       2.399   4.318  17.615  0.00  0.00    +0.000 OA
BRANCH  22  23
ATOM     23  C   UNL     1       2.029   3.080  18.038  0.00  0.00    +0.000 C 
ATOM     24  C   UNL     1       3.219   2.170  18.098  0.00  0.00    +0.000 C 
ATOM     25  O   UNL     1       0.890   2.731  18.313  0.00  0.00    +0.000 OA
ENDBRANCH  22  23
ENDBRANCH  11  22
TORSDOF 8
ENDMDL
MODEL 9
REMARK VINA RESULT:      -6.6      3.422      4.970
REMARK  Name = 
REMARK  12 active torsions:
REMARK  status: ('A' for Active; 'I' for Inactive)
REMARK    1  A    between atoms: C_8  and  C_9
REMARK    2  A    between atoms: C_10  and  C_11
REMARK    3  A    between atoms: C_11  and  C_12
REMARK    4  A    between atoms: C_11  and  C_13
REMARK    5  A    between atoms: C_13  and  C_14
REMARK    6  A    between atoms: C_14  and  C_15
REMARK    7  A    between atoms: C_15  and  O_16
REMARK    8  A    between atoms: O_16  and  C_17
REMARK    9  A    between atoms: C_17  and  C_18
REMARK   10  A    between atoms: C_20  and  O_21
REMARK   11  A    between atoms: O_21  and  C_22
REMARK   12  A    between atoms: C_22  and  C_23
REMARK                            x       y       z     vdW  Elec       q    Type
REMARK                         _______ _______ _______ _____ _____    ______ ____
ROOT
ATOM      1  C   UNL     1       6.501   5.499  19.282  0.00  0.00    +0.000 C 
ATOM      2  C   UNL     1       5.991   5.533  18.047  0.00  0.00    +0.000 C 
ATOM      3  C   UNL     1       6.728   6.159  16.913  0.00  0.00    +0.000 C 
ATOM      4  O   UNL     1       7.883   6.529  16.907  0.00  0.00    +0.000 OA
ATOM      5  O   UNL     1       5.855   6.228  15.862  0.00  0.00    +0.000 OA
ATOM      6  C   UNL     1       4.519   6.002  16.346  0.00  0.00    +0.000 C 
ATOM      7  C   UNL     1       3.912   7.353  16.735  0.00  0.00    +0.000 C 
ATOM      8  C   UNL     1       2.999   7.407  17.945  0.00  0.00    +0.000 C 
ATOM      9  C   UNL     1       2.404   8.791  18.056  0.00  0.00    +0.000 C 
ATOM     10  C   UNL     1       2.794   6.333  18.756  0.00  0.00    +0.000 C 
ATOM     11  C   UNL     1       3.438   4.980  18.385  0.00  0.00    +0.000 C 
ATOM     12  C   UNL     1       4.688   5.045  17.501  0.00  0.00    +0.000 C 
ENDROOT
BRANCH  10  13
ATOM     13  C   UNL     1       1.908   6.209  20.026  0.00  0.00    +0.000 C 
ATOM     14  C   UNL     1       2.293   4.965  20.855  0.00  0.00    +0.000 C 
BRANCH  13  15
ATOM     15  C   UNL     1       1.787   7.374  21.026  0.00  0.00    +0.000 C 
BRANCH  15  16
ATOM     16  C   UNL     1       0.405   8.028  21.090  0.00  0.00    +0.000 C 
BRANCH  16  17
ATOM     17  C   UNL     1       0.550   9.520  21.396  0.00  0.00    +0.000 C 
BRANCH  17  18
ATOM     18  O   UNL     1      -0.583  10.234  20.882  0.00  0.00    +0.000 OA
BRANCH  18  19
ATOM     19  C   UNL     1      -0.477  10.606  19.577  0.00  0.00    +0.000 C 
ATOM     20  C   UNL     1       0.505  11.725  19.418  0.00  0.00    +0.000 C 
ATOM     21  O   UNL     1      -1.124  10.134  18.651  0.00  0.00    +0.000 OA
ENDBRANCH  18  19
ENDBRANCH  17  18
ENDBRANCH  16  17
ENDBRANCH  15  16
ENDBRANCH  13  15
ENDBRANCH  10  13
BRANCH  11  22
ATOM     22  O   UNL     1       2.417   4.254  17.652  0.00  0.00    +0.000 OA
BRANCH  22  23
ATOM     23  C   UNL     1       2.076   3.024  18.120  0.00  0.00    +0.000 C 
ATOM     24  C   UNL     1       3.231   2.076  17.990  0.00  0.00    +0.000 C 
ATOM     25  O   UNL     1       0.982   2.707  18.564  0.00  0.00    +0.000 OA
ENDBRANCH  22  23
ENDBRANCH  11  22
TORSDOF 8
ENDMDL
