MODEL 1
REMARK VINA RESULT:      -5.2      0.000      0.000
REMARK  Name = 
REMARK  3 active torsions:
REMARK  status: ('A' for Active; 'I' for Inactive)
REMARK    1  A    between atoms: C_1  and  C_2
REMARK    2  A    between atoms: C_4  and  C_5
REMARK    3  A    between atoms: C_8  and  O_9
REMARK                            x       y       z     vdW  Elec       q    Type
REMARK                         _______ _______ _______ _____ _____    ______ ____
ROOT
ATOM      1  C   UNL     1       2.712   7.399  18.104  0.00  0.00    +0.000 C 
ATOM      2  C   UNL     1       2.966   5.918  18.112  0.00  0.00    +0.000 A 
ATOM      3  N   UNL     1       2.115   5.174  18.872  0.00  0.00    +0.000 NA
ATOM      4  C   UNL     1       2.290   3.826  18.920  0.00  0.00    +0.000 A 
ATOM      5  C   UNL     1       1.319   3.068  19.778  0.00  0.00    +0.000 C 
ATOM      6  C   UNL     1       3.309   3.186  18.218  0.00  0.00    +0.000 A 
ATOM      7 CL   UNL     1       3.529   1.472  18.279  0.00  0.00    +0.000 Cl
ATOM      8  C   UNL     1       4.175   3.962  17.443  0.00  0.00    +0.000 A 
ATOM      9  C   UNL     1       4.011   5.347  17.383  0.00  0.00    +0.000 A 
ATOM     10 CL   UNL     1       5.079   6.316  16.429  0.00  0.00    +0.000 Cl
ENDROOT
BRANCH   8  11
ATOM     11  O   UNL     1       5.194   3.371  16.735  0.00  0.00    +0.000 OA
ATOM     12  H   UNL     1       4.838   3.084  15.874  0.00  0.00    +0.000 HD
ENDBRANCH   8  11
TORSDOF 1
ENDMDL
MODEL 2
REMARK VINA RESULT:      -5.2      0.156      3.417
REMARK  Name = 
REMARK  3 active torsions:
REMARK  status: ('A' for Active; 'I' for Inactive)
REMARK    1  A    between atoms: C_1  and  C_2
REMARK    2  A    between atoms: C_4  and  C_5
REMARK    3  A    between atoms: C_8  and  O_9
REMARK                            x       y       z     vdW  Elec       q    Type
REMARK                         _______ _______ _______ _____ _____    ______ ____
ROOT
ATOM      1  C   UNL     1       1.361   2.994  19.971  0.00  0.00    +0.000 C 
ATOM      2  C   UNL     1       2.286   3.753  19.063  0.00  0.00    +0.000 A 
ATOM      3  N   UNL     1       2.076   5.097  18.990  0.00  0.00    +0.000 NA
ATOM      4  C   UNL     1       2.881   5.842  18.186  0.00  0.00    +0.000 A 
ATOM      5  C   UNL     1       2.593   7.315  18.151  0.00  0.00    +0.000 C 
ATOM      6  C   UNL     1       3.911   5.274  17.439  0.00  0.00    +0.000 A 
ATOM      7 CL   UNL     1       4.935   6.224  16.419  0.00  0.00    +0.000 Cl
ATOM      8  C   UNL     1       4.114   3.895  17.523  0.00  0.00    +0.000 A 
ATOM      9  C   UNL     1       3.296   3.114  18.342  0.00  0.00    +0.000 A 
ATOM     10 CL   UNL     1       3.540   1.405  18.451  0.00  0.00    +0.000 Cl
ENDROOT
BRANCH   8  11
ATOM     11  O   UNL     1       5.119   3.293  16.802  0.00  0.00    +0.000 OA
ATOM     12  H   UNL     1       4.712   2.819  16.053  0.00  0.00    +0.000 HD
ENDBRANCH   8  11
TORSDOF 1
ENDMDL
MODEL 3
REMARK VINA RESULT:      -5.1      1.367      3.639
REMARK  Name = 
REMARK  3 active torsions:
REMARK  status: ('A' for Active; 'I' for Inactive)
REMARK    1  A    between atoms: C_1  and  C_2
REMARK    2  A    between atoms: C_4  and  C_5
REMARK    3  A    between atoms: C_8  and  O_9
REMARK                            x       y       z     vdW  Elec       q    Type
REMARK                         _______ _______ _______ _____ _____    ______ ____
ROOT
ATOM      1  C   UNL     1       1.731   3.572  20.724  0.00  0.00    +0.000 C 
ATOM      2  C   UNL     1       2.746   4.282  19.873  0.00  0.00    +0.000 A 
ATOM      3  N   UNL     1       2.367   5.497  19.387  0.00  0.00    +0.000 NA
ATOM      4  C   UNL     1       3.241   6.192  18.610  0.00  0.00    +0.000 A 
ATOM      5  C   UNL     1       2.759   7.522  18.108  0.00  0.00    +0.000 C 
ATOM      6  C   UNL     1       4.506   5.700  18.298  0.00  0.00    +0.000 A 
ATOM      7 CL   UNL     1       5.617   6.586  17.312  0.00  0.00    +0.000 Cl
ATOM      8  C   UNL     1       4.880   4.452  18.801  0.00  0.00    +0.000 A 
ATOM      9  C   UNL     1       3.996   3.724  19.599  0.00  0.00    +0.000 A 
ATOM     10 CL   UNL     1       4.450   2.177  20.226  0.00  0.00    +0.000 Cl
ENDROOT
BRANCH   8  11
ATOM     11  O   UNL     1       6.120   3.929  18.517  0.00  0.00    +0.000 OA
ATOM     12  H   UNL     1       6.738   4.217  19.214  0.00  0.00    +0.000 HD
ENDBRANCH   8  11
TORSDOF 1
ENDMDL
MODEL 4
REMARK VINA RESULT:      -5.1      1.374      1.374
REMARK  Name = 
REMARK  3 active torsions:
REMARK  status: ('A' for Active; 'I' for Inactive)
REMARK    1  A    between atoms: C_1  and  C_2
REMARK    2  A    between atoms: C_4  and  C_5
REMARK    3  A    between atoms: C_8  and  O_9
REMARK                            x       y       z     vdW  Elec       q    Type
REMARK                         _______ _______ _______ _____ _____    ______ ____
ROOT
ATOM      1  C   UNL     1       2.605   7.459  18.199  0.00  0.00    +0.000 C 
ATOM      2  C   UNL     1       3.111   6.134  18.693  0.00  0.00    +0.000 A 
ATOM      3  N   UNL     1       2.252   5.425  19.477  0.00  0.00    +0.000 NA
ATOM      4  C   UNL     1       2.650   4.216  19.956  0.00  0.00    +0.000 A 
ATOM      5  C   UNL     1       1.655   3.489  20.814  0.00  0.00    +0.000 C 
ATOM      6  C   UNL     1       3.905   3.682  19.670  0.00  0.00    +0.000 A 
ATOM      7 CL   UNL     1       4.408   2.144  20.278  0.00  0.00    +0.000 Cl
ATOM      8  C   UNL     1       4.776   4.421  18.866  0.00  0.00    +0.000 A 
ATOM      9  C   UNL     1       4.385   5.665  18.366  0.00  0.00    +0.000 A 
ATOM     10 CL   UNL     1       5.458   6.588  17.372  0.00  0.00    +0.000 Cl
ENDROOT
BRANCH   8  11
ATOM     11  O   UNL     1       6.024   3.933  18.559  0.00  0.00    +0.000 OA
ATOM     12  H   UNL     1       5.988   3.548  17.663  0.00  0.00    +0.000 HD
ENDBRANCH   8  11
TORSDOF 1
ENDMDL
MODEL 5
REMARK VINA RESULT:      -5.1      2.641      3.236
REMARK  Name = 
REMARK  3 active torsions:
REMARK  status: ('A' for Active; 'I' for Inactive)
REMARK    1  A    between atoms: C_1  and  C_2
REMARK    2  A    between atoms: C_4  and  C_5
REMARK    3  A    between atoms: C_8  and  O_9
REMARK                            x       y       z     vdW  Elec       q    Type
REMARK                         _______ _______ _______ _____ _____    ______ ____
ROOT
ATOM      1  C   UNL     1       5.931   3.857  15.140  0.00  0.00    +0.000 C 
ATOM      2  C   UNL     1       5.289   4.140  16.468  0.00  0.00    +0.000 A 
ATOM      3  N   UNL     1       3.930   4.058  16.500  0.00  0.00    +0.000 NA
ATOM      4  C   UNL     1       3.287   4.302  17.674  0.00  0.00    +0.000 A 
ATOM      5  C   UNL     1       1.790   4.196  17.637  0.00  0.00    +0.000 C 
ATOM      6  C   UNL     1       3.975   4.631  18.840  0.00  0.00    +0.000 A 
ATOM      7 CL   UNL     1       3.156   4.939  20.331  0.00  0.00    +0.000 Cl
ATOM      8  C   UNL     1       5.368   4.713  18.792  0.00  0.00    +0.000 A 
ATOM      9  C   UNL     1       6.045   4.467  17.596  0.00  0.00    +0.000 A 
ATOM     10 CL   UNL     1       7.770   4.568  17.527  0.00  0.00    +0.000 Cl
ENDROOT
BRANCH   8  11
ATOM     11  O   UNL     1       6.087   5.035  19.919  0.00  0.00    +0.000 OA
ATOM     12  H   UNL     1       6.253   5.996  19.908  0.00  0.00    +0.000 HD
ENDBRANCH   8  11
TORSDOF 1
ENDMDL
MODEL 6
REMARK VINA RESULT:      -5.0      2.033      2.138
REMARK  Name = 
REMARK  3 active torsions:
REMARK  status: ('A' for Active; 'I' for Inactive)
REMARK    1  A    between atoms: C_1  and  C_2
REMARK    2  A    between atoms: C_4  and  C_5
REMARK    3  A    between atoms: C_8  and  O_9
REMARK                            x       y       z     vdW  Elec       q    Type
REMARK                         _______ _______ _______ _____ _____    ______ ____
ROOT
ATOM      1  C   UNL     1       4.516   6.875  17.272  0.00  0.00    +0.000 C 
ATOM      2  C   UNL     1       4.144   5.788  18.239  0.00  0.00    +0.000 A 
ATOM      3  N   UNL     1       3.004   5.997  18.956  0.00  0.00    +0.000 NA
ATOM      4  C   UNL     1       2.611   5.049  19.849  0.00  0.00    +0.000 A 
ATOM      5  C   UNL     1       1.348   5.344  20.606  0.00  0.00    +0.000 C 
ATOM      6  C   UNL     1       3.334   3.876  20.051  0.00  0.00    +0.000 A 
ATOM      7 CL   UNL     1       2.831   2.671  21.184  0.00  0.00    +0.000 Cl
ATOM      8  C   UNL     1       4.501   3.676  19.309  0.00  0.00    +0.000 A 
ATOM      9  C   UNL     1       4.922   4.639  18.389  0.00  0.00    +0.000 A 
ATOM     10 CL   UNL     1       6.366   4.401  17.469  0.00  0.00    +0.000 Cl
ENDROOT
BRANCH   8  11
ATOM     11  O   UNL     1       5.247   2.533  19.477  0.00  0.00    +0.000 OA
ATOM     12  H   UNL     1       5.009   2.140  20.338  0.00  0.00    +0.000 HD
ENDBRANCH   8  11
TORSDOF 1
ENDMDL
MODEL 7
REMARK VINA RESULT:      -5.0      2.061      3.577
REMARK  Name = 
REMARK  3 active torsions:
REMARK  status: ('A' for Active; 'I' for Inactive)
REMARK    1  A    between atoms: C_1  and  C_2
REMARK    2  A    between atoms: C_4  and  C_5
REMARK    3  A    between atoms: C_8  and  O_9
REMARK                            x       y       z     vdW  Elec       q    Type
REMARK                         _______ _______ _______ _____ _____    ______ ____
ROOT
ATOM      1  C   UNL     1       1.470   5.432  20.643  0.00  0.00    +0.000 C 
ATOM      2  C   UNL     1       2.706   5.093  19.859  0.00  0.00    +0.000 A 
ATOM      3  N   UNL     1       3.115   6.032  18.961  0.00  0.00    +0.000 NA
ATOM      4  C   UNL     1       4.229   5.787  18.220  0.00  0.00    +0.000 A 
ATOM      5  C   UNL     1       4.622   6.862  17.249  0.00  0.00    +0.000 C 
ATOM      6  C   UNL     1       4.961   4.609  18.352  0.00  0.00    +0.000 A 
ATOM      7 CL   UNL     1       6.378   4.299  17.410  0.00  0.00    +0.000 Cl
ATOM      8  C   UNL     1       4.529   3.655  19.276  0.00  0.00    +0.000 A 
ATOM      9  C   UNL     1       3.387   3.889  20.044  0.00  0.00    +0.000 A 
ATOM     10 CL   UNL     1       2.844   2.713  21.189  0.00  0.00    +0.000 Cl
ENDROOT
BRANCH   8  11
ATOM     11  O   UNL     1       5.222   2.478  19.438  0.00  0.00    +0.000 OA
ATOM     12  H   UNL     1       4.823   1.992  20.184  0.00  0.00    +0.000 HD
ENDBRANCH   8  11
TORSDOF 1
ENDMDL
MODEL 8
REMARK VINA RESULT:      -4.9      1.701      1.904
REMARK  Name = 
REMARK  3 active torsions:
REMARK  status: ('A' for Active; 'I' for Inactive)
REMARK    1  A    between atoms: C_1  and  C_2
REMARK    2  A    between atoms: C_4  and  C_5
REMARK    3  A    between atoms: C_8  and  O_9
REMARK                            x       y       z     vdW  Elec       q    Type
REMARK                         _______ _______ _______ _____ _____    ______ ____
ROOT
ATOM      1  C   UNL     1       4.806   6.690  16.771  0.00  0.00    +0.000 C 
ATOM      2  C   UNL     1       4.193   5.574  17.569  0.00  0.00    +0.000 A 
ATOM      3  N   UNL     1       3.376   5.954  18.590  0.00  0.00    +0.000 NA
ATOM      4  C   UNL     1       2.788   4.992  19.350  0.00  0.00    +0.000 A 
ATOM      5  C   UNL     1       1.902   5.480  20.459  0.00  0.00    +0.000 C 
ATOM      6  C   UNL     1       2.995   3.634  19.116  0.00  0.00    +0.000 A 
ATOM      7 CL   UNL     1       2.245   2.412  20.081  0.00  0.00    +0.000 Cl
ATOM      8  C   UNL     1       3.836   3.259  18.065  0.00  0.00    +0.000 A 
ATOM      9  C   UNL     1       4.450   4.233  17.276  0.00  0.00    +0.000 A 
ATOM     10 CL   UNL     1       5.495   3.779  15.975  0.00  0.00    +0.000 Cl
ENDROOT
BRANCH   8  11
ATOM     11  O   UNL     1       4.069   1.930  17.799  0.00  0.00    +0.000 OA
ATOM     12  H   UNL     1       4.864   1.657  18.294  0.00  0.00    +0.000 HD
ENDBRANCH   8  11
TORSDOF 1
ENDMDL
MODEL 9
REMARK VINA RESULT:      -4.9      1.698      3.364
REMARK  Name = 
REMARK  3 active torsions:
REMARK  status: ('A' for Active; 'I' for Inactive)
REMARK    1  A    between atoms: C_1  and  C_2
REMARK    2  A    between atoms: C_4  and  C_5
REMARK    3  A    between atoms: C_8  and  O_9
REMARK                            x       y       z     vdW  Elec       q    Type
REMARK                         _______ _______ _______ _____ _____    ______ ____
ROOT
ATOM      1  C   UNL     1       1.861   5.440  20.446  0.00  0.00    +0.000 C 
ATOM      2  C   UNL     1       2.762   4.962  19.344  0.00  0.00    +0.000 A 
ATOM      3  N   UNL     1       3.363   5.935  18.604  0.00  0.00    +0.000 NA
ATOM      4  C   UNL     1       4.193   5.568  17.591  0.00  0.00    +0.000 A 
ATOM      5  C   UNL     1       4.820   6.690  16.815  0.00  0.00    +0.000 C 
ATOM      6  C   UNL     1       4.447   4.232  17.289  0.00  0.00    +0.000 A 
ATOM      7 CL   UNL     1       5.504   3.766  16.002  0.00  0.00    +0.000 Cl
ATOM      8  C   UNL     1       3.823   3.244  18.056  0.00  0.00    +0.000 A 
ATOM      9  C   UNL     1       2.966   3.603  19.098  0.00  0.00    +0.000 A 
ATOM     10 CL   UNL     1       2.188   2.388  20.051  0.00  0.00    +0.000 Cl
ENDROOT
BRANCH   8  11
ATOM     11  O   UNL     1       4.044   1.913  17.792  0.00  0.00    +0.000 OA
ATOM     12  H   UNL     1       4.819   1.846  17.202  0.00  0.00    +0.000 HD
ENDBRANCH   8  11
TORSDOF 1
ENDMDL
