MODEL 1
REMARK VINA RESULT:      -9.2      0.000      0.000
REMARK  Name = 
REMARK  4 active torsions:
REMARK  status: ('A' for Active; 'I' for Inactive)
REMARK    1  A    between atoms: C_4  and  C_6
REMARK    2  A    between atoms: C_11  and  N_12
REMARK    3  A    between atoms: N_15  and  C_16
REMARK    4  A    between atoms: C_20  and  C_21
REMARK                            x       y       z     vdW  Elec       q    Type
REMARK                         _______ _______ _______ _____ _____    ______ ____
ROOT
ATOM      1  O   UNL     1       1.914   5.718  20.539  0.00  0.00    +0.000 OA
ATOM      2  C   UNL     1       2.359   6.428  19.641  0.00  0.00    +0.000 C 
ATOM      3  N   UNL     1       3.260   5.864  18.753  0.00  0.00    +0.000 N 
ATOM      4  C   UNL     1       4.008   6.515  17.791  0.00  0.00    +0.000 C 
ATOM      5  O   UNL     1       3.768   7.679  17.463  0.00  0.00    +0.000 OA
ATOM      6  N   UNL     1       2.097   7.762  19.437  0.00  0.00    +0.000 N 
ATOM      7  H   UNL     1       3.464   4.904  19.019  0.00  0.00    +0.000 HD
ATOM      8  H   UNL     1       2.563   8.169  18.629  0.00  0.00    +0.000 HD
ENDROOT
BRANCH   4   9
ATOM      9  C   UNL     1       5.156   5.835  17.118  0.00  0.00    +0.000 A 
ATOM     10  C   UNL     1       5.157   5.960  15.712  0.00  0.00    +0.000 A 
ATOM     11  C   UNL     1       6.103   5.312  14.913  0.00  0.00    +0.000 A 
ATOM     12  C   UNL     1       7.083   4.519  15.500  0.00  0.00    +0.000 A 
ATOM     13  C   UNL     1       7.116   4.380  16.885  0.00  0.00    +0.000 A 
ATOM     14  C   UNL     1       6.159   5.037  17.681  0.00  0.00    +0.000 A 
BRANCH  14  15
ATOM     15  N   UNL     1       6.253   4.810  19.104  0.00  0.00    +0.000 N 
ATOM     16  O   UNL     1       5.499   3.953  19.583  0.00  0.00    +0.000 OA
ATOM     17  O   UNL     1       7.053   5.505  19.739  0.00  0.00    +0.000 OA
ENDBRANCH  14  15
ENDBRANCH   4   9
BRANCH   6  18
ATOM     18  C   UNL     1       1.278   8.625  20.190  0.00  0.00    +0.000 A 
ATOM     19  C   UNL     1       1.156   8.546  21.577  0.00  0.00    +0.000 A 
ATOM     20  C   UNL     1       0.324   9.433  22.262  0.00  0.00    +0.000 A 
ATOM     21  C   UNL     1      -0.393  10.403  21.566  0.00  0.00    +0.000 A 
ATOM     22  C   UNL     1      -0.298  10.503  20.171  0.00  0.00    +0.000 A 
ATOM     23  C   UNL     1       0.552   9.609  19.494  0.00  0.00    +0.000 A 
BRANCH  22  24
ATOM     24  C   UNL     1      -1.100  11.543  19.417  0.00  0.00    +0.000 C 
ATOM     25  C   UNL     1      -2.377  12.018  20.186  0.00  0.00    +0.000 C 
ATOM     26  N   UNL     1      -3.282  12.249  19.078  0.00  0.00    +0.000 N 
ATOM     27  C   UNL     1      -4.724  12.229  19.215  0.00  0.00    +0.000 C 
ATOM     28  C   UNL     1      -5.295  12.010  17.803  0.00  0.00    +0.000 C 
ATOM     29  S   UNL     1      -4.003  11.131  16.852  0.00  0.00    +0.000 S 
ATOM     30  C   UNL     1      -2.809  11.497  18.046  0.00  0.00    +0.000 C 
ATOM     31  N   UNL     1      -1.598  11.038  18.079  0.00  0.00    +0.000 NA
ENDBRANCH  22  24
ENDBRANCH   6  18
TORSDOF 4
ENDMDL
MODEL 2
REMARK VINA RESULT:      -8.7      1.838      2.259
REMARK  Name = 
REMARK  4 active torsions:
REMARK  status: ('A' for Active; 'I' for Inactive)
REMARK    1  A    between atoms: C_4  and  C_6
REMARK    2  A    between atoms: C_11  and  N_12
REMARK    3  A    between atoms: N_15  and  C_16
REMARK    4  A    between atoms: C_20  and  C_21
REMARK                            x       y       z     vdW  Elec       q    Type
REMARK                         _______ _______ _______ _____ _____    ______ ____
ROOT
ATOM      1  O   UNL     1       1.927   5.678  20.572  0.00  0.00    +0.000 OA
ATOM      2  C   UNL     1       2.366   6.408  19.688  0.00  0.00    +0.000 C 
ATOM      3  N   UNL     1       3.252   5.861  18.774  0.00  0.00    +0.000 N 
ATOM      4  C   UNL     1       3.994   6.532  17.821  0.00  0.00    +0.000 C 
ATOM      5  O   UNL     1       3.759   7.706  17.527  0.00  0.00    +0.000 OA
ATOM      6  N   UNL     1       2.112   7.749  19.522  0.00  0.00    +0.000 N 
ATOM      7  H   UNL     1       3.452   4.893  19.012  0.00  0.00    +0.000 HD
ATOM      8  H   UNL     1       2.571   8.174  18.719  0.00  0.00    +0.000 HD
ENDROOT
BRANCH   4   9
ATOM      9  C   UNL     1       5.129   5.862  17.116  0.00  0.00    +0.000 A 
ATOM     10  C   UNL     1       5.135   6.055  15.718  0.00  0.00    +0.000 A 
ATOM     11  C   UNL     1       6.069   5.427  14.889  0.00  0.00    +0.000 A 
ATOM     12  C   UNL     1       7.032   4.587  15.438  0.00  0.00    +0.000 A 
ATOM     13  C   UNL     1       7.060   4.381  16.814  0.00  0.00    +0.000 A 
ATOM     14  C   UNL     1       6.114   5.017  17.641  0.00  0.00    +0.000 A 
BRANCH  14  15
ATOM     15  N   UNL     1       6.202   4.720  19.051  0.00  0.00    +0.000 N 
ATOM     16  O   UNL     1       5.478   3.808  19.475  0.00  0.00    +0.000 OA
ATOM     17  O   UNL     1       6.965   5.412  19.733  0.00  0.00    +0.000 OA
ENDBRANCH  14  15
ENDBRANCH   4   9
BRANCH   6  18
ATOM     18  C   UNL     1       1.308   8.597  20.307  0.00  0.00    +0.000 A 
ATOM     19  C   UNL     1       1.134   8.430  21.680  0.00  0.00    +0.000 A 
ATOM     20  C   UNL     1       0.321   9.307  22.399  0.00  0.00    +0.000 A 
ATOM     21  C   UNL     1      -0.325  10.357  21.750  0.00  0.00    +0.000 A 
ATOM     22  C   UNL     1      -0.177  10.547  20.370  0.00  0.00    +0.000 A 
ATOM     23  C   UNL     1       0.654   9.662  19.659  0.00  0.00    +0.000 A 
BRANCH  22  24
ATOM     24  C   UNL     1      -0.903  11.674  19.665  0.00  0.00    +0.000 C 
ATOM     25  C   UNL     1       0.055  12.636  18.886  0.00  0.00    +0.000 C 
ATOM     26  N   UNL     1      -0.639  13.896  19.058  0.00  0.00    +0.000 N 
ATOM     27  C   UNL     1       0.020  15.183  18.970  0.00  0.00    +0.000 C 
ATOM     28  C   UNL     1      -0.893  16.193  19.686  0.00  0.00    +0.000 C 
ATOM     29  S   UNL     1      -1.864  15.238  20.908  0.00  0.00    +0.000 S 
ATOM     30  C   UNL     1      -1.422  13.744  20.162  0.00  0.00    +0.000 C 
ATOM     31  N   UNL     1      -1.676  12.558  20.619  0.00  0.00    +0.000 NA
ENDBRANCH  22  24
ENDBRANCH   6  18
TORSDOF 4
ENDMDL
MODEL 3
REMARK VINA RESULT:      -8.6      2.771      3.412
REMARK  Name = 
REMARK  4 active torsions:
REMARK  status: ('A' for Active; 'I' for Inactive)
REMARK    1  A    between atoms: C_4  and  C_6
REMARK    2  A    between atoms: C_11  and  N_12
REMARK    3  A    between atoms: N_15  and  C_16
REMARK    4  A    between atoms: C_20  and  C_21
REMARK                            x       y       z     vdW  Elec       q    Type
REMARK                         _______ _______ _______ _____ _____    ______ ____
ROOT
ATOM      1  O   UNL     1       1.859   5.691  20.726  0.00  0.00    +0.000 OA
ATOM      2  C   UNL     1       2.279   6.423  19.834  0.00  0.00    +0.000 C 
ATOM      3  N   UNL     1       3.161   5.883  18.912  0.00  0.00    +0.000 N 
ATOM      4  C   UNL     1       3.883   6.560  17.948  0.00  0.00    +0.000 C 
ATOM      5  O   UNL     1       3.631   7.730  17.653  0.00  0.00    +0.000 OA
ATOM      6  N   UNL     1       2.007   7.760  19.667  0.00  0.00    +0.000 N 
ATOM      7  H   UNL     1       3.374   4.919  19.151  0.00  0.00    +0.000 HD
ATOM      8  H   UNL     1       2.452   8.188  18.858  0.00  0.00    +0.000 HD
ENDROOT
BRANCH   4   9
ATOM      9  C   UNL     1       5.017   5.901  17.232  0.00  0.00    +0.000 A 
ATOM     10  C   UNL     1       5.021   6.115  15.837  0.00  0.00    +0.000 A 
ATOM     11  C   UNL     1       5.955   5.500  14.997  0.00  0.00    +0.000 A 
ATOM     12  C   UNL     1       6.918   4.651  15.532  0.00  0.00    +0.000 A 
ATOM     13  C   UNL     1       6.947   4.424  16.905  0.00  0.00    +0.000 A 
ATOM     14  C   UNL     1       6.003   5.048  17.743  0.00  0.00    +0.000 A 
BRANCH  14  15
ATOM     15  N   UNL     1       6.092   4.729  19.148  0.00  0.00    +0.000 N 
ATOM     16  O   UNL     1       6.892   5.394  19.821  0.00  0.00    +0.000 OA
ATOM     17  O   UNL     1       5.391   3.802  19.567  0.00  0.00    +0.000 OA
ENDBRANCH  14  15
ENDBRANCH   4   9
BRANCH   6  18
ATOM     18  C   UNL     1       1.203   8.602  20.459  0.00  0.00    +0.000 A 
ATOM     19  C   UNL     1       0.453   8.145  21.542  0.00  0.00    +0.000 A 
ATOM     20  C   UNL     1      -0.325   9.034  22.285  0.00  0.00    +0.000 A 
ATOM     21  C   UNL     1      -0.360  10.385  21.950  0.00  0.00    +0.000 A 
ATOM     22  C   UNL     1       0.376  10.875  20.863  0.00  0.00    +0.000 A 
ATOM     23  C   UNL     1       1.164   9.969  20.128  0.00  0.00    +0.000 A 
BRANCH  22  24
ATOM     24  C   UNL     1       0.313  12.340  20.486  0.00  0.00    +0.000 C 
ATOM     25  C   UNL     1       0.860  12.634  19.049  0.00  0.00    +0.000 C 
ATOM     26  N   UNL     1       1.450  13.942  19.254  0.00  0.00    +0.000 N 
ATOM     27  C   UNL     1       2.503  14.476  18.415  0.00  0.00    +0.000 C 
ATOM     28  C   UNL     1       3.179  15.598  19.223  0.00  0.00    +0.000 C 
ATOM     29  S   UNL     1       2.911  15.199  20.989  0.00  0.00    +0.000 S 
ATOM     30  C   UNL     1       1.698  14.035  20.590  0.00  0.00    +0.000 C 
ATOM     31  N   UNL     1       1.124  13.217  21.415  0.00  0.00    +0.000 NA
ENDBRANCH  22  24
ENDBRANCH   6  18
TORSDOF 4
ENDMDL
MODEL 4
REMARK VINA RESULT:      -8.6      0.922      1.172
REMARK  Name = 
REMARK  4 active torsions:
REMARK  status: ('A' for Active; 'I' for Inactive)
REMARK    1  A    between atoms: C_4  and  C_6
REMARK    2  A    between atoms: C_11  and  N_12
REMARK    3  A    between atoms: N_15  and  C_16
REMARK    4  A    between atoms: C_20  and  C_21
REMARK                            x       y       z     vdW  Elec       q    Type
REMARK                         _______ _______ _______ _____ _____    ______ ____
ROOT
ATOM      1  O   UNL     1       1.703   5.764  20.775  0.00  0.00    +0.000 OA
ATOM      2  C   UNL     1       2.110   6.448  19.840  0.00  0.00    +0.000 C 
ATOM      3  N   UNL     1       2.882   5.829  18.870  0.00  0.00    +0.000 N 
ATOM      4  C   UNL     1       3.580   6.433  17.843  0.00  0.00    +0.000 C 
ATOM      5  O   UNL     1       3.394   7.614  17.541  0.00  0.00    +0.000 OA
ATOM      6  N   UNL     1       1.925   7.798  19.663  0.00  0.00    +0.000 N 
ATOM      7  H   UNL     1       3.041   4.855  19.114  0.00  0.00    +0.000 HD
ATOM      8  H   UNL     1       2.341   8.179  18.815  0.00  0.00    +0.000 HD
ENDROOT
BRANCH   4   9
ATOM      9  C   UNL     1       4.609   5.680  17.064  0.00  0.00    +0.000 A 
ATOM     10  C   UNL     1       5.079   6.360  15.920  0.00  0.00    +0.000 A 
ATOM     11  C   UNL     1       5.975   5.769  15.024  0.00  0.00    +0.000 A 
ATOM     12  C   UNL     1       6.432   4.475  15.249  0.00  0.00    +0.000 A 
ATOM     13  C   UNL     1       5.995   3.778  16.373  0.00  0.00    +0.000 A 
ATOM     14  C   UNL     1       5.092   4.382  17.269  0.00  0.00    +0.000 A 
BRANCH  14  15
ATOM     15  N   UNL     1       4.672   3.573  18.388  0.00  0.00    +0.000 N 
ATOM     16  O   UNL     1       5.317   3.695  19.439  0.00  0.00    +0.000 OA
ATOM     17  O   UNL     1       3.724   2.801  18.208  0.00  0.00    +0.000 OA
ENDBRANCH  14  15
ENDBRANCH   4   9
BRANCH   6  18
ATOM     18  C   UNL     1       1.244   8.711  20.491  0.00  0.00    +0.000 A 
ATOM     19  C   UNL     1       1.283   8.656  21.884  0.00  0.00    +0.000 A 
ATOM     20  C   UNL     1       0.582   9.591  22.645  0.00  0.00    +0.000 A 
ATOM     21  C   UNL     1      -0.165  10.587  22.021  0.00  0.00    +0.000 A 
ATOM     22  C   UNL     1      -0.231  10.665  20.623  0.00  0.00    +0.000 A 
ATOM     23  C   UNL     1       0.489   9.721  19.867  0.00  0.00    +0.000 A 
BRANCH  22  24
ATOM     24  C   UNL     1      -1.066  11.733  19.949  0.00  0.00    +0.000 C 
ATOM     25  C   UNL     1      -2.157  12.350  20.886  0.00  0.00    +0.000 C 
ATOM     26  N   UNL     1      -3.214  12.607  19.928  0.00  0.00    +0.000 N 
ATOM     27  C   UNL     1      -4.610  12.716  20.298  0.00  0.00    +0.000 C 
ATOM     28  C   UNL     1      -5.423  12.483  19.013  0.00  0.00    +0.000 C 
ATOM     29  S   UNL     1      -4.378  11.454  17.918  0.00  0.00    +0.000 S 
ATOM     30  C   UNL     1      -2.978  11.771  18.879  0.00  0.00    +0.000 C 
ATOM     31  N   UNL     1      -1.816  11.213  18.742  0.00  0.00    +0.000 NA
ENDBRANCH  22  24
ENDBRANCH   6  18
TORSDOF 4
ENDMDL
MODEL 5
REMARK VINA RESULT:      -8.5      4.596     10.248
REMARK  Name = 
REMARK  4 active torsions:
REMARK  status: ('A' for Active; 'I' for Inactive)
REMARK    1  A    between atoms: C_4  and  C_6
REMARK    2  A    between atoms: C_11  and  N_12
REMARK    3  A    between atoms: N_15  and  C_16
REMARK    4  A    between atoms: C_20  and  C_21
REMARK                            x       y       z     vdW  Elec       q    Type
REMARK                         _______ _______ _______ _____ _____    ______ ____
ROOT
ATOM      1  O   UNL     1      -1.564  11.168  18.964  0.00  0.00    +0.000 OA
ATOM      2  C   UNL     1      -1.074  11.146  20.090  0.00  0.00    +0.000 C 
ATOM      3  N   UNL     1      -1.651  11.943  21.065  0.00  0.00    +0.000 N 
ATOM      4  C   UNL     1      -1.163  12.204  22.331  0.00  0.00    +0.000 C 
ATOM      5  O   UNL     1      -0.243  11.544  22.818  0.00  0.00    +0.000 OA
ATOM      6  N   UNL     1       0.036  10.442  20.494  0.00  0.00    +0.000 N 
ATOM      7  H   UNL     1      -2.410  12.491  20.669  0.00  0.00    +0.000 HD
ATOM      8  H   UNL     1       0.278  10.555  21.476  0.00  0.00    +0.000 HD
ENDROOT
BRANCH   4   9
ATOM      9  C   UNL     1      -1.724  13.314  23.158  0.00  0.00    +0.000 A 
ATOM     10  C   UNL     1      -0.797  14.334  23.462  0.00  0.00    +0.000 A 
ATOM     11  C   UNL     1      -1.122  15.404  24.302  0.00  0.00    +0.000 A 
ATOM     12  C   UNL     1      -2.392  15.487  24.862  0.00  0.00    +0.000 A 
ATOM     13  C   UNL     1      -3.335  14.502  24.576  0.00  0.00    +0.000 A 
ATOM     14  C   UNL     1      -2.997  13.429  23.730  0.00  0.00    +0.000 A 
BRANCH  14  15
ATOM     15  N   UNL     1      -4.028  12.441  23.516  0.00  0.00    +0.000 N 
ATOM     16  O   UNL     1      -4.372  11.772  24.500  0.00  0.00    +0.000 OA
ATOM     17  O   UNL     1      -4.468  12.316  22.368  0.00  0.00    +0.000 OA
ENDBRANCH  14  15
ENDBRANCH   4   9
BRANCH   6  18
ATOM     18  C   UNL     1       0.867   9.597  19.736  0.00  0.00    +0.000 A 
ATOM     19  C   UNL     1       1.326   9.919  18.459  0.00  0.00    +0.000 A 
ATOM     20  C   UNL     1       2.147   9.034  17.761  0.00  0.00    +0.000 A 
ATOM     21  C   UNL     1       2.515   7.818  18.332  0.00  0.00    +0.000 A 
ATOM     22  C   UNL     1       2.064   7.460  19.610  0.00  0.00    +0.000 A 
ATOM     23  C   UNL     1       1.245   8.367  20.307  0.00  0.00    +0.000 A 
BRANCH  22  24
ATOM     24  C   UNL     1       2.445   6.125  20.216  0.00  0.00    +0.000 C 
ATOM     25  C   UNL     1       3.748   5.516  19.603  0.00  0.00    +0.000 C 
ATOM     26  N   UNL     1       3.433   4.102  19.662  0.00  0.00    +0.000 N 
ATOM     27  C   UNL     1       4.053   3.115  18.803  0.00  0.00    +0.000 C 
ATOM     28  C   UNL     1       3.128   1.885  18.812  0.00  0.00    +0.000 C 
ATOM     29  S   UNL     1       1.448   2.502  19.192  0.00  0.00    +0.000 S 
ATOM     30  C   UNL     1       2.074   4.025  19.713  0.00  0.00    +0.000 C 
ATOM     31  N   UNL     1       1.376   5.071  20.024  0.00  0.00    +0.000 NA
ENDBRANCH  22  24
ENDBRANCH   6  18
TORSDOF 4
ENDMDL
MODEL 6
REMARK VINA RESULT:      -8.5      5.710      8.471
REMARK  Name = 
REMARK  4 active torsions:
REMARK  status: ('A' for Active; 'I' for Inactive)
REMARK    1  A    between atoms: C_4  and  C_6
REMARK    2  A    between atoms: C_11  and  N_12
REMARK    3  A    between atoms: N_15  and  C_16
REMARK    4  A    between atoms: C_20  and  C_21
REMARK                            x       y       z     vdW  Elec       q    Type
REMARK                         _______ _______ _______ _____ _____    ______ ____
ROOT
ATOM      1  O   UNL     1       8.468   6.278  19.337  0.00  0.00    +0.000 OA
ATOM      2  C   UNL     1       8.284   7.331  18.735  0.00  0.00    +0.000 C 
ATOM      3  N   UNL     1       8.964   8.457  19.172  0.00  0.00    +0.000 N 
ATOM      4  C   UNL     1       8.775   9.762  18.761  0.00  0.00    +0.000 C 
ATOM      5  O   UNL     1       8.114  10.035  17.757  0.00  0.00    +0.000 OA
ATOM      6  N   UNL     1       7.428   7.541  17.680  0.00  0.00    +0.000 N 
ATOM      7  H   UNL     1       9.510   8.240  20.001  0.00  0.00    +0.000 HD
ATOM      8  H   UNL     1       7.425   8.492  17.315  0.00  0.00    +0.000 HD
ENDROOT
BRANCH   4   9
ATOM      9  C   UNL     1       9.355  10.904  19.531  0.00  0.00    +0.000 A 
ATOM     10  C   UNL     1       9.026  10.902  20.903  0.00  0.00    +0.000 A 
ATOM     11  C   UNL     1       9.406  11.942  21.757  0.00  0.00    +0.000 A 
ATOM     12  C   UNL     1      10.133  13.018  21.260  0.00  0.00    +0.000 A 
ATOM     13  C   UNL     1      10.482  13.048  19.912  0.00  0.00    +0.000 A 
ATOM     14  C   UNL     1      10.095  11.996  19.061  0.00  0.00    +0.000 A 
BRANCH  14  15
ATOM     15  N   UNL     1      10.475  12.128  17.674  0.00  0.00    +0.000 N 
ATOM     16  O   UNL     1       9.784  12.883  16.976  0.00  0.00    +0.000 OA
ATOM     17  O   UNL     1      11.437  11.460  17.282  0.00  0.00    +0.000 OA
ENDBRANCH  14  15
ENDBRANCH   4   9
BRANCH   6  18
ATOM     18  C   UNL     1       6.567   6.624  17.048  0.00  0.00    +0.000 A 
ATOM     19  C   UNL     1       6.898   5.948  15.874  0.00  0.00    +0.000 A 
ATOM     20  C   UNL     1       5.996   5.053  15.298  0.00  0.00    +0.000 A 
ATOM     21  C   UNL     1       4.756   4.827  15.891  0.00  0.00    +0.000 A 
ATOM     22  C   UNL     1       4.390   5.496  17.066  0.00  0.00    +0.000 A 
ATOM     23  C   UNL     1       5.313   6.388  17.642  0.00  0.00    +0.000 A 
BRANCH  22  24
ATOM     24  C   UNL     1       3.030   5.267  17.692  0.00  0.00    +0.000 C 
ATOM     25  C   UNL     1       2.972   5.652  19.207  0.00  0.00    +0.000 C 
ATOM     26  N   UNL     1       2.040   4.657  19.698  0.00  0.00    +0.000 N 
ATOM     27  C   UNL     1       1.988   4.234  21.082  0.00  0.00    +0.000 C 
ATOM     28  C   UNL     1       1.271   2.872  21.097  0.00  0.00    +0.000 C 
ATOM     29  S   UNL     1       1.546   2.123  19.450  0.00  0.00    +0.000 S 
ATOM     30  C   UNL     1       2.081   3.633  18.801  0.00  0.00    +0.000 C 
ATOM     31  N   UNL     1       2.592   3.820  17.626  0.00  0.00    +0.000 NA
ENDBRANCH  22  24
ENDBRANCH   6  18
TORSDOF 4
ENDMDL
MODEL 7
REMARK VINA RESULT:      -8.4      1.873      2.612
REMARK  Name = 
REMARK  4 active torsions:
REMARK  status: ('A' for Active; 'I' for Inactive)
REMARK    1  A    between atoms: C_4  and  C_6
REMARK    2  A    between atoms: C_11  and  N_12
REMARK    3  A    between atoms: N_15  and  C_16
REMARK    4  A    between atoms: C_20  and  C_21
REMARK                            x       y       z     vdW  Elec       q    Type
REMARK                         _______ _______ _______ _____ _____    ______ ____
ROOT
ATOM      1  O   UNL     1       1.956   9.237  18.756  0.00  0.00    +0.000 OA
ATOM      2  C   UNL     1       1.835   8.263  19.493  0.00  0.00    +0.000 C 
ATOM      3  N   UNL     1       2.432   7.075  19.103  0.00  0.00    +0.000 N 
ATOM      4  C   UNL     1       2.277   5.830  19.681  0.00  0.00    +0.000 C 
ATOM      5  O   UNL     1       1.749   5.691  20.786  0.00  0.00    +0.000 OA
ATOM      6  N   UNL     1       1.120   8.198  20.665  0.00  0.00    +0.000 N 
ATOM      7  H   UNL     1       2.868   7.182  18.191  0.00  0.00    +0.000 HD
ATOM      8  H   UNL     1       1.150   7.294  21.134  0.00  0.00    +0.000 HD
ENDROOT
BRANCH   4   9
ATOM      9  C   UNL     1       2.733   4.592  18.978  0.00  0.00    +0.000 A 
ATOM     10  C   UNL     1       1.714   3.639  18.770  0.00  0.00    +0.000 A 
ATOM     11  C   UNL     1       1.977   2.385  18.209  0.00  0.00    +0.000 A 
ATOM     12  C   UNL     1       3.274   2.049  17.837  0.00  0.00    +0.000 A 
ATOM     13  C   UNL     1       4.302   2.969  18.021  0.00  0.00    +0.000 A 
ATOM     14  C   UNL     1       4.027   4.229  18.586  0.00  0.00    +0.000 A 
BRANCH  14  15
ATOM     15  N   UNL     1       5.160   5.106  18.766  0.00  0.00    +0.000 N 
ATOM     16  O   UNL     1       5.935   4.831  19.692  0.00  0.00    +0.000 OA
ATOM     17  O   UNL     1       5.255   6.076  18.008  0.00  0.00    +0.000 OA
ENDBRANCH  14  15
ENDBRANCH   4   9
BRANCH   6  18
ATOM     18  C   UNL     1       0.365   9.206  21.294  0.00  0.00    +0.000 A 
ATOM     19  C   UNL     1       0.282   9.348  22.679  0.00  0.00    +0.000 A 
ATOM     20  C   UNL     1      -0.488  10.369  23.238  0.00  0.00    +0.000 A 
ATOM     21  C   UNL     1      -1.180  11.255  22.416  0.00  0.00    +0.000 A 
ATOM     22  C   UNL     1      -1.123  11.135  21.022  0.00  0.00    +0.000 A 
ATOM     23  C   UNL     1      -0.336  10.107  20.471  0.00  0.00    +0.000 A 
BRANCH  22  24
ATOM     24  C   UNL     1      -1.900  12.085  20.133  0.00  0.00    +0.000 C 
ATOM     25  C   UNL     1      -3.258  12.546  20.758  0.00  0.00    +0.000 C 
ATOM     26  N   UNL     1      -4.072  12.662  19.564  0.00  0.00    +0.000 N 
ATOM     27  C   UNL     1      -5.518  12.582  19.579  0.00  0.00    +0.000 C 
ATOM     28  C   UNL     1      -5.953  12.247  18.142  0.00  0.00    +0.000 C 
ATOM     29  S   UNL     1      -4.545  11.373  17.365  0.00  0.00    +0.000 S 
ATOM     30  C   UNL     1      -3.478  11.871  18.629  0.00  0.00    +0.000 C 
ATOM     31  N   UNL     1      -2.256  11.475  18.795  0.00  0.00    +0.000 NA
ENDBRANCH  22  24
ENDBRANCH   6  18
TORSDOF 4
ENDMDL
MODEL 8
REMARK VINA RESULT:      -8.4      3.460      4.425
REMARK  Name = 
REMARK  4 active torsions:
REMARK  status: ('A' for Active; 'I' for Inactive)
REMARK    1  A    between atoms: C_4  and  C_6
REMARK    2  A    between atoms: C_11  and  N_12
REMARK    3  A    between atoms: N_15  and  C_16
REMARK    4  A    between atoms: C_20  and  C_21
REMARK                            x       y       z     vdW  Elec       q    Type
REMARK                         _______ _______ _______ _____ _____    ______ ____
ROOT
ATOM      1  O   UNL     1       1.823   9.199  18.623  0.00  0.00    +0.000 OA
ATOM      2  C   UNL     1       1.796   8.268  19.424  0.00  0.00    +0.000 C 
ATOM      3  N   UNL     1       2.330   7.054  19.026  0.00  0.00    +0.000 N 
ATOM      4  C   UNL     1       2.247   5.845  19.688  0.00  0.00    +0.000 C 
ATOM      5  O   UNL     1       1.868   5.773  20.859  0.00  0.00    +0.000 OA
ATOM      6  N   UNL     1       1.241   8.277  20.681  0.00  0.00    +0.000 N 
ATOM      7  H   UNL     1       2.643   7.105  18.060  0.00  0.00    +0.000 HD
ATOM      8  H   UNL     1       1.327   7.400  21.192  0.00  0.00    +0.000 HD
ENDROOT
BRANCH   4   9
ATOM      9  C   UNL     1       2.599   4.565  19.001  0.00  0.00    +0.000 A 
ATOM     10  C   UNL     1       1.522   3.661  18.875  0.00  0.00    +0.000 A 
ATOM     11  C   UNL     1       1.690   2.380  18.342  0.00  0.00    +0.000 A 
ATOM     12  C   UNL     1       2.947   1.964  17.914  0.00  0.00    +0.000 A 
ATOM     13  C   UNL     1       4.030   2.833  18.017  0.00  0.00    +0.000 A 
ATOM     14  C   UNL     1       3.850   4.121  18.556  0.00  0.00    +0.000 A 
BRANCH  14  15
ATOM     15  N   UNL     1       5.036   4.941  18.651  0.00  0.00    +0.000 N 
ATOM     16  O   UNL     1       5.054   5.976  17.971  0.00  0.00    +0.000 OA
ATOM     17  O   UNL     1       5.951   4.536  19.375  0.00  0.00    +0.000 OA
ENDBRANCH  14  15
ENDBRANCH   4   9
BRANCH   6  18
ATOM     18  C   UNL     1       0.581   9.327  21.346  0.00  0.00    +0.000 A 
ATOM     19  C   UNL     1      -0.250   9.131  22.449  0.00  0.00    +0.000 A 
ATOM     20  C   UNL     1      -0.877  10.217  23.061  0.00  0.00    +0.000 A 
ATOM     21  C   UNL     1      -0.680  11.507  22.574  0.00  0.00    +0.000 A 
ATOM     22  C   UNL     1       0.143  11.737  21.463  0.00  0.00    +0.000 A 
ATOM     23  C   UNL     1       0.777  10.634  20.862  0.00  0.00    +0.000 A 
BRANCH  22  24
ATOM     24  C   UNL     1       0.333  13.138  20.921  0.00  0.00    +0.000 C 
ATOM     25  C   UNL     1       0.741  13.168  19.411  0.00  0.00    +0.000 C 
ATOM     26  N   UNL     1       1.607  14.331  19.395  0.00  0.00    +0.000 N 
ATOM     27  C   UNL     1       2.632  14.542  18.394  0.00  0.00    +0.000 C 
ATOM     28  C   UNL     1       3.620  15.562  18.987  0.00  0.00    +0.000 C 
ATOM     29  S   UNL     1       3.501  15.402  20.806  0.00  0.00    +0.000 S 
ATOM     30  C   UNL     1       2.035  14.495  20.677  0.00  0.00    +0.000 C 
ATOM     31  N   UNL     1       1.416  13.904  21.649  0.00  0.00    +0.000 NA
ENDBRANCH  22  24
ENDBRANCH   6  18
TORSDOF 4
ENDMDL
MODEL 9
REMARK VINA RESULT:      -8.3      1.124      1.469
REMARK  Name = 
REMARK  4 active torsions:
REMARK  status: ('A' for Active; 'I' for Inactive)
REMARK    1  A    between atoms: C_4  and  C_6
REMARK    2  A    between atoms: C_11  and  N_12
REMARK    3  A    between atoms: N_15  and  C_16
REMARK    4  A    between atoms: C_20  and  C_21
REMARK                            x       y       z     vdW  Elec       q    Type
REMARK                         _______ _______ _______ _____ _____    ______ ____
ROOT
ATOM      1  O   UNL     1       1.684   5.639  20.296  0.00  0.00    +0.000 OA
ATOM      2  C   UNL     1       2.251   6.411  19.529  0.00  0.00    +0.000 C 
ATOM      3  N   UNL     1       3.139   5.878  18.609  0.00  0.00    +0.000 N 
ATOM      4  C   UNL     1       4.005   6.568  17.783  0.00  0.00    +0.000 C 
ATOM      5  O   UNL     1       3.906   7.785  17.614  0.00  0.00    +0.000 OA
ATOM      6  N   UNL     1       2.140   7.781  19.505  0.00  0.00    +0.000 N 
ATOM      7  H   UNL     1       3.227   4.874  18.744  0.00  0.00    +0.000 HD
ATOM      8  H   UNL     1       2.692   8.242  18.784  0.00  0.00    +0.000 HD
ENDROOT
BRANCH   4   9
ATOM      9  C   UNL     1       5.115   5.865  17.071  0.00  0.00    +0.000 A 
ATOM     10  C   UNL     1       5.060   5.976  15.665  0.00  0.00    +0.000 A 
ATOM     11  C   UNL     1       5.964   5.307  14.834  0.00  0.00    +0.000 A 
ATOM     12  C   UNL     1       6.955   4.504  15.388  0.00  0.00    +0.000 A 
ATOM     13  C   UNL     1       7.042   4.378  16.773  0.00  0.00    +0.000 A 
ATOM     14  C   UNL     1       6.127   5.056  17.600  0.00  0.00    +0.000 A 
BRANCH  14  15
ATOM     15  N   UNL     1       6.277   4.842  19.021  0.00  0.00    +0.000 N 
ATOM     16  O   UNL     1       7.163   5.491  19.593  0.00  0.00    +0.000 OA
ATOM     17  O   UNL     1       5.534   4.009  19.551  0.00  0.00    +0.000 OA
ENDBRANCH  14  15
ENDBRANCH   4   9
BRANCH   6  18
ATOM     18  C   UNL     1       1.372   8.618  20.337  0.00  0.00    +0.000 A 
ATOM     19  C   UNL     1       1.245   8.422  21.712  0.00  0.00    +0.000 A 
ATOM     20  C   UNL     1       0.465   9.288  22.478  0.00  0.00    +0.000 A 
ATOM     21  C   UNL     1      -0.195  10.357  21.876  0.00  0.00    +0.000 A 
ATOM     22  C   UNL     1      -0.094  10.577  20.496  0.00  0.00    +0.000 A 
ATOM     23  C   UNL     1       0.703   9.701  19.736  0.00  0.00    +0.000 A 
BRANCH  22  24
ATOM     24  C   UNL     1      -0.836  11.724  19.842  0.00  0.00    +0.000 C 
ATOM     25  C   UNL     1      -0.927  12.998  20.746  0.00  0.00    +0.000 C 
ATOM     26  N   UNL     1      -2.227  13.506  20.355  0.00  0.00    +0.000 N 
ATOM     27  C   UNL     1      -3.026  14.371  21.199  0.00  0.00    +0.000 C 
ATOM     28  C   UNL     1      -4.472  14.272  20.682  0.00  0.00    +0.000 C 
ATOM     29  S   UNL     1      -4.622  12.638  19.872  0.00  0.00    +0.000 S 
ATOM     30  C   UNL     1      -2.906  12.442  19.844  0.00  0.00    +0.000 C 
ATOM     31  N   UNL     1      -2.266  11.372  19.493  0.00  0.00    +0.000 NA
ENDBRANCH  22  24
ENDBRANCH   6  18
TORSDOF 4
ENDMDL
