MODEL 1
REMARK VINA RESULT:      -8.8      0.000      0.000
REMARK  Name = 
REMARK  9 active torsions:
REMARK  status: ('A' for Active; 'I' for Inactive)
REMARK    1  A    between atoms: C_1  and  C_2
REMARK    2  A    between atoms: C_2  and  N_3
REMARK    3  A    between atoms: N_3  and  C_4
REMARK    4  A    between atoms: N_3  and  C_6
REMARK    5  A    between atoms: C_4  and  C_5
REMARK    6  A    between atoms: C_10  and  O_11
REMARK    7  A    between atoms: O_11  and  C_12
REMARK    8  A    between atoms: C_17  and  C_18
REMARK    9  A    between atoms: C_18  and  N_19
REMARK                            x       y       z     vdW  Elec       q    Type
REMARK                         _______ _______ _______ _____ _____    ______ ____
ROOT
ATOM      1  C   UNL     1       2.600   4.430  19.454  0.00  0.00    +0.000 A 
ATOM      2  C   UNL     1       1.467   4.098  20.218  0.00  0.00    +0.000 A 
ATOM      3  C   UNL     1       0.705   2.975  19.906  0.00  0.00    +0.000 A 
ATOM      4  C   UNL     1       1.102   2.138  18.871  0.00  0.00    +0.000 A 
ATOM      5  C   UNL     1       2.280   2.408  18.170  0.00  0.00    +0.000 A 
ATOM      6  C   UNL     1       3.051   3.555  18.448  0.00  0.00    +0.000 A 
ENDROOT
BRANCH   1   7
ATOM      7  O   UNL     1       3.306   5.595  19.694  0.00  0.00    +0.000 OA
BRANCH   7  12
ATOM      8  C   UNL     1       1.407   8.813  19.908  0.00  0.00    +0.000 A 
ATOM      9  C   UNL     1       1.582   9.231  18.581  0.00  0.00    +0.000 A 
ATOM     10  C   UNL     1       2.302   8.459  17.664  0.00  0.00    +0.000 A 
ATOM     11  C   UNL     1       2.872   7.250  18.059  0.00  0.00    +0.000 A 
ATOM     12  C   UNL     1       2.717   6.807  19.370  0.00  0.00    +0.000 A 
ATOM     13  C   UNL     1       1.958   7.571  20.271  0.00  0.00    +0.000 A 
BRANCH   8  14
ATOM     14  N   UNL     1       0.712   9.630  20.818  0.00  0.00    +0.000 N 
BRANCH  14  16
ATOM     15  C   UNL     1      -0.147   9.521  23.155  0.00  0.00    +0.000 C 
ATOM     16  C   UNL     1      -0.221   8.963  21.739  0.00  0.00    +0.000 C 
ENDBRANCH  14  16
BRANCH  14  17
ATOM     17  C   UNL     1       0.385  10.983  20.330  0.00  0.00    +0.000 C 
ATOM     18  C   UNL     1      -1.078  11.146  19.934  0.00  0.00    +0.000 C 
ENDBRANCH  14  17
ENDBRANCH   8  14
ENDBRANCH   7  12
ENDBRANCH   1   7
BRANCH   6  19
ATOM     19  C   UNL     1       4.329   3.775  17.661  0.00  0.00    +0.000 C 
BRANCH  19  20
ATOM     20  N   UNL     1       5.460   3.908  18.574  0.00  0.00    +0.000 N 
ATOM     21  C   UNL     1       6.290   4.967  18.437  0.00  0.00    +0.000 A 
ATOM     22  N   UNL     1       6.338   5.893  17.509  0.00  0.00    +0.000 NA
ATOM     23  C   UNL     1       7.388   6.675  17.890  0.00  0.00    +0.000 A 
ATOM     24  N   UNL     1       7.695   7.746  17.166  0.00  0.00    +0.000 N 
ATOM     25  N   UNL     1       7.997   6.305  19.014  0.00  0.00    +0.000 NA
ATOM     26  N   UNL     1       7.302   5.200  19.330  0.00  0.00    +0.000 N 
ATOM     27  H   UNL     1       5.302   3.494  19.487  0.00  0.00    +0.000 HD
ATOM     28  H   UNL     1       6.980   8.097  16.546  0.00  0.00    +0.000 HD
ATOM     29  H   UNL     1       8.244   8.462  17.624  0.00  0.00    +0.000 HD
ATOM     30  H   UNL     1       7.572   4.656  20.136  0.00  0.00    +0.000 HD
ENDBRANCH  19  20
ENDBRANCH   6  19
TORSDOF 7
ENDMDL
MODEL 2
REMARK VINA RESULT:      -8.8      0.383      1.229
REMARK  Name = 
REMARK  9 active torsions:
REMARK  status: ('A' for Active; 'I' for Inactive)
REMARK    1  A    between atoms: C_1  and  C_2
REMARK    2  A    between atoms: C_2  and  N_3
REMARK    3  A    between atoms: N_3  and  C_4
REMARK    4  A    between atoms: N_3  and  C_6
REMARK    5  A    between atoms: C_4  and  C_5
REMARK    6  A    between atoms: C_10  and  O_11
REMARK    7  A    between atoms: O_11  and  C_12
REMARK    8  A    between atoms: C_17  and  C_18
REMARK    9  A    between atoms: C_18  and  N_19
REMARK                            x       y       z     vdW  Elec       q    Type
REMARK                         _______ _______ _______ _____ _____    ______ ____
ROOT
ATOM      1  C   UNL     1       2.614   4.433  19.444  0.00  0.00    +0.000 A 
ATOM      2  C   UNL     1       1.486   4.088  20.210  0.00  0.00    +0.000 A 
ATOM      3  C   UNL     1       0.734   2.958  19.899  0.00  0.00    +0.000 A 
ATOM      4  C   UNL     1       1.139   2.125  18.863  0.00  0.00    +0.000 A 
ATOM      5  C   UNL     1       2.313   2.407  18.161  0.00  0.00    +0.000 A 
ATOM      6  C   UNL     1       3.072   3.562  18.438  0.00  0.00    +0.000 A 
ENDROOT
BRANCH   1   7
ATOM      7  O   UNL     1       3.308   5.605  19.684  0.00  0.00    +0.000 OA
BRANCH   7  12
ATOM      8  C   UNL     1       1.355   8.792  19.862  0.00  0.00    +0.000 A 
ATOM      9  C   UNL     1       1.563   9.222  18.543  0.00  0.00    +0.000 A 
ATOM     10  C   UNL     1       2.322   8.467  17.642  0.00  0.00    +0.000 A 
ATOM     11  C   UNL     1       2.898   7.263  18.047  0.00  0.00    +0.000 A 
ATOM     12  C   UNL     1       2.711   6.810  19.350  0.00  0.00    +0.000 A 
ATOM     13  C   UNL     1       1.914   7.557  20.233  0.00  0.00    +0.000 A 
BRANCH   8  14
ATOM     14  N   UNL     1       0.622   9.594  20.755  0.00  0.00    +0.000 N 
BRANCH  14  16
ATOM     15  C   UNL     1       0.926  12.067  20.788  0.00  0.00    +0.000 C 
ATOM     16  C   UNL     1       0.131  10.884  20.248  0.00  0.00    +0.000 C 
ENDBRANCH  14  16
BRANCH  14  17
ATOM     17  C   UNL     1       1.022   9.492  22.170  0.00  0.00    +0.000 C 
ATOM     18  C   UNL     1      -0.161   9.459  23.132  0.00  0.00    +0.000 C 
ENDBRANCH  14  17
ENDBRANCH   8  14
ENDBRANCH   7  12
ENDBRANCH   1   7
BRANCH   6  19
ATOM     19  C   UNL     1       4.347   3.796  17.649  0.00  0.00    +0.000 C 
BRANCH  19  20
ATOM     20  N   UNL     1       5.480   3.922  18.559  0.00  0.00    +0.000 N 
ATOM     21  C   UNL     1       6.308   4.983  18.429  0.00  0.00    +0.000 A 
ATOM     22  N   UNL     1       6.353   5.918  17.509  0.00  0.00    +0.000 NA
ATOM     23  C   UNL     1       7.403   6.698  17.894  0.00  0.00    +0.000 A 
ATOM     24  N   UNL     1       7.707   7.775  17.178  0.00  0.00    +0.000 N 
ATOM     25  N   UNL     1       8.017   6.318  19.012  0.00  0.00    +0.000 NA
ATOM     26  N   UNL     1       7.324   5.210  19.320  0.00  0.00    +0.000 N 
ATOM     27  H   UNL     1       5.326   3.500  19.469  0.00  0.00    +0.000 HD
ATOM     28  H   UNL     1       6.989   8.130  16.563  0.00  0.00    +0.000 HD
ATOM     29  H   UNL     1       8.256   8.488  17.640  0.00  0.00    +0.000 HD
ATOM     30  H   UNL     1       7.597   4.659  20.121  0.00  0.00    +0.000 HD
ENDBRANCH  19  20
ENDBRANCH   6  19
TORSDOF 7
ENDMDL
MODEL 3
REMARK VINA RESULT:      -8.5      1.442      1.596
REMARK  Name = 
REMARK  9 active torsions:
REMARK  status: ('A' for Active; 'I' for Inactive)
REMARK    1  A    between atoms: C_1  and  C_2
REMARK    2  A    between atoms: C_2  and  N_3
REMARK    3  A    between atoms: N_3  and  C_4
REMARK    4  A    between atoms: N_3  and  C_6
REMARK    5  A    between atoms: C_4  and  C_5
REMARK    6  A    between atoms: C_10  and  O_11
REMARK    7  A    between atoms: O_11  and  C_12
REMARK    8  A    between atoms: C_17  and  C_18
REMARK    9  A    between atoms: C_18  and  N_19
REMARK                            x       y       z     vdW  Elec       q    Type
REMARK                         _______ _______ _______ _____ _____    ______ ____
ROOT
ATOM      1  C   UNL     1       2.309   4.694  19.514  0.00  0.00    +0.000 A 
ATOM      2  C   UNL     1       1.494   4.325  20.599  0.00  0.00    +0.000 A 
ATOM      3  C   UNL     1       0.634   3.234  20.503  0.00  0.00    +0.000 A 
ATOM      4  C   UNL     1       0.626   2.462  19.347  0.00  0.00    +0.000 A 
ATOM      5  C   UNL     1       1.503   2.765  18.302  0.00  0.00    +0.000 A 
ATOM      6  C   UNL     1       2.360   3.882  18.366  0.00  0.00    +0.000 A 
ENDROOT
BRANCH   1   7
ATOM      7  O   UNL     1       3.093   5.833  19.565  0.00  0.00    +0.000 OA
BRANCH   7  12
ATOM      8  C   UNL     1       1.289   9.083  20.000  0.00  0.00    +0.000 A 
ATOM      9  C   UNL     1       1.341   9.513  18.666  0.00  0.00    +0.000 A 
ATOM     10  C   UNL     1       1.951   8.740  17.674  0.00  0.00    +0.000 A 
ATOM     11  C   UNL     1       2.533   7.515  17.998  0.00  0.00    +0.000 A 
ATOM     12  C   UNL     1       2.499   7.059  19.314  0.00  0.00    +0.000 A 
ATOM     13  C   UNL     1       1.848   7.826  20.293  0.00  0.00    +0.000 A 
BRANCH   8  14
ATOM     14  N   UNL     1       0.704   9.902  20.982  0.00  0.00    +0.000 N 
BRANCH  14  16
ATOM     15  C   UNL     1      -0.336   9.453  23.202  0.00  0.00    +0.000 C 
ATOM     16  C   UNL     1       0.948   9.541  22.387  0.00  0.00    +0.000 C 
ENDBRANCH  14  16
BRANCH  14  17
ATOM     17  C   UNL     1      -0.594  10.498  20.617  0.00  0.00    +0.000 C 
ATOM     18  C   UNL     1      -0.597  12.022  20.670  0.00  0.00    +0.000 C 
ENDBRANCH  14  17
ENDBRANCH   8  14
ENDBRANCH   7  12
ENDBRANCH   1   7
BRANCH   6  19
ATOM     19  C   UNL     1       3.299   4.140  17.202  0.00  0.00    +0.000 C 
BRANCH  19  20
ATOM     20  N   UNL     1       4.683   3.974  17.633  0.00  0.00    +0.000 N 
ATOM     21  C   UNL     1       5.678   4.290  16.774  0.00  0.00    +0.000 A 
ATOM     22  N   UNL     1       5.630   4.632  15.508  0.00  0.00    +0.000 NA
ATOM     23  C   UNL     1       6.939   4.809  15.172  0.00  0.00    +0.000 A 
ATOM     24  N   UNL     1       7.246   5.198  13.940  0.00  0.00    +0.000 N 
ATOM     25  N   UNL     1       7.812   4.614  16.158  0.00  0.00    +0.000 NA
ATOM     26  N   UNL     1       6.992   4.256  17.159  0.00  0.00    +0.000 N 
ATOM     27  H   UNL     1       4.817   4.076  18.634  0.00  0.00    +0.000 HD
ATOM     28  H   UNL     1       6.505   5.619  13.397  0.00  0.00    +0.000 HD
ATOM     29  H   UNL     1       8.156   5.620  13.809  0.00  0.00    +0.000 HD
ATOM     30  H   UNL     1       7.382   3.992  18.052  0.00  0.00    +0.000 HD
ENDBRANCH  19  20
ENDBRANCH   6  19
TORSDOF 7
ENDMDL
MODEL 4
REMARK VINA RESULT:      -8.4      0.840      1.117
REMARK  Name = 
REMARK  9 active torsions:
REMARK  status: ('A' for Active; 'I' for Inactive)
REMARK    1  A    between atoms: C_1  and  C_2
REMARK    2  A    between atoms: C_2  and  N_3
REMARK    3  A    between atoms: N_3  and  C_4
REMARK    4  A    between atoms: N_3  and  C_6
REMARK    5  A    between atoms: C_4  and  C_5
REMARK    6  A    between atoms: C_10  and  O_11
REMARK    7  A    between atoms: O_11  and  C_12
REMARK    8  A    between atoms: C_17  and  C_18
REMARK    9  A    between atoms: C_18  and  N_19
REMARK                            x       y       z     vdW  Elec       q    Type
REMARK                         _______ _______ _______ _____ _____    ______ ____
ROOT
ATOM      1  C   UNL     1       2.472   4.292  19.797  0.00  0.00    +0.000 A 
ATOM      2  C   UNL     1       1.115   3.934  19.873  0.00  0.00    +0.000 A 
ATOM      3  C   UNL     1       0.647   2.781  19.247  0.00  0.00    +0.000 A 
ATOM      4  C   UNL     1       1.542   1.940  18.595  0.00  0.00    +0.000 A 
ATOM      5  C   UNL     1       2.907   2.238  18.598  0.00  0.00    +0.000 A 
ATOM      6  C   UNL     1       3.397   3.415  19.199  0.00  0.00    +0.000 A 
ENDROOT
BRANCH   1   7
ATOM      7  O   UNL     1       2.927   5.483  20.331  0.00  0.00    +0.000 OA
BRANCH   7  12
ATOM      8  C   UNL     1       1.279   8.810  19.865  0.00  0.00    +0.000 A 
ATOM      9  C   UNL     1       1.655   9.028  18.531  0.00  0.00    +0.000 A 
ATOM     10  C   UNL     1       2.422   8.094  17.829  0.00  0.00    +0.000 A 
ATOM     11  C   UNL     1       2.839   6.918  18.452  0.00  0.00    +0.000 A 
ATOM     12  C   UNL     1       2.483   6.672  19.775  0.00  0.00    +0.000 A 
ATOM     13  C   UNL     1       1.678   7.599  20.457  0.00  0.00    +0.000 A 
BRANCH   8  14
ATOM     14  N   UNL     1       0.541   9.787  20.556  0.00  0.00    +0.000 N 
BRANCH  14  16
ATOM     15  C   UNL     1      -0.280  10.024  22.897  0.00  0.00    +0.000 C 
ATOM     16  C   UNL     1      -0.425   9.311  21.558  0.00  0.00    +0.000 C 
ENDBRANCH  14  16
BRANCH  14  17
ATOM     17  C   UNL     1       0.224  11.004  19.787  0.00  0.00    +0.000 C 
ATOM     18  C   UNL     1      -1.246  11.110  19.398  0.00  0.00    +0.000 C 
ENDBRANCH  14  17
ENDBRANCH   8  14
ENDBRANCH   7  12
ENDBRANCH   1   7
BRANCH   6  19
ATOM     19  C   UNL     1       4.894   3.666  19.182  0.00  0.00    +0.000 C 
BRANCH  19  20
ATOM     20  N   UNL     1       5.388   3.636  17.809  0.00  0.00    +0.000 N 
ATOM     21  C   UNL     1       6.122   4.678  17.356  0.00  0.00    +0.000 A 
ATOM     22  N   UNL     1       6.395   5.832  17.917  0.00  0.00    +0.000 NA
ATOM     23  C   UNL     1       7.154   6.472  16.983  0.00  0.00    +0.000 A 
ATOM     24  N   UNL     1       7.633   7.681  17.254  0.00  0.00    +0.000 N 
ATOM     25  N   UNL     1       7.390   5.783  15.869  0.00  0.00    +0.000 NA
ATOM     26  N   UNL     1       6.701   4.656  16.115  0.00  0.00    +0.000 N 
ATOM     27  H   UNL     1       5.547   2.701  17.450  0.00  0.00    +0.000 HD
ATOM     28  H   UNL     1       7.661   7.952  18.227  0.00  0.00    +0.000 HD
ATOM     29  H   UNL     1       8.426   7.990  16.708  0.00  0.00    +0.000 HD
ATOM     30  H   UNL     1       6.652   3.938  15.407  0.00  0.00    +0.000 HD
ENDBRANCH  19  20
ENDBRANCH   6  19
TORSDOF 7
ENDMDL
MODEL 5
REMARK VINA RESULT:      -8.3      0.730      1.621
REMARK  Name = 
REMARK  9 active torsions:
REMARK  status: ('A' for Active; 'I' for Inactive)
REMARK    1  A    between atoms: C_1  and  C_2
REMARK    2  A    between atoms: C_2  and  N_3
REMARK    3  A    between atoms: N_3  and  C_4
REMARK    4  A    between atoms: N_3  and  C_6
REMARK    5  A    between atoms: C_4  and  C_5
REMARK    6  A    between atoms: C_10  and  O_11
REMARK    7  A    between atoms: O_11  and  C_12
REMARK    8  A    between atoms: C_17  and  C_18
REMARK    9  A    between atoms: C_18  and  N_19
REMARK                            x       y       z     vdW  Elec       q    Type
REMARK                         _______ _______ _______ _____ _____    ______ ____
ROOT
ATOM      1  C   UNL     1       2.625   4.571  19.632  0.00  0.00    +0.000 A 
ATOM      2  C   UNL     1       1.291   4.286  19.973  0.00  0.00    +0.000 A 
ATOM      3  C   UNL     1       0.692   3.097  19.566  0.00  0.00    +0.000 A 
ATOM      4  C   UNL     1       1.437   2.152  18.870  0.00  0.00    +0.000 A 
ATOM      5  C   UNL     1       2.790   2.386  18.612  0.00  0.00    +0.000 A 
ATOM      6  C   UNL     1       3.409   3.595  18.988  0.00  0.00    +0.000 A 
ENDROOT
BRANCH   1   7
ATOM      7  O   UNL     1       3.198   5.789  19.947  0.00  0.00    +0.000 OA
BRANCH   7  12
ATOM      8  C   UNL     1       1.103   8.891  19.938  0.00  0.00    +0.000 A 
ATOM      9  C   UNL     1       1.316   9.265  18.604  0.00  0.00    +0.000 A 
ATOM     10  C   UNL     1       2.124   8.503  17.753  0.00  0.00    +0.000 A 
ATOM     11  C   UNL     1       2.745   7.348  18.225  0.00  0.00    +0.000 A 
ATOM     12  C   UNL     1       2.554   6.949  19.545  0.00  0.00    +0.000 A 
ATOM     13  C   UNL     1       1.709   7.700  20.378  0.00  0.00    +0.000 A 
BRANCH   8  14
ATOM     14  N   UNL     1       0.319   9.700  20.779  0.00  0.00    +0.000 N 
BRANCH  14  16
ATOM     15  C   UNL     1      -0.362  12.097  20.761  0.00  0.00    +0.000 C 
ATOM     16  C   UNL     1       0.761  11.089  20.974  0.00  0.00    +0.000 C 
ENDBRANCH  14  16
BRANCH  14  17
ATOM     17  C   UNL     1      -0.338   8.999  21.898  0.00  0.00    +0.000 C 
ATOM     18  C   UNL     1       0.077   9.524  23.268  0.00  0.00    +0.000 C 
ENDBRANCH  14  17
ENDBRANCH   8  14
ENDBRANCH   7  12
ENDBRANCH   1   7
BRANCH   6  19
ATOM     19  C   UNL     1       4.887   3.773  18.693  0.00  0.00    +0.000 C 
BRANCH  19  20
ATOM     20  N   UNL     1       5.063   4.685  17.567  0.00  0.00    +0.000 N 
ATOM     21  C   UNL     1       6.039   5.619  17.630  0.00  0.00    +0.000 A 
ATOM     22  N   UNL     1       6.832   5.953  18.621  0.00  0.00    +0.000 NA
ATOM     23  C   UNL     1       7.587   6.963  18.101  0.00  0.00    +0.000 A 
ATOM     24  N   UNL     1       8.533   7.517  18.852  0.00  0.00    +0.000 N 
ATOM     25  N   UNL     1       7.328   7.277  16.835  0.00  0.00    +0.000 NA
ATOM     26  N   UNL     1       6.321   6.431  16.563  0.00  0.00    +0.000 N 
ATOM     27  H   UNL     1       4.782   4.295  16.674  0.00  0.00    +0.000 HD
ATOM     28  H   UNL     1       8.846   6.989  19.654  0.00  0.00    +0.000 HD
ATOM     29  H   UNL     1       9.265   8.018  18.365  0.00  0.00    +0.000 HD
ATOM     30  H   UNL     1       5.869   6.467  15.661  0.00  0.00    +0.000 HD
ENDBRANCH  19  20
ENDBRANCH   6  19
TORSDOF 7
ENDMDL
MODEL 6
REMARK VINA RESULT:      -8.3      1.517      2.338
REMARK  Name = 
REMARK  9 active torsions:
REMARK  status: ('A' for Active; 'I' for Inactive)
REMARK    1  A    between atoms: C_1  and  C_2
REMARK    2  A    between atoms: C_2  and  N_3
REMARK    3  A    between atoms: N_3  and  C_4
REMARK    4  A    between atoms: N_3  and  C_6
REMARK    5  A    between atoms: C_4  and  C_5
REMARK    6  A    between atoms: C_10  and  O_11
REMARK    7  A    between atoms: O_11  and  C_12
REMARK    8  A    between atoms: C_17  and  C_18
REMARK    9  A    between atoms: C_18  and  N_19
REMARK                            x       y       z     vdW  Elec       q    Type
REMARK                         _______ _______ _______ _____ _____    ______ ____
ROOT
ATOM      1  C   UNL     1       2.709   4.604  19.618  0.00  0.00    +0.000 A 
ATOM      2  C   UNL     1       1.355   4.316  19.867  0.00  0.00    +0.000 A 
ATOM      3  C   UNL     1       0.795   3.113  19.444  0.00  0.00    +0.000 A 
ATOM      4  C   UNL     1       1.596   2.160  18.826  0.00  0.00    +0.000 A 
ATOM      5  C   UNL     1       2.962   2.399  18.662  0.00  0.00    +0.000 A 
ATOM      6  C   UNL     1       3.544   3.621  19.055  0.00  0.00    +0.000 A 
ENDROOT
BRANCH   1   7
ATOM      7  O   UNL     1       3.249   5.834  19.947  0.00  0.00    +0.000 OA
BRANCH   7  12
ATOM      8  C   UNL     1       1.103   8.900  19.941  0.00  0.00    +0.000 A 
ATOM      9  C   UNL     1       1.297   9.271  18.602  0.00  0.00    +0.000 A 
ATOM     10  C   UNL     1       2.109   8.517  17.748  0.00  0.00    +0.000 A 
ATOM     11  C   UNL     1       2.754   7.375  18.221  0.00  0.00    +0.000 A 
ATOM     12  C   UNL     1       2.582   6.980  19.545  0.00  0.00    +0.000 A 
ATOM     13  C   UNL     1       1.733   7.723  20.381  0.00  0.00    +0.000 A 
BRANCH   8  14
ATOM     14  N   UNL     1       0.313   9.701  20.785  0.00  0.00    +0.000 N 
BRANCH  14  16
ATOM     15  C   UNL     1      -0.220  12.107  20.413  0.00  0.00    +0.000 C 
ATOM     16  C   UNL     1       0.753  11.089  20.995  0.00  0.00    +0.000 C 
ENDBRANCH  14  16
BRANCH  14  17
ATOM     17  C   UNL     1      -0.349   8.990  21.894  0.00  0.00    +0.000 C 
ATOM     18  C   UNL     1      -0.130   9.648  23.252  0.00  0.00    +0.000 C 
ENDBRANCH  14  17
ENDBRANCH   8  14
ENDBRANCH   7  12
ENDBRANCH   1   7
BRANCH   6  19
ATOM     19  C   UNL     1       5.038   3.805  18.865  0.00  0.00    +0.000 C 
BRANCH  19  20
ATOM     20  N   UNL     1       5.297   5.018  18.096  0.00  0.00    +0.000 N 
ATOM     21  C   UNL     1       5.593   4.907  16.781  0.00  0.00    +0.000 A 
ATOM     22  N   UNL     1       5.816   3.842  16.047  0.00  0.00    +0.000 NA
ATOM     23  C   UNL     1       6.079   4.352  14.811  0.00  0.00    +0.000 A 
ATOM     24  N   UNL     1       6.322   3.520  13.804  0.00  0.00    +0.000 N 
ATOM     25  N   UNL     1       6.021   5.679  14.717  0.00  0.00    +0.000 NA
ATOM     26  N   UNL     1       5.739   6.013  15.986  0.00  0.00    +0.000 N 
ATOM     27  H   UNL     1       4.813   5.838  18.446  0.00  0.00    +0.000 HD
ATOM     28  H   UNL     1       6.022   2.563  13.922  0.00  0.00    +0.000 HD
ATOM     29  H   UNL     1       6.199   3.888  12.870  0.00  0.00    +0.000 HD
ATOM     30  H   UNL     1       5.678   6.988  16.243  0.00  0.00    +0.000 HD
ENDBRANCH  19  20
ENDBRANCH   6  19
TORSDOF 7
ENDMDL
MODEL 7
REMARK VINA RESULT:      -8.2      1.532      2.005
REMARK  Name = 
REMARK  9 active torsions:
REMARK  status: ('A' for Active; 'I' for Inactive)
REMARK    1  A    between atoms: C_1  and  C_2
REMARK    2  A    between atoms: C_2  and  N_3
REMARK    3  A    between atoms: N_3  and  C_4
REMARK    4  A    between atoms: N_3  and  C_6
REMARK    5  A    between atoms: C_4  and  C_5
REMARK    6  A    between atoms: C_10  and  O_11
REMARK    7  A    between atoms: O_11  and  C_12
REMARK    8  A    between atoms: C_17  and  C_18
REMARK    9  A    between atoms: C_18  and  N_19
REMARK                            x       y       z     vdW  Elec       q    Type
REMARK                         _______ _______ _______ _____ _____    ______ ____
ROOT
ATOM      1  C   UNL     1       2.769   4.513  19.378  0.00  0.00    +0.000 A 
ATOM      2  C   UNL     1       1.416   4.129  19.399  0.00  0.00    +0.000 A 
ATOM      3  C   UNL     1       0.991   2.985  18.730  0.00  0.00    +0.000 A 
ATOM      4  C   UNL     1       1.922   2.177  18.087  0.00  0.00    +0.000 A 
ATOM      5  C   UNL     1       3.280   2.498  18.144  0.00  0.00    +0.000 A 
ATOM      6  C   UNL     1       3.729   3.668  18.790  0.00  0.00    +0.000 A 
ENDROOT
BRANCH   1   7
ATOM      7  O   UNL     1       3.183   5.698  19.957  0.00  0.00    +0.000 OA
BRANCH   7  12
ATOM      8  C   UNL     1       1.272   8.915  19.891  0.00  0.00    +0.000 A 
ATOM      9  C   UNL     1       1.489   9.243  18.545  0.00  0.00    +0.000 A 
ATOM     10  C   UNL     1       2.240   8.414  17.706  0.00  0.00    +0.000 A 
ATOM     11  C   UNL     1       2.800   7.236  18.200  0.00  0.00    +0.000 A 
ATOM     12  C   UNL     1       2.603   6.882  19.533  0.00  0.00    +0.000 A 
ATOM     13  C   UNL     1       1.814   7.702  20.355  0.00  0.00    +0.000 A 
BRANCH   8  14
ATOM     14  N   UNL     1       0.546   9.789  20.720  0.00  0.00    +0.000 N 
BRANCH  14  16
ATOM     15  C   UNL     1      -0.451  10.060  22.988  0.00  0.00    +0.000 C 
ATOM     16  C   UNL     1      -0.305   9.178  21.754  0.00  0.00    +0.000 C 
ENDBRANCH  14  16
BRANCH  14  17
ATOM     17  C   UNL     1       0.102  11.042  20.084  0.00  0.00    +0.000 C 
ATOM     18  C   UNL     1      -1.301  10.958  19.494  0.00  0.00    +0.000 C 
ENDBRANCH  14  17
ENDBRANCH   8  14
ENDBRANCH   7  12
ENDBRANCH   1   7
BRANCH   6  19
ATOM     19  C   UNL     1       5.220   3.945  18.830  0.00  0.00    +0.000 C 
BRANCH  19  20
ATOM     20  N   UNL     1       5.528   5.130  18.035  0.00  0.00    +0.000 N 
ATOM     21  C   UNL     1       5.795   4.982  16.718  0.00  0.00    +0.000 A 
ATOM     22  N   UNL     1       5.952   3.895  16.000  0.00  0.00    +0.000 NA
ATOM     23  C   UNL     1       6.220   4.371  14.751  0.00  0.00    +0.000 A 
ATOM     24  N   UNL     1       6.404   3.511  13.755  0.00  0.00    +0.000 N 
ATOM     25  N   UNL     1       6.229   5.697  14.634  0.00  0.00    +0.000 NA
ATOM     26  N   UNL     1       5.985   6.066  15.902  0.00  0.00    +0.000 N 
ATOM     27  H   UNL     1       5.092   5.980  18.379  0.00  0.00    +0.000 HD
ATOM     28  H   UNL     1       6.057   2.573  13.894  0.00  0.00    +0.000 HD
ATOM     29  H   UNL     1       6.284   3.869  12.816  0.00  0.00    +0.000 HD
ATOM     30  H   UNL     1       5.978   7.047  16.143  0.00  0.00    +0.000 HD
ENDBRANCH  19  20
ENDBRANCH   6  19
TORSDOF 7
ENDMDL
MODEL 8
REMARK VINA RESULT:      -8.2      0.973      1.598
REMARK  Name = 
REMARK  9 active torsions:
REMARK  status: ('A' for Active; 'I' for Inactive)
REMARK    1  A    between atoms: C_1  and  C_2
REMARK    2  A    between atoms: C_2  and  N_3
REMARK    3  A    between atoms: N_3  and  C_4
REMARK    4  A    between atoms: N_3  and  C_6
REMARK    5  A    between atoms: C_4  and  C_5
REMARK    6  A    between atoms: C_10  and  O_11
REMARK    7  A    between atoms: O_11  and  C_12
REMARK    8  A    between atoms: C_17  and  C_18
REMARK    9  A    between atoms: C_18  and  N_19
REMARK                            x       y       z     vdW  Elec       q    Type
REMARK                         _______ _______ _______ _____ _____    ______ ____
ROOT
ATOM      1  C   UNL     1       2.401   5.140  19.564  0.00  0.00    +0.000 A 
ATOM      2  C   UNL     1       1.564   4.608  20.561  0.00  0.00    +0.000 A 
ATOM      3  C   UNL     1       0.877   3.415  20.351  0.00  0.00    +0.000 A 
ATOM      4  C   UNL     1       1.071   2.708  19.170  0.00  0.00    +0.000 A 
ATOM      5  C   UNL     1       1.976   3.179  18.216  0.00  0.00    +0.000 A 
ATOM      6  C   UNL     1       2.658   4.399  18.395  0.00  0.00    +0.000 A 
ENDROOT
BRANCH   1   7
ATOM      7  O   UNL     1       3.009   6.371  19.725  0.00  0.00    +0.000 OA
BRANCH   7  12
ATOM      8  C   UNL     1       0.839   9.405  20.028  0.00  0.00    +0.000 A 
ATOM      9  C   UNL     1       0.866   9.798  18.682  0.00  0.00    +0.000 A 
ATOM     10  C   UNL     1       1.580   9.070  17.725  0.00  0.00    +0.000 A 
ATOM     11  C   UNL     1       2.291   7.930  18.097  0.00  0.00    +0.000 A 
ATOM     12  C   UNL     1       2.285   7.513  19.425  0.00  0.00    +0.000 A 
ATOM     13  C   UNL     1       1.532   8.230  20.370  0.00  0.00    +0.000 A 
BRANCH   8  14
ATOM     14  N   UNL     1       0.146  10.180  20.974  0.00  0.00    +0.000 N 
BRANCH  14  16
ATOM     15  C   UNL     1      -0.395  12.510  20.274  0.00  0.00    +0.000 C 
ATOM     16  C   UNL     1       0.521  11.599  21.081  0.00  0.00    +0.000 C 
ENDBRANCH  14  16
BRANCH  14  17
ATOM     17  C   UNL     1      -0.279   9.464  22.191  0.00  0.00    +0.000 C 
ATOM     18  C   UNL     1      -0.959  10.363  23.217  0.00  0.00    +0.000 C 
ENDBRANCH  14  17
ENDBRANCH   8  14
ENDBRANCH   7  12
ENDBRANCH   1   7
BRANCH   6  19
ATOM     19  C   UNL     1       3.641   4.841  17.326  0.00  0.00    +0.000 C 
BRANCH  19  20
ATOM     20  N   UNL     1       4.867   4.056  17.423  0.00  0.00    +0.000 N 
ATOM     21  C   UNL     1       6.002   4.665  17.834  0.00  0.00    +0.000 A 
ATOM     22  N   UNL     1       6.249   5.932  18.069  0.00  0.00    +0.000 NA
ATOM     23  C   UNL     1       7.563   5.941  18.435  0.00  0.00    +0.000 A 
ATOM     24  N   UNL     1       8.132   7.091  18.777  0.00  0.00    +0.000 N 
ATOM     25  N   UNL     1       8.157   4.751  18.459  0.00  0.00    +0.000 NA
ATOM     26  N   UNL     1       7.156   3.957  18.045  0.00  0.00    +0.000 N 
ATOM     27  H   UNL     1       4.711   3.073  17.619  0.00  0.00    +0.000 HD
ATOM     28  H   UNL     1       7.513   7.848  19.030  0.00  0.00    +0.000 HD
ATOM     29  H   UNL     1       8.976   7.034  19.333  0.00  0.00    +0.000 HD
ATOM     30  H   UNL     1       7.324   2.969  17.915  0.00  0.00    +0.000 HD
ENDBRANCH  19  20
ENDBRANCH   6  19
TORSDOF 7
ENDMDL
MODEL 9
REMARK VINA RESULT:      -8.1      1.097      1.270
REMARK  Name = 
REMARK  9 active torsions:
REMARK  status: ('A' for Active; 'I' for Inactive)
REMARK    1  A    between atoms: C_1  and  C_2
REMARK    2  A    between atoms: C_2  and  N_3
REMARK    3  A    between atoms: N_3  and  C_4
REMARK    4  A    between atoms: N_3  and  C_6
REMARK    5  A    between atoms: C_4  and  C_5
REMARK    6  A    between atoms: C_10  and  O_11
REMARK    7  A    between atoms: O_11  and  C_12
REMARK    8  A    between atoms: C_17  and  C_18
REMARK    9  A    between atoms: C_18  and  N_19
REMARK                            x       y       z     vdW  Elec       q    Type
REMARK                         _______ _______ _______ _____ _____    ______ ____
ROOT
ATOM      1  C   UNL     1       2.320   5.342  19.554  0.00  0.00    +0.000 A 
ATOM      2  C   UNL     1       1.429   4.827  20.511  0.00  0.00    +0.000 A 
ATOM      3  C   UNL     1       0.747   3.635  20.278  0.00  0.00    +0.000 A 
ATOM      4  C   UNL     1       0.997   2.914  19.117  0.00  0.00    +0.000 A 
ATOM      5  C   UNL     1       1.953   3.370  18.206  0.00  0.00    +0.000 A 
ATOM      6  C   UNL     1       2.632   4.588  18.407  0.00  0.00    +0.000 A 
ENDROOT
BRANCH   1   7
ATOM      7  O   UNL     1       2.927   6.572  19.733  0.00  0.00    +0.000 OA
BRANCH   7  12
ATOM      8  C   UNL     1       0.868   9.659  20.220  0.00  0.00    +0.000 A 
ATOM      9  C   UNL     1       0.716  10.006  18.870  0.00  0.00    +0.000 A 
ATOM     10  C   UNL     1       1.279   9.231  17.851  0.00  0.00    +0.000 A 
ATOM     11  C   UNL     1       2.016   8.090  18.163  0.00  0.00    +0.000 A 
ATOM     12  C   UNL     1       2.186   7.718  19.494  0.00  0.00    +0.000 A 
ATOM     13  C   UNL     1       1.583   8.482  20.506  0.00  0.00    +0.000 A 
BRANCH   8  14
ATOM     14  N   UNL     1       0.325  10.481  21.224  0.00  0.00    +0.000 N 
BRANCH  14  16
ATOM     15  C   UNL     1      -1.251  10.751  23.135  0.00  0.00    +0.000 C 
ATOM     16  C   UNL     1      -0.349   9.810  22.346  0.00  0.00    +0.000 C 
ENDBRANCH  14  16
BRANCH  14  17
ATOM     17  C   UNL     1      -0.186  11.786  20.765  0.00  0.00    +0.000 C 
ATOM     18  C   UNL     1       0.797  12.931  20.981  0.00  0.00    +0.000 C 
ENDBRANCH  14  17
ENDBRANCH   8  14
ENDBRANCH   7  12
ENDBRANCH   1   7
BRANCH   6  19
ATOM     19  C   UNL     1       3.672   5.013  17.387  0.00  0.00    +0.000 C 
BRANCH  19  20
ATOM     20  N   UNL     1       4.865   4.183  17.516  0.00  0.00    +0.000 N 
ATOM     21  C   UNL     1       6.019   4.757  17.926  0.00  0.00    +0.000 A 
ATOM     22  N   UNL     1       6.313   6.019  18.134  0.00  0.00    +0.000 NA
ATOM     23  C   UNL     1       7.622   5.986  18.514  0.00  0.00    +0.000 A 
ATOM     24  N   UNL     1       8.232   7.121  18.835  0.00  0.00    +0.000 N 
ATOM     25  N   UNL     1       8.168   4.774  18.574  0.00  0.00    +0.000 NA
ATOM     26  N   UNL     1       7.141   4.010  18.168  0.00  0.00    +0.000 N 
ATOM     27  H   UNL     1       4.669   3.212  17.734  0.00  0.00    +0.000 HD
ATOM     28  H   UNL     1       7.641   7.908  19.062  0.00  0.00    +0.000 HD
ATOM     29  H   UNL     1       9.067   7.044  19.402  0.00  0.00    +0.000 HD
ATOM     30  H   UNL     1       7.272   3.014  18.064  0.00  0.00    +0.000 HD
ENDBRANCH  19  20
ENDBRANCH   6  19
TORSDOF 7
ENDMDL
