MODEL 1
REMARK VINA RESULT:      -8.5      0.000      0.000
REMARK  Name = 
REMARK  5 active torsions:
REMARK  status: ('A' for Active; 'I' for Inactive)
REMARK    1  A    between atoms: C_1  and  C_2
REMARK    2  A    between atoms: C_11  and  N_12
REMARK    3  A    between atoms: C_13  and  C_15
REMARK    4  A    between atoms: C_18  and  C_19
REMARK    5  A    between atoms: C_19  and  N_20
REMARK                            x       y       z     vdW  Elec       q    Type
REMARK                         _______ _______ _______ _____ _____    ______ ____
ROOT
ATOM      1  N   UNL     1       3.932   5.969  18.251  0.00  0.00    +0.000 N 
ATOM      2  C   UNL     1       2.973   6.113  19.238  0.00  0.00    +0.000 C 
ATOM      3  O   UNL     1       2.724   5.260  20.073  0.00  0.00    +0.000 OA
ATOM      4  H   UNL     1       4.219   6.771  17.712  0.00  0.00    +0.000 HD
ENDROOT
BRANCH   1  15
ATOM      5  C   UNL     1       7.450   4.551  13.131  0.00  0.00    +0.000 C 
ATOM      6  C   UNL     1       6.736   4.617  14.445  0.00  0.00    +0.000 A 
ATOM      7  N   UNL     1       5.415   4.369  14.460  0.00  0.00    +0.000 NA
ATOM      8  C   UNL     1       4.808   4.425  15.663  0.00  0.00    +0.000 A 
ATOM      9  C   UNL     1       5.463   4.721  16.843  0.00  0.00    +0.000 A 
ATOM     10  C   UNL     1       6.820   4.978  16.716  0.00  0.00    +0.000 A 
ATOM     11  N   UNL     1       7.467   4.922  15.531  0.00  0.00    +0.000 NA
ATOM     12  C   UNL     1       7.682   5.266  17.919  0.00  0.00    +0.000 C 
ATOM     13  C   UNL     1       6.870   5.658  19.150  0.00  0.00    +0.000 C 
ATOM     14  C   UNL     1       5.724   4.666  19.338  0.00  0.00    +0.000 C 
ATOM     15  C   UNL     1       4.738   4.761  18.160  0.00  0.00    +0.000 C 
ENDBRANCH   1  15
BRANCH   2  16
ATOM     16  C   UNL     1       2.257   7.415  19.255  0.00  0.00    +0.000 A 
ATOM     17  C   UNL     1       1.660   7.891  20.426  0.00  0.00    +0.000 A 
ATOM     18  C   UNL     1       0.935   9.080  20.411  0.00  0.00    +0.000 A 
ATOM     19  C   UNL     1       0.802   9.825  19.226  0.00  0.00    +0.000 A 
ATOM     20  C   UNL     1       1.456   9.371  18.066  0.00  0.00    +0.000 A 
ATOM     21  C   UNL     1       2.177   8.169  18.079  0.00  0.00    +0.000 A 
BRANCH  19  22
ATOM     22  C   UNL     1      -0.061  11.067  19.221  0.00  0.00    +0.000 C 
BRANCH  22  23
ATOM     23  N   UNL     1      -1.232  10.924  18.370  0.00  0.00    +0.000 N 
ATOM     24  C   UNL     1      -2.038   9.822  18.271  0.00  0.00    +0.000 A 
ATOM     25  C   UNL     1      -2.920  10.088  17.251  0.00  0.00    +0.000 A 
ATOM     26  C   UNL     1      -2.630  11.409  16.866  0.00  0.00    +0.000 A 
ATOM     27  N   UNL     1      -1.630  11.940  17.575  0.00  0.00    +0.000 NA
ENDBRANCH  22  23
ENDBRANCH  19  22
ENDBRANCH   2  16
TORSDOF 4
ENDMDL
MODEL 2
REMARK VINA RESULT:      -8.3      1.554      2.377
REMARK  Name = 
REMARK  5 active torsions:
REMARK  status: ('A' for Active; 'I' for Inactive)
REMARK    1  A    between atoms: C_1  and  C_2
REMARK    2  A    between atoms: C_11  and  N_12
REMARK    3  A    between atoms: C_13  and  C_15
REMARK    4  A    between atoms: C_18  and  C_19
REMARK    5  A    between atoms: C_19  and  N_20
REMARK                            x       y       z     vdW  Elec       q    Type
REMARK                         _______ _______ _______ _____ _____    ______ ____
ROOT
ATOM      1  N   UNL     1       3.957   6.005  18.287  0.00  0.00    +0.000 N 
ATOM      2  C   UNL     1       2.917   6.108  19.194  0.00  0.00    +0.000 C 
ATOM      3  O   UNL     1       2.548   5.193  19.910  0.00  0.00    +0.000 OA
ATOM      4  H   UNL     1       4.334   6.838  17.862  0.00  0.00    +0.000 HD
ENDROOT
BRANCH   1  15
ATOM      5  C   UNL     1       7.550   4.723  13.183  0.00  0.00    +0.000 C 
ATOM      6  C   UNL     1       6.801   4.745  14.479  0.00  0.00    +0.000 A 
ATOM      7  N   UNL     1       5.471   4.563  14.445  0.00  0.00    +0.000 NA
ATOM      8  C   UNL     1       4.832   4.577  15.632  0.00  0.00    +0.000 A 
ATOM      9  C   UNL     1       5.466   4.769  16.845  0.00  0.00    +0.000 A 
ATOM     10  C   UNL     1       6.837   4.965  16.770  0.00  0.00    +0.000 A 
ATOM     11  N   UNL     1       7.515   4.948  15.601  0.00  0.00    +0.000 NA
ATOM     12  C   UNL     1       7.677   5.136  18.010  0.00  0.00    +0.000 C 
ATOM     13  C   UNL     1       6.850   5.494  19.241  0.00  0.00    +0.000 C 
ATOM     14  C   UNL     1       5.652   4.551  19.338  0.00  0.00    +0.000 C 
ATOM     15  C   UNL     1       4.707   4.766  18.143  0.00  0.00    +0.000 C 
ENDBRANCH   1  15
BRANCH   2  16
ATOM     16  C   UNL     1       2.270   7.442  19.283  0.00  0.00    +0.000 A 
ATOM     17  C   UNL     1       1.625   7.852  20.453  0.00  0.00    +0.000 A 
ATOM     18  C   UNL     1       0.964   9.077  20.499  0.00  0.00    +0.000 A 
ATOM     19  C   UNL     1       0.946   9.925  19.378  0.00  0.00    +0.000 A 
ATOM     20  C   UNL     1       1.648   9.534  18.224  0.00  0.00    +0.000 A 
ATOM     21  C   UNL     1       2.304   8.296  18.175  0.00  0.00    +0.000 A 
BRANCH  19  22
ATOM     22  C   UNL     1       0.150  11.210  19.431  0.00  0.00    +0.000 C 
BRANCH  22  23
ATOM     23  N   UNL     1       0.991  12.371  19.682  0.00  0.00    +0.000 N 
ATOM     24  C   UNL     1       1.326  13.344  18.780  0.00  0.00    +0.000 A 
ATOM     25  C   UNL     1       2.243  14.149  19.414  0.00  0.00    +0.000 A 
ATOM     26  C   UNL     1       2.319  13.637  20.722  0.00  0.00    +0.000 A 
ATOM     27  N   UNL     1       1.524  12.580  20.904  0.00  0.00    +0.000 NA
ENDBRANCH  22  23
ENDBRANCH  19  22
ENDBRANCH   2  16
TORSDOF 4
ENDMDL
MODEL 3
REMARK VINA RESULT:      -8.3      0.899      1.349
REMARK  Name = 
REMARK  5 active torsions:
REMARK  status: ('A' for Active; 'I' for Inactive)
REMARK    1  A    between atoms: C_1  and  C_2
REMARK    2  A    between atoms: C_11  and  N_12
REMARK    3  A    between atoms: C_13  and  C_15
REMARK    4  A    between atoms: C_18  and  C_19
REMARK    5  A    between atoms: C_19  and  N_20
REMARK                            x       y       z     vdW  Elec       q    Type
REMARK                         _______ _______ _______ _____ _____    ______ ____
ROOT
ATOM      1  N   UNL     1       3.945   6.072  18.149  0.00  0.00    +0.000 N 
ATOM      2  C   UNL     1       2.825   6.182  18.955  0.00  0.00    +0.000 C 
ATOM      3  O   UNL     1       2.371   5.262  19.616  0.00  0.00    +0.000 OA
ATOM      4  H   UNL     1       4.376   6.905  17.778  0.00  0.00    +0.000 HD
ENDROOT
BRANCH   1  15
ATOM      5  C   UNL     1       7.498   4.541  13.086  0.00  0.00    +0.000 C 
ATOM      6  C   UNL     1       6.756   4.625  14.384  0.00  0.00    +0.000 A 
ATOM      7  N   UNL     1       5.424   4.456  14.364  0.00  0.00    +0.000 NA
ATOM      8  C   UNL     1       4.792   4.526  15.553  0.00  0.00    +0.000 A 
ATOM      9  C   UNL     1       5.433   4.762  16.753  0.00  0.00    +0.000 A 
ATOM     10  C   UNL     1       6.806   4.940  16.664  0.00  0.00    +0.000 A 
ATOM     11  N   UNL     1       7.478   4.867  15.493  0.00  0.00    +0.000 NA
ATOM     12  C   UNL     1       7.654   5.154  17.892  0.00  0.00    +0.000 C 
ATOM     13  C   UNL     1       6.837   5.572  19.111  0.00  0.00    +0.000 C 
ATOM     14  C   UNL     1       5.629   4.646  19.253  0.00  0.00    +0.000 C 
ATOM     15  C   UNL     1       4.680   4.821  18.054  0.00  0.00    +0.000 C 
ENDBRANCH   1  15
BRANCH   2  16
ATOM     16  C   UNL     1       2.198   7.528  19.007  0.00  0.00    +0.000 A 
ATOM     17  C   UNL     1       2.216   8.373  17.895  0.00  0.00    +0.000 A 
ATOM     18  C   UNL     1       1.684   9.658  17.980  0.00  0.00    +0.000 A 
ATOM     19  C   UNL     1       1.110  10.119  19.178  0.00  0.00    +0.000 A 
ATOM     20  C   UNL     1       1.039   9.241  20.274  0.00  0.00    +0.000 A 
ATOM     21  C   UNL     1       1.585   7.952  20.191  0.00  0.00    +0.000 A 
BRANCH  19  22
ATOM     22  C   UNL     1       0.616  11.546  19.264  0.00  0.00    +0.000 C 
BRANCH  22  23
ATOM     23  N   UNL     1      -0.833  11.636  19.168  0.00  0.00    +0.000 N 
ATOM     24  C   UNL     1      -1.615  11.150  18.156  0.00  0.00    +0.000 A 
ATOM     25  C   UNL     1      -2.891  11.589  18.419  0.00  0.00    +0.000 A 
ATOM     26  C   UNL     1      -2.792  12.246  19.659  0.00  0.00    +0.000 A 
ATOM     27  N   UNL     1      -1.547  12.240  20.143  0.00  0.00    +0.000 NA
ENDBRANCH  22  23
ENDBRANCH  19  22
ENDBRANCH   2  16
TORSDOF 4
ENDMDL
MODEL 4
REMARK VINA RESULT:      -8.1      1.505      2.185
REMARK  Name = 
REMARK  5 active torsions:
REMARK  status: ('A' for Active; 'I' for Inactive)
REMARK    1  A    between atoms: C_1  and  C_2
REMARK    2  A    between atoms: C_11  and  N_12
REMARK    3  A    between atoms: C_13  and  C_15
REMARK    4  A    between atoms: C_18  and  C_19
REMARK    5  A    between atoms: C_19  and  N_20
REMARK                            x       y       z     vdW  Elec       q    Type
REMARK                         _______ _______ _______ _____ _____    ______ ____
ROOT
ATOM      1  N   UNL     1       3.995   6.131  18.266  0.00  0.00    +0.000 N 
ATOM      2  C   UNL     1       2.725   6.199  18.811  0.00  0.00    +0.000 C 
ATOM      3  O   UNL     1       2.101   5.226  19.201  0.00  0.00    +0.000 OA
ATOM      4  H   UNL     1       4.528   6.977  18.136  0.00  0.00    +0.000 HD
ENDROOT
BRANCH   1  15
ATOM      5  C   UNL     1       7.527   4.628  13.180  0.00  0.00    +0.000 C 
ATOM      6  C   UNL     1       6.781   4.700  14.475  0.00  0.00    +0.000 A 
ATOM      7  N   UNL     1       5.443   4.575  14.443  0.00  0.00    +0.000 NA
ATOM      8  C   UNL     1       4.807   4.633  15.630  0.00  0.00    +0.000 A 
ATOM      9  C   UNL     1       5.448   4.813  16.841  0.00  0.00    +0.000 A 
ATOM     10  C   UNL     1       6.826   4.948  16.763  0.00  0.00    +0.000 A 
ATOM     11  N   UNL     1       7.503   4.886  15.595  0.00  0.00    +0.000 NA
ATOM     12  C   UNL     1       7.674   5.099  18.001  0.00  0.00    +0.000 C 
ATOM     13  C   UNL     1       6.863   5.508  19.228  0.00  0.00    +0.000 C 
ATOM     14  C   UNL     1       5.624   4.619  19.337  0.00  0.00    +0.000 C 
ATOM     15  C   UNL     1       4.689   4.859  18.139  0.00  0.00    +0.000 C 
ENDBRANCH   1  15
BRANCH   2  16
ATOM     16  C   UNL     1       2.149   7.562  18.936  0.00  0.00    +0.000 A 
ATOM     17  C   UNL     1       2.103   8.427  17.839  0.00  0.00    +0.000 A 
ATOM     18  C   UNL     1       1.623   9.726  17.987  0.00  0.00    +0.000 A 
ATOM     19  C   UNL     1       1.165  10.183  19.235  0.00  0.00    +0.000 A 
ATOM     20  C   UNL     1       1.156   9.289  20.321  0.00  0.00    +0.000 A 
ATOM     21  C   UNL     1       1.650   7.985  20.173  0.00  0.00    +0.000 A 
BRANCH  19  22
ATOM     22  C   UNL     1       0.727  11.624  19.384  0.00  0.00    +0.000 C 
BRANCH  22  23
ATOM     23  N   UNL     1      -0.181  11.812  20.506  0.00  0.00    +0.000 N 
ATOM     24  C   UNL     1      -1.548  11.805  20.457  0.00  0.00    +0.000 A 
ATOM     25  C   UNL     1      -1.973  12.163  21.715  0.00  0.00    +0.000 A 
ATOM     26  C   UNL     1      -0.793  12.269  22.473  0.00  0.00    +0.000 A 
ATOM     27  N   UNL     1       0.302  12.012  21.751  0.00  0.00    +0.000 NA
ENDBRANCH  22  23
ENDBRANCH  19  22
ENDBRANCH   2  16
TORSDOF 4
ENDMDL
MODEL 5
REMARK VINA RESULT:      -7.9      3.457      9.330
REMARK  Name = 
REMARK  5 active torsions:
REMARK  status: ('A' for Active; 'I' for Inactive)
REMARK    1  A    between atoms: C_1  and  C_2
REMARK    2  A    between atoms: C_11  and  N_12
REMARK    3  A    between atoms: C_13  and  C_15
REMARK    4  A    between atoms: C_18  and  C_19
REMARK    5  A    between atoms: C_19  and  N_20
REMARK                            x       y       z     vdW  Elec       q    Type
REMARK                         _______ _______ _______ _____ _____    ______ ____
ROOT
ATOM      1  N   UNL     1      -0.224  10.652  18.974  0.00  0.00    +0.000 N 
ATOM      2  C   UNL     1       1.099  10.401  18.659  0.00  0.00    +0.000 C 
ATOM      3  O   UNL     1       1.861  11.240  18.208  0.00  0.00    +0.000 OA
ATOM      4  H   UNL     1      -0.747   9.977  19.511  0.00  0.00    +0.000 HD
ENDROOT
BRANCH   1  15
ATOM      5  C   UNL     1      -6.424  11.601  17.849  0.00  0.00    +0.000 C 
ATOM      6  C   UNL     1      -4.951  11.688  18.098  0.00  0.00    +0.000 A 
ATOM      7  N   UNL     1      -4.119  11.338  17.103  0.00  0.00    +0.000 NA
ATOM      8  C   UNL     1      -2.799  11.440  17.361  0.00  0.00    +0.000 A 
ATOM      9  C   UNL     1      -2.281  11.872  18.566  0.00  0.00    +0.000 A 
ATOM     10  C   UNL     1      -3.223  12.193  19.533  0.00  0.00    +0.000 A 
ATOM     11  N   UNL     1      -4.554  12.113  19.311  0.00  0.00    +0.000 NA
ATOM     12  C   UNL     1      -2.816  12.728  20.882  0.00  0.00    +0.000 C 
ATOM     13  C   UNL     1      -1.347  12.472  21.203  0.00  0.00    +0.000 C 
ATOM     14  C   UNL     1      -0.488  12.878  20.006  0.00  0.00    +0.000 C 
ATOM     15  C   UNL     1      -0.798  11.978  18.797  0.00  0.00    +0.000 C 
ENDBRANCH   1  15
BRANCH   2  16
ATOM     16  C   UNL     1       1.577   9.022  18.937  0.00  0.00    +0.000 A 
ATOM     17  C   UNL     1       1.380   8.431  20.188  0.00  0.00    +0.000 A 
ATOM     18  C   UNL     1       1.893   7.164  20.455  0.00  0.00    +0.000 A 
ATOM     19  C   UNL     1       2.604   6.455  19.471  0.00  0.00    +0.000 A 
ATOM     20  C   UNL     1       2.745   7.030  18.194  0.00  0.00    +0.000 A 
ATOM     21  C   UNL     1       2.238   8.310  17.930  0.00  0.00    +0.000 A 
BRANCH  19  22
ATOM     22  C   UNL     1       3.221   5.118  19.817  0.00  0.00    +0.000 C 
BRANCH  22  23
ATOM     23  N   UNL     1       2.486   4.004  19.236  0.00  0.00    +0.000 N 
ATOM     24  C   UNL     1       1.199   3.637  19.525  0.00  0.00    +0.000 A 
ATOM     25  C   UNL     1       0.982   2.458  18.853  0.00  0.00    +0.000 A 
ATOM     26  C   UNL     1       2.160   2.249  18.112  0.00  0.00    +0.000 A 
ATOM     27  N   UNL     1       3.064   3.212  18.307  0.00  0.00    +0.000 NA
ENDBRANCH  22  23
ENDBRANCH  19  22
ENDBRANCH   2  16
TORSDOF 4
ENDMDL
MODEL 6
REMARK VINA RESULT:      -7.8      3.426      9.086
REMARK  Name = 
REMARK  5 active torsions:
REMARK  status: ('A' for Active; 'I' for Inactive)
REMARK    1  A    between atoms: C_1  and  C_2
REMARK    2  A    between atoms: C_11  and  N_12
REMARK    3  A    between atoms: C_13  and  C_15
REMARK    4  A    between atoms: C_18  and  C_19
REMARK    5  A    between atoms: C_19  and  N_20
REMARK                            x       y       z     vdW  Elec       q    Type
REMARK                         _______ _______ _______ _____ _____    ______ ____
ROOT
ATOM      1  N   UNL     1       0.301  10.496  18.750  0.00  0.00    +0.000 N 
ATOM      2  C   UNL     1       1.539  10.150  18.237  0.00  0.00    +0.000 C 
ATOM      3  O   UNL     1       2.235  10.905  17.579  0.00  0.00    +0.000 OA
ATOM      4  H   UNL     1      -0.140   9.900  19.435  0.00  0.00    +0.000 HD
ENDROOT
BRANCH   1  15
ATOM      5  C   UNL     1      -5.904  11.527  17.727  0.00  0.00    +0.000 C 
ATOM      6  C   UNL     1      -4.424  11.593  17.942  0.00  0.00    +0.000 A 
ATOM      7  N   UNL     1      -3.620  11.196  16.942  0.00  0.00    +0.000 NA
ATOM      8  C   UNL     1      -2.294  11.281  17.168  0.00  0.00    +0.000 A 
ATOM      9  C   UNL     1      -1.741  11.741  18.347  0.00  0.00    +0.000 A 
ATOM     10  C   UNL     1      -2.656  12.110  19.322  0.00  0.00    +0.000 A 
ATOM     11  N   UNL     1      -3.993  12.049  19.132  0.00  0.00    +0.000 NA
ATOM     12  C   UNL     1      -2.210  12.681  20.645  0.00  0.00    +0.000 C 
ATOM     13  C   UNL     1      -0.739  12.406  20.942  0.00  0.00    +0.000 C 
ATOM     14  C   UNL     1       0.101  12.758  19.715  0.00  0.00    +0.000 C 
ATOM     15  C   UNL     1      -0.252  11.826  18.543  0.00  0.00    +0.000 C 
ENDBRANCH   1  15
BRANCH   2  16
ATOM     16  C   UNL     1       2.013   8.782  18.565  0.00  0.00    +0.000 A 
ATOM     17  C   UNL     1       1.665   8.170  19.772  0.00  0.00    +0.000 A 
ATOM     18  C   UNL     1       2.172   6.914  20.096  0.00  0.00    +0.000 A 
ATOM     19  C   UNL     1       3.031   6.237  19.212  0.00  0.00    +0.000 A 
ATOM     20  C   UNL     1       3.329   6.832  17.972  0.00  0.00    +0.000 A 
ATOM     21  C   UNL     1       2.826   8.101  17.652  0.00  0.00    +0.000 A 
BRANCH  19  22
ATOM     22  C   UNL     1       3.633   4.913  19.627  0.00  0.00    +0.000 C 
BRANCH  22  23
ATOM     23  N   UNL     1       2.620   3.948  20.030  0.00  0.00    +0.000 N 
ATOM     24  C   UNL     1       1.721   3.321  19.211  0.00  0.00    +0.000 A 
ATOM     25  C   UNL     1       0.880   2.618  20.041  0.00  0.00    +0.000 A 
ATOM     26  C   UNL     1       1.413   2.806  21.329  0.00  0.00    +0.000 A 
ATOM     27  N   UNL     1       2.501   3.581  21.324  0.00  0.00    +0.000 NA
ENDBRANCH  22  23
ENDBRANCH  19  22
ENDBRANCH   2  16
TORSDOF 4
ENDMDL
MODEL 7
REMARK VINA RESULT:      -7.7      3.907     10.056
REMARK  Name = 
REMARK  5 active torsions:
REMARK  status: ('A' for Active; 'I' for Inactive)
REMARK    1  A    between atoms: C_1  and  C_2
REMARK    2  A    between atoms: C_11  and  N_12
REMARK    3  A    between atoms: C_13  and  C_15
REMARK    4  A    between atoms: C_18  and  C_19
REMARK    5  A    between atoms: C_19  and  N_20
REMARK                            x       y       z     vdW  Elec       q    Type
REMARK                         _______ _______ _______ _____ _____    ______ ____
ROOT
ATOM      1  N   UNL     1      -0.694  11.618  20.630  0.00  0.00    +0.000 N 
ATOM      2  C   UNL     1       0.000  11.320  19.471  0.00  0.00    +0.000 C 
ATOM      3  O   UNL     1       0.084  12.075  18.517  0.00  0.00    +0.000 OA
ATOM      4  H   UNL     1      -0.573  11.039  21.447  0.00  0.00    +0.000 HD
ENDROOT
BRANCH   1  15
ATOM      5  C   UNL     1      -7.038  12.143  20.918  0.00  0.00    +0.000 C 
ATOM      6  C   UNL     1      -5.553  12.328  20.884  0.00  0.00    +0.000 A 
ATOM      7  N   UNL     1      -4.927  12.210  19.701  0.00  0.00    +0.000 NA
ATOM      8  C   UNL     1      -3.592  12.395  19.708  0.00  0.00    +0.000 A 
ATOM      9  C   UNL     1      -2.860  12.688  20.842  0.00  0.00    +0.000 A 
ATOM     10  C   UNL     1      -3.597  12.772  22.014  0.00  0.00    +0.000 A 
ATOM     11  N   UNL     1      -4.938  12.602  22.048  0.00  0.00    +0.000 NA
ATOM     12  C   UNL     1      -2.951  13.135  23.327  0.00  0.00    +0.000 C 
ATOM     13  C   UNL     1      -1.435  12.972  23.306  0.00  0.00    +0.000 C 
ATOM     14  C   UNL     1      -0.871  13.630  22.047  0.00  0.00    +0.000 C 
ATOM     15  C   UNL     1      -1.371  12.896  20.792  0.00  0.00    +0.000 C 
ENDBRANCH   1  15
BRANCH   2  16
ATOM     16  C   UNL     1       0.693  10.006  19.454  0.00  0.00    +0.000 A 
ATOM     17  C   UNL     1       0.773   9.220  20.607  0.00  0.00    +0.000 A 
ATOM     18  C   UNL     1       1.484   8.023  20.593  0.00  0.00    +0.000 A 
ATOM     19  C   UNL     1       2.120   7.579  19.421  0.00  0.00    +0.000 A 
ATOM     20  C   UNL     1       1.984   8.344  18.248  0.00  0.00    +0.000 A 
ATOM     21  C   UNL     1       1.277   9.555  18.266  0.00  0.00    +0.000 A 
BRANCH  19  22
ATOM     22  C   UNL     1       2.954   6.318  19.459  0.00  0.00    +0.000 C 
BRANCH  22  23
ATOM     23  N   UNL     1       2.143   5.115  19.339  0.00  0.00    +0.000 N 
ATOM     24  C   UNL     1       1.517   4.450  20.358  0.00  0.00    +0.000 A 
ATOM     25  C   UNL     1       0.996   3.307  19.799  0.00  0.00    +0.000 A 
ATOM     26  C   UNL     1       1.275   3.423  18.426  0.00  0.00    +0.000 A 
ATOM     27  N   UNL     1       1.935   4.547  18.132  0.00  0.00    +0.000 NA
ENDBRANCH  22  23
ENDBRANCH  19  22
ENDBRANCH   2  16
TORSDOF 4
ENDMDL
MODEL 8
REMARK VINA RESULT:      -7.6      3.419      9.025
REMARK  Name = 
REMARK  5 active torsions:
REMARK  status: ('A' for Active; 'I' for Inactive)
REMARK    1  A    between atoms: C_1  and  C_2
REMARK    2  A    between atoms: C_11  and  N_12
REMARK    3  A    between atoms: C_13  and  C_15
REMARK    4  A    between atoms: C_18  and  C_19
REMARK    5  A    between atoms: C_19  and  N_20
REMARK                            x       y       z     vdW  Elec       q    Type
REMARK                         _______ _______ _______ _____ _____    ______ ____
ROOT
ATOM      1  N   UNL     1       0.498  10.530  18.906  0.00  0.00    +0.000 N 
ATOM      2  C   UNL     1       1.658  10.176  18.241  0.00  0.00    +0.000 C 
ATOM      3  O   UNL     1       2.255  10.915  17.476  0.00  0.00    +0.000 OA
ATOM      4  H   UNL     1       0.157   9.952  19.658  0.00  0.00    +0.000 HD
ENDROOT
BRANCH   1  15
ATOM      5  C   UNL     1      -5.677  11.430  17.614  0.00  0.00    +0.000 C 
ATOM      6  C   UNL     1      -4.213  11.529  17.910  0.00  0.00    +0.000 A 
ATOM      7  N   UNL     1      -3.347  11.210  16.933  0.00  0.00    +0.000 NA
ATOM      8  C   UNL     1      -2.037  11.323  17.233  0.00  0.00    +0.000 A 
ATOM      9  C   UNL     1      -1.560  11.734  18.463  0.00  0.00    +0.000 A 
ATOM     10  C   UNL     1      -2.535  12.022  19.406  0.00  0.00    +0.000 A 
ATOM     11  N   UNL     1      -3.858  11.932  19.143  0.00  0.00    +0.000 NA
ATOM     12  C   UNL     1      -2.176  12.533  20.779  0.00  0.00    +0.000 C 
ATOM     13  C   UNL     1      -0.714  12.287  21.138  0.00  0.00    +0.000 C 
ATOM     14  C   UNL     1       0.176  12.729  19.977  0.00  0.00    +0.000 C 
ATOM     15  C   UNL     1      -0.087  11.852  18.741  0.00  0.00    +0.000 C 
ENDBRANCH   1  15
BRANCH   2  16
ATOM     16  C   UNL     1       2.182   8.818  18.538  0.00  0.00    +0.000 A 
ATOM     17  C   UNL     1       3.040   8.167  17.646  0.00  0.00    +0.000 A 
ATOM     18  C   UNL     1       3.469   6.868  17.906  0.00  0.00    +0.000 A 
ATOM     19  C   UNL     1       3.058   6.195  19.070  0.00  0.00    +0.000 A 
ATOM     20  C   UNL     1       2.245   6.878  19.993  0.00  0.00    +0.000 A 
ATOM     21  C   UNL     1       1.805   8.182  19.726  0.00  0.00    +0.000 A 
BRANCH  19  22
ATOM     22  C   UNL     1       3.472   4.756  19.282  0.00  0.00    +0.000 C 
BRANCH  22  23
ATOM     23  N   UNL     1       2.423   3.965  19.907  0.00  0.00    +0.000 N 
ATOM     24  C   UNL     1       2.377   3.557  21.213  0.00  0.00    +0.000 A 
ATOM     25  C   UNL     1       1.288   2.724  21.311  0.00  0.00    +0.000 A 
ATOM     26  C   UNL     1       0.687   2.772  20.040  0.00  0.00    +0.000 A 
ATOM     27  N   UNL     1       1.350   3.563  19.192  0.00  0.00    +0.000 NA
ENDBRANCH  22  23
ENDBRANCH  19  22
ENDBRANCH   2  16
TORSDOF 4
ENDMDL
MODEL 9
REMARK VINA RESULT:      -7.6      3.458      9.053
REMARK  Name = 
REMARK  5 active torsions:
REMARK  status: ('A' for Active; 'I' for Inactive)
REMARK    1  A    between atoms: C_1  and  C_2
REMARK    2  A    between atoms: C_11  and  N_12
REMARK    3  A    between atoms: C_13  and  C_15
REMARK    4  A    between atoms: C_18  and  C_19
REMARK    5  A    between atoms: C_19  and  N_20
REMARK                            x       y       z     vdW  Elec       q    Type
REMARK                         _______ _______ _______ _____ _____    ______ ____
ROOT
ATOM      1  N   UNL     1       0.525  10.039  19.094  0.00  0.00    +0.000 N 
ATOM      2  C   UNL     1       1.546   9.366  18.445  0.00  0.00    +0.000 C 
ATOM      3  O   UNL     1       2.140   9.806  17.475  0.00  0.00    +0.000 OA
ATOM      4  H   UNL     1       0.203   9.711  19.992  0.00  0.00    +0.000 HD
ENDROOT
BRANCH   1  15
ATOM      5  C   UNL     1      -5.526  11.402  17.638  0.00  0.00    +0.000 C 
ATOM      6  C   UNL     1      -4.054  11.380  17.908  0.00  0.00    +0.000 A 
ATOM      7  N   UNL     1      -3.258  10.761  17.020  0.00  0.00    +0.000 NA
ATOM      8  C   UNL     1      -1.937  10.771  17.291  0.00  0.00    +0.000 A 
ATOM      9  C   UNL     1      -1.383  11.368  18.407  0.00  0.00    +0.000 A 
ATOM     10  C   UNL     1      -2.292  11.964  19.269  0.00  0.00    +0.000 A 
ATOM     11  N   UNL     1      -3.622  11.984  19.029  0.00  0.00    +0.000 NA
ATOM     12  C   UNL     1      -1.840  12.701  20.503  0.00  0.00    +0.000 C 
ATOM     13  C   UNL     1      -0.409  12.358  20.907  0.00  0.00    +0.000 C 
ATOM     14  C   UNL     1       0.498  12.436  19.680  0.00  0.00    +0.000 C 
ATOM     15  C   UNL     1       0.100  11.359  18.655  0.00  0.00    +0.000 C 
ENDBRANCH   1  15
BRANCH   2  16
ATOM     16  C   UNL     1       1.922   8.051  19.026  0.00  0.00    +0.000 A 
ATOM     17  C   UNL     1       2.614   7.102  18.268  0.00  0.00    +0.000 A 
ATOM     18  C   UNL     1       2.900   5.849  18.803  0.00  0.00    +0.000 A 
ATOM     19  C   UNL     1       2.510   5.522  20.114  0.00  0.00    +0.000 A 
ATOM     20  C   UNL     1       1.869   6.503  20.892  0.00  0.00    +0.000 A 
ATOM     21  C   UNL     1       1.572   7.761  20.349  0.00  0.00    +0.000 A 
BRANCH  19  22
ATOM     22  C   UNL     1       2.761   4.125  20.637  0.00  0.00    +0.000 C 
BRANCH  22  23
ATOM     23  N   UNL     1       2.821   3.138  19.570  0.00  0.00    +0.000 N 
ATOM     24  C   UNL     1       3.931   2.455  19.153  0.00  0.00    +0.000 A 
ATOM     25  C   UNL     1       3.544   1.748  18.040  0.00  0.00    +0.000 A 
ATOM     26  C   UNL     1       2.164   1.992  17.925  0.00  0.00    +0.000 A 
ATOM     27  N   UNL     1       1.708   2.804  18.882  0.00  0.00    +0.000 NA
ENDBRANCH  22  23
ENDBRANCH  19  22
ENDBRANCH   2  16
TORSDOF 4
ENDMDL
