MODEL 1
REMARK VINA RESULT:      -7.7      0.000      0.000
REMARK  Name = 
REMARK  3 active torsions:
REMARK  status: ('A' for Active; 'I' for Inactive)
REMARK    1  A    between atoms: C_1  and  N_2
REMARK    2  A    between atoms: N_9  and  N_10
REMARK    3  A    between atoms: N_10  and  C_11
REMARK                            x       y       z     vdW  Elec       q    Type
REMARK                         _______ _______ _______ _____ _____    ______ ____
ROOT
ATOM      1  C   UNL     1       7.115   4.754  14.926  0.00  0.00    +0.000 C 
ATOM      2  N   UNL     1       7.406   5.601  16.074  0.00  0.00    +0.000 NA
ATOM      3  C   UNL     1       7.404   4.921  17.374  0.00  0.00    +0.000 C 
ATOM      4  C   UNL     1       7.620   6.107  18.323  0.00  0.00    +0.000 C 
ATOM      5  C   UNL     1       7.029   7.307  17.585  0.00  0.00    +0.000 C 
ATOM      6  C   UNL     1       6.483   6.721  16.279  0.00  0.00    +0.000 C 
ATOM      7  C   UNL     1       5.028   6.283  16.444  0.00  0.00    +0.000 C 
ATOM      8  C   UNL     1       4.863   4.969  17.191  0.00  0.00    +0.000 C 
ATOM      9  N   UNL     1       3.648   4.519  17.289  0.00  0.00    +0.000 NA
ATOM     10  C   UNL     1       6.086   4.207  17.678  0.00  0.00    +0.000 C 
ENDROOT
BRANCH   9  11
ATOM     11  N   UNL     1       3.460   3.297  17.860  0.00  0.00    +0.000 N 
ATOM     12  H   UNL     1       4.205   2.606  17.826  0.00  0.00    +0.000 HD
BRANCH  11  13
ATOM     13  C   UNL     1       2.766   3.284  19.096  0.00  0.00    +0.000 A 
ATOM     14  C   UNL     1       1.496   3.865  19.207  0.00  0.00    +0.000 A 
ATOM     15  C   UNL     1       0.786   3.836  20.408  0.00  0.00    +0.000 A 
ATOM     16  C   UNL     1       1.338   3.199  21.522  0.00  0.00    +0.000 A 
ATOM     17  C   UNL     1       2.590   2.594  21.425  0.00  0.00    +0.000 A 
ATOM     18  C   UNL     1       3.296   2.626  20.221  0.00  0.00    +0.000 A 
ATOM     19 CL   UNL     1       4.850   1.872  20.153  0.00  0.00    +0.000 Cl
ENDBRANCH  11  13
ENDBRANCH   9  11
TORSDOF 2
ENDMDL
MODEL 2
REMARK VINA RESULT:      -7.4      2.071      6.163
REMARK  Name = 
REMARK  3 active torsions:
REMARK  status: ('A' for Active; 'I' for Inactive)
REMARK    1  A    between atoms: C_1  and  N_2
REMARK    2  A    between atoms: N_9  and  N_10
REMARK    3  A    between atoms: N_10  and  C_11
REMARK                            x       y       z     vdW  Elec       q    Type
REMARK                         _______ _______ _______ _____ _____    ______ ____
ROOT
ATOM      1  C   UNL     1       1.008   2.160  18.585  0.00  0.00    +0.000 C 
ATOM      2  N   UNL     1       1.139   3.068  19.716  0.00  0.00    +0.000 NA
ATOM      3  C   UNL     1       1.546   4.436  19.381  0.00  0.00    +0.000 C 
ATOM      4  C   UNL     1       1.696   5.047  20.780  0.00  0.00    +0.000 C 
ATOM      5  C   UNL     1       2.050   3.867  21.683  0.00  0.00    +0.000 C 
ATOM      6  C   UNL     1       2.115   2.666  20.733  0.00  0.00    +0.000 C 
ATOM      7  C   UNL     1       3.528   2.486  20.178  0.00  0.00    +0.000 C 
ATOM      8  C   UNL     1       3.886   3.472  19.078  0.00  0.00    +0.000 C 
ATOM      9  N   UNL     1       5.049   3.309  18.524  0.00  0.00    +0.000 NA
ATOM     10  C   UNL     1       2.867   4.500  18.611  0.00  0.00    +0.000 C 
ENDROOT
BRANCH   9  11
ATOM     11  N   UNL     1       5.374   4.102  17.465  0.00  0.00    +0.000 N 
ATOM     12  H   UNL     1       4.666   4.328  16.771  0.00  0.00    +0.000 HD
BRANCH  11  13
ATOM     13  C   UNL     1       6.229   5.197  17.744  0.00  0.00    +0.000 A 
ATOM     14  C   UNL     1       7.197   5.109  18.754  0.00  0.00    +0.000 A 
ATOM     15  C   UNL     1       8.066   6.167  19.022  0.00  0.00    +0.000 A 
ATOM     16  C   UNL     1       7.989   7.335  18.260  0.00  0.00    +0.000 A 
ATOM     17  C   UNL     1       7.049   7.434  17.236  0.00  0.00    +0.000 A 
ATOM     18  C   UNL     1       6.182   6.373  16.971  0.00  0.00    +0.000 A 
ATOM     19 CL   UNL     1       5.025   6.547  15.698  0.00  0.00    +0.000 Cl
ENDBRANCH  11  13
ENDBRANCH   9  11
TORSDOF 2
ENDMDL
MODEL 3
REMARK VINA RESULT:      -7.4      1.812      2.795
REMARK  Name = 
REMARK  3 active torsions:
REMARK  status: ('A' for Active; 'I' for Inactive)
REMARK    1  A    between atoms: C_1  and  N_2
REMARK    2  A    between atoms: N_9  and  N_10
REMARK    3  A    between atoms: N_10  and  C_11
REMARK                            x       y       z     vdW  Elec       q    Type
REMARK                         _______ _______ _______ _____ _____    ______ ____
ROOT
ATOM      1  C   UNL     1       7.605   7.336  17.672  0.00  0.00    +0.000 C 
ATOM      2  N   UNL     1       7.018   6.710  16.495  0.00  0.00    +0.000 NA
ATOM      3  C   UNL     1       5.552   6.664  16.472  0.00  0.00    +0.000 C 
ATOM      4  C   UNL     1       5.306   5.856  15.192  0.00  0.00    +0.000 C 
ATOM      5  C   UNL     1       6.545   4.977  15.044  0.00  0.00    +0.000 C 
ATOM      6  C   UNL     1       7.402   5.314  16.269  0.00  0.00    +0.000 C 
ATOM      7  C   UNL     1       7.061   4.396  17.442  0.00  0.00    +0.000 C 
ATOM      8  C   UNL     1       5.767   4.759  18.152  0.00  0.00    +0.000 C 
ATOM      9  N   UNL     1       5.476   4.053  19.202  0.00  0.00    +0.000 NA
ATOM     10  C   UNL     1       4.953   5.958  17.690  0.00  0.00    +0.000 C 
ENDROOT
BRANCH   9  11
ATOM     11  N   UNL     1       4.381   4.406  19.931  0.00  0.00    +0.000 N 
ATOM     12  H   UNL     1       4.226   5.383  20.164  0.00  0.00    +0.000 HD
BRANCH  11  13
ATOM     13  C   UNL     1       3.177   3.726  19.618  0.00  0.00    +0.000 A 
ATOM     14  C   UNL     1       3.207   2.448  19.043  0.00  0.00    +0.000 A 
ATOM     15  C   UNL     1       2.032   1.753  18.756  0.00  0.00    +0.000 A 
ATOM     16  C   UNL     1       0.796   2.327  19.064  0.00  0.00    +0.000 A 
ATOM     17  C   UNL     1       0.746   3.586  19.658  0.00  0.00    +0.000 A 
ATOM     18  C   UNL     1       1.924   4.278  19.943  0.00  0.00    +0.000 A 
ATOM     19 CL   UNL     1       1.810   5.843  20.671  0.00  0.00    +0.000 Cl
ENDBRANCH  11  13
ENDBRANCH   9  11
TORSDOF 2
ENDMDL
MODEL 4
REMARK VINA RESULT:      -7.3      1.752      2.745
REMARK  Name = 
REMARK  3 active torsions:
REMARK  status: ('A' for Active; 'I' for Inactive)
REMARK    1  A    between atoms: C_1  and  N_2
REMARK    2  A    between atoms: N_9  and  N_10
REMARK    3  A    between atoms: N_10  and  C_11
REMARK                            x       y       z     vdW  Elec       q    Type
REMARK                         _______ _______ _______ _____ _____    ______ ____
ROOT
ATOM      1  C   UNL     1       7.457   7.484  17.243  0.00  0.00    +0.000 C 
ATOM      2  N   UNL     1       7.033   6.494  16.262  0.00  0.00    +0.000 NA
ATOM      3  C   UNL     1       5.586   6.409  16.039  0.00  0.00    +0.000 C 
ATOM      4  C   UNL     1       5.509   5.221  15.072  0.00  0.00    +0.000 C 
ATOM      5  C   UNL     1       6.732   4.371  15.404  0.00  0.00    +0.000 C 
ATOM      6  C   UNL     1       7.408   5.110  16.564  0.00  0.00    +0.000 C 
ATOM      7  C   UNL     1       6.874   4.618  17.909  0.00  0.00    +0.000 C 
ATOM      8  C   UNL     1       5.499   5.164  18.261  0.00  0.00    +0.000 C 
ATOM      9  N   UNL     1       5.038   4.833  19.429  0.00  0.00    +0.000 NA
ATOM     10  C   UNL     1       4.795   6.127  17.318  0.00  0.00    +0.000 C 
ENDROOT
BRANCH   9  11
ATOM     11  N   UNL     1       3.857   5.380  19.832  0.00  0.00    +0.000 N 
ATOM     12  H   UNL     1       3.508   6.217  19.373  0.00  0.00    +0.000 HD
BRANCH  11  13
ATOM     13  C   UNL     1       2.822   4.467  20.151  0.00  0.00    +0.000 A 
ATOM     14  C   UNL     1       2.759   3.873  21.419  0.00  0.00    +0.000 A 
ATOM     15  C   UNL     1       1.730   2.994  21.759  0.00  0.00    +0.000 A 
ATOM     16  C   UNL     1       0.727   2.710  20.830  0.00  0.00    +0.000 A 
ATOM     17  C   UNL     1       0.759   3.308  19.572  0.00  0.00    +0.000 A 
ATOM     18  C   UNL     1       1.790   4.187  19.235  0.00  0.00    +0.000 A 
ATOM     19 CL   UNL     1       1.792   4.896  17.659  0.00  0.00    +0.000 Cl
ENDBRANCH  11  13
ENDBRANCH   9  11
TORSDOF 2
ENDMDL
MODEL 5
REMARK VINA RESULT:      -7.2      2.139      6.116
REMARK  Name = 
REMARK  3 active torsions:
REMARK  status: ('A' for Active; 'I' for Inactive)
REMARK    1  A    between atoms: C_1  and  N_2
REMARK    2  A    between atoms: N_9  and  N_10
REMARK    3  A    between atoms: N_10  and  C_11
REMARK                            x       y       z     vdW  Elec       q    Type
REMARK                         _______ _______ _______ _____ _____    ______ ____
ROOT
ATOM      1  C   UNL     1       2.232   2.141  17.702  0.00  0.00    +0.000 C 
ATOM      2  N   UNL     1       1.662   2.596  18.963  0.00  0.00    +0.000 NA
ATOM      3  C   UNL     1       1.603   4.051  19.138  0.00  0.00    +0.000 C 
ATOM      4  C   UNL     1       1.079   4.151  20.576  0.00  0.00    +0.000 C 
ATOM      5  C   UNL     1       1.561   2.870  21.254  0.00  0.00    +0.000 C 
ATOM      6  C   UNL     1       2.359   2.140  20.169  0.00  0.00    +0.000 C 
ATOM      7  C   UNL     1       3.831   2.549  20.207  0.00  0.00    +0.000 C 
ATOM      8  C   UNL     1       4.106   3.915  19.597  0.00  0.00    +0.000 C 
ATOM      9  N   UNL     1       5.353   4.272  19.539  0.00  0.00    +0.000 NA
ATOM     10  C   UNL     1       2.968   4.729  19.003  0.00  0.00    +0.000 C 
ENDROOT
BRANCH   9  11
ATOM     11  N   UNL     1       5.658   5.441  18.910  0.00  0.00    +0.000 N 
ATOM     12  H   UNL     1       6.276   6.109  19.363  0.00  0.00    +0.000 HD
BRANCH  11  13
ATOM     13  C   UNL     1       5.880   5.359  17.513  0.00  0.00    +0.000 A 
ATOM     14  C   UNL     1       6.766   4.410  16.985  0.00  0.00    +0.000 A 
ATOM     15  C   UNL     1       6.974   4.297  15.610  0.00  0.00    +0.000 A 
ATOM     16  C   UNL     1       6.275   5.129  14.734  0.00  0.00    +0.000 A 
ATOM     17  C   UNL     1       5.372   6.064  15.237  0.00  0.00    +0.000 A 
ATOM     18  C   UNL     1       5.167   6.174  16.614  0.00  0.00    +0.000 A 
ATOM     19 CL   UNL     1       4.046   7.356  17.192  0.00  0.00    +0.000 Cl
ENDBRANCH  11  13
ENDBRANCH   9  11
TORSDOF 2
ENDMDL
MODEL 6
REMARK VINA RESULT:      -7.2      2.104      5.962
REMARK  Name = 
REMARK  3 active torsions:
REMARK  status: ('A' for Active; 'I' for Inactive)
REMARK    1  A    between atoms: C_1  and  N_2
REMARK    2  A    between atoms: N_9  and  N_10
REMARK    3  A    between atoms: N_10  and  C_11
REMARK                            x       y       z     vdW  Elec       q    Type
REMARK                         _______ _______ _______ _____ _____    ______ ____
ROOT
ATOM      1  C   UNL     1       2.286   5.583  20.038  0.00  0.00    +0.000 C 
ATOM      2  N   UNL     1       1.804   4.213  19.923  0.00  0.00    +0.000 NA
ATOM      3  C   UNL     1       2.823   3.172  20.086  0.00  0.00    +0.000 C 
ATOM      4  C   UNL     1       2.002   1.911  19.790  0.00  0.00    +0.000 C 
ATOM      5  C   UNL     1       0.894   2.382  18.850  0.00  0.00    +0.000 C 
ATOM      6  C   UNL     1       1.177   3.874  18.643  0.00  0.00    +0.000 C 
ATOM      7  C   UNL     1       2.097   4.092  17.442  0.00  0.00    +0.000 C 
ATOM      8  C   UNL     1       3.558   3.776  17.722  0.00  0.00    +0.000 C 
ATOM      9  N   UNL     1       4.389   4.019  16.754  0.00  0.00    +0.000 NA
ATOM     10  C   UNL     1       3.988   3.311  19.105  0.00  0.00    +0.000 C 
ENDROOT
BRANCH   9  11
ATOM     11  N   UNL     1       5.719   3.849  16.990  0.00  0.00    +0.000 N 
ATOM     12  H   UNL     1       6.271   3.271  16.361  0.00  0.00    +0.000 HD
BRANCH  11  13
ATOM     13  C   UNL     1       6.426   4.992  17.436  0.00  0.00    +0.000 A 
ATOM     14  C   UNL     1       7.307   4.908  18.524  0.00  0.00    +0.000 A 
ATOM     15  C   UNL     1       8.034   6.018  18.957  0.00  0.00    +0.000 A 
ATOM     16  C   UNL     1       7.901   7.236  18.288  0.00  0.00    +0.000 A 
ATOM     17  C   UNL     1       7.048   7.335  17.190  0.00  0.00    +0.000 A 
ATOM     18  C   UNL     1       6.324   6.222  16.760  0.00  0.00    +0.000 A 
ATOM     19 CL   UNL     1       5.270   6.396  15.400  0.00  0.00    +0.000 Cl
ENDBRANCH  11  13
ENDBRANCH   9  11
TORSDOF 2
ENDMDL
MODEL 7
REMARK VINA RESULT:      -7.2      1.617      2.478
REMARK  Name = 
REMARK  3 active torsions:
REMARK  status: ('A' for Active; 'I' for Inactive)
REMARK    1  A    between atoms: C_1  and  N_2
REMARK    2  A    between atoms: N_9  and  N_10
REMARK    3  A    between atoms: N_10  and  C_11
REMARK                            x       y       z     vdW  Elec       q    Type
REMARK                         _______ _______ _______ _____ _____    ______ ____
ROOT
ATOM      1  C   UNL     1       3.912   7.053  17.585  0.00  0.00    +0.000 C 
ATOM      2  N   UNL     1       5.098   6.726  16.805  0.00  0.00    +0.000 NA
ATOM      3  C   UNL     1       5.084   5.407  16.165  0.00  0.00    +0.000 C 
ATOM      4  C   UNL     1       6.492   5.363  15.557  0.00  0.00    +0.000 C 
ATOM      5  C   UNL     1       7.334   6.259  16.464  0.00  0.00    +0.000 C 
ATOM      6  C   UNL     1       6.359   6.725  17.551  0.00  0.00    +0.000 C 
ATOM      7  C   UNL     1       6.361   5.759  18.735  0.00  0.00    +0.000 C 
ATOM      8  C   UNL     1       5.585   4.476  18.484  0.00  0.00    +0.000 C 
ATOM      9  N   UNL     1       5.495   3.659  19.489  0.00  0.00    +0.000 NA
ATOM     10  C   UNL     1       4.879   4.258  17.155  0.00  0.00    +0.000 C 
ENDROOT
BRANCH   9  11
ATOM     11  N   UNL     1       4.726   2.544  19.344  0.00  0.00    +0.000 N 
ATOM     12  H   UNL     1       5.133   1.627  19.507  0.00  0.00    +0.000 HD
BRANCH  11  13
ATOM     13  C   UNL     1       3.395   2.638  19.823  0.00  0.00    +0.000 A 
ATOM     14  C   UNL     1       3.138   2.989  21.155  0.00  0.00    +0.000 A 
ATOM     15  C   UNL     1       1.834   3.114  21.634  0.00  0.00    +0.000 A 
ATOM     16  C   UNL     1       0.756   2.905  20.771  0.00  0.00    +0.000 A 
ATOM     17  C   UNL     1       0.991   2.578  19.437  0.00  0.00    +0.000 A 
ATOM     18  C   UNL     1       2.297   2.454  18.961  0.00  0.00    +0.000 A 
ATOM     19 CL   UNL     1       2.537   2.035  17.301  0.00  0.00    +0.000 Cl
ENDBRANCH  11  13
ENDBRANCH   9  11
TORSDOF 2
ENDMDL
MODEL 8
REMARK VINA RESULT:      -7.1      1.248      1.680
REMARK  Name = 
REMARK  3 active torsions:
REMARK  status: ('A' for Active; 'I' for Inactive)
REMARK    1  A    between atoms: C_1  and  N_2
REMARK    2  A    between atoms: N_9  and  N_10
REMARK    3  A    between atoms: N_10  and  C_11
REMARK                            x       y       z     vdW  Elec       q    Type
REMARK                         _______ _______ _______ _____ _____    ______ ____
ROOT
ATOM      1  C   UNL     1       7.169   4.921  14.953  0.00  0.00    +0.000 C 
ATOM      2  N   UNL     1       7.458   5.753  16.113  0.00  0.00    +0.000 NA
ATOM      3  C   UNL     1       7.548   5.041  17.392  0.00  0.00    +0.000 C 
ATOM      4  C   UNL     1       7.734   6.212  18.365  0.00  0.00    +0.000 C 
ATOM      5  C   UNL     1       7.048   7.395  17.685  0.00  0.00    +0.000 C 
ATOM      6  C   UNL     1       6.483   6.812  16.385  0.00  0.00    +0.000 C 
ATOM      7  C   UNL     1       5.063   6.287  16.594  0.00  0.00    +0.000 C 
ATOM      8  C   UNL     1       5.002   4.947  17.310  0.00  0.00    +0.000 C 
ATOM      9  N   UNL     1       3.820   4.426  17.443  0.00  0.00    +0.000 NA
ATOM     10  C   UNL     1       6.285   4.245  17.727  0.00  0.00    +0.000 C 
ENDROOT
BRANCH   9  11
ATOM     11  N   UNL     1       3.725   3.180  17.986  0.00  0.00    +0.000 N 
ATOM     12  H   UNL     1       4.548   2.585  18.024  0.00  0.00    +0.000 HD
BRANCH  11  13
ATOM     13  C   UNL     1       2.917   3.064  19.145  0.00  0.00    +0.000 A 
ATOM     14  C   UNL     1       3.469   2.634  20.360  0.00  0.00    +0.000 A 
ATOM     15  C   UNL     1       2.695   2.542  21.516  0.00  0.00    +0.000 A 
ATOM     16  C   UNL     1       1.346   2.901  21.477  0.00  0.00    +0.000 A 
ATOM     17  C   UNL     1       0.784   3.354  20.285  0.00  0.00    +0.000 A 
ATOM     18  C   UNL     1       1.563   3.445  19.129  0.00  0.00    +0.000 A 
ATOM     19 CL   UNL     1       0.818   4.000  17.671  0.00  0.00    +0.000 Cl
ENDBRANCH  11  13
ENDBRANCH   9  11
TORSDOF 2
ENDMDL
MODEL 9
REMARK VINA RESULT:      -7.0      2.174      6.198
REMARK  Name = 
REMARK  3 active torsions:
REMARK  status: ('A' for Active; 'I' for Inactive)
REMARK    1  A    between atoms: C_1  and  N_2
REMARK    2  A    between atoms: N_9  and  N_10
REMARK    3  A    between atoms: N_10  and  C_11
REMARK                            x       y       z     vdW  Elec       q    Type
REMARK                         _______ _______ _______ _____ _____    ______ ____
ROOT
ATOM      1  C   UNL     1       1.905   2.071  17.955  0.00  0.00    +0.000 C 
ATOM      2  N   UNL     1       1.512   2.652  19.232  0.00  0.00    +0.000 NA
ATOM      3  C   UNL     1       1.558   4.116  19.298  0.00  0.00    +0.000 C 
ATOM      4  C   UNL     1       1.211   4.353  20.773  0.00  0.00    +0.000 C 
ATOM      5  C   UNL     1       1.694   3.094  21.491  0.00  0.00    +0.000 C 
ATOM      6  C   UNL     1       2.317   2.238  20.384  0.00  0.00    +0.000 C 
ATOM      7  C   UNL     1       3.805   2.550  20.226  0.00  0.00    +0.000 C 
ATOM      8  C   UNL     1       4.085   3.848  19.484  0.00  0.00    +0.000 C 
ATOM      9  N   UNL     1       5.336   4.117  19.260  0.00  0.00    +0.000 NA
ATOM     10  C   UNL     1       2.934   4.692  18.959  0.00  0.00    +0.000 C 
ENDROOT
BRANCH   9  11
ATOM     11  N   UNL     1       5.633   5.215  18.511  0.00  0.00    +0.000 N 
ATOM     12  H   UNL     1       6.141   5.988  18.933  0.00  0.00    +0.000 HD
BRANCH  11  13
ATOM     13  C   UNL     1       6.030   4.971  17.173  0.00  0.00    +0.000 A 
ATOM     14  C   UNL     1       5.482   3.903  16.449  0.00  0.00    +0.000 A 
ATOM     15  C   UNL     1       5.840   3.666  15.122  0.00  0.00    +0.000 A 
ATOM     16  C   UNL     1       6.747   4.517  14.487  0.00  0.00    +0.000 A 
ATOM     17  C   UNL     1       7.285   5.598  15.182  0.00  0.00    +0.000 A 
ATOM     18  C   UNL     1       6.924   5.832  16.510  0.00  0.00    +0.000 A 
ATOM     19 CL   UNL     1       7.626   7.180  17.334  0.00  0.00    +0.000 Cl
ENDBRANCH  11  13
ENDBRANCH   9  11
TORSDOF 2
ENDMDL
