MODEL 1
REMARK VINA RESULT:      -8.2      0.000      0.000
REMARK  Name = 
REMARK  13 active torsions:
REMARK  status: ('A' for Active; 'I' for Inactive)
REMARK    1  A    between atoms: C_1  and  O_2
REMARK    2  A    between atoms: O_2  and  C_3
REMARK    3  A    between atoms: C_6  and  C_7
REMARK    4  A    between atoms: C_8  and  C_9
REMARK    5  A    between atoms: C_11  and  O_12
REMARK    6  A    between atoms: O_12  and  C_13
REMARK    7  A    between atoms: C_14  and  O_15
REMARK    8  A    between atoms: O_15  and  C_16
REMARK    9  A    between atoms: C_17  and  O_18
REMARK   10  A    between atoms: O_18  and  C_19
REMARK   11  A    between atoms: C_26  and  O_27
REMARK   12  A    between atoms: O_27  and  C_28
REMARK   13  A    between atoms: C_28  and  C_29
REMARK                            x       y       z     vdW  Elec       q    Type
REMARK                         _______ _______ _______ _____ _____    ______ ____
ROOT
ATOM      1  C   UNL     1       3.724   4.815  18.852  0.00  0.00    +0.000 C 
ATOM      2  C   UNL     1       2.876   5.517  19.632  0.00  0.00    +0.000 C 
ATOM      3  C   UNL     1       2.614   4.377  20.506  0.00  0.00    +0.000 C 
ATOM      4  O   UNL     1       1.982   4.098  21.492  0.00  0.00    +0.000 OA
ATOM      5  C   UNL     1       3.501   3.577  19.594  0.00  0.00    +0.000 C 
ATOM      6  O   UNL     1       3.851   2.425  19.590  0.00  0.00    +0.000 OA
ENDROOT
BRANCH   1  10
ATOM      7  C   UNL     1       6.529   5.323  15.669  0.00  0.00    +0.000 A 
ATOM      8  C   UNL     1       5.514   4.359  15.593  0.00  0.00    +0.000 A 
ATOM      9  C   UNL     1       4.583   4.200  16.617  0.00  0.00    +0.000 A 
ATOM     10  C   UNL     1       4.654   5.028  17.729  0.00  0.00    +0.000 A 
ATOM     11  C   UNL     1       5.640   6.023  17.815  0.00  0.00    +0.000 A 
ATOM     12  C   UNL     1       6.583   6.167  16.790  0.00  0.00    +0.000 A 
BRANCH   7  14
ATOM     13  C   UNL     1       7.011   4.485  13.477  0.00  0.00    +0.000 C 
ATOM     14  O   UNL     1       7.384   5.258  14.604  0.00  0.00    +0.000 OA
ENDBRANCH   7  14
BRANCH  12  15
ATOM     15  O   UNL     1       7.639   7.121  16.869  0.00  0.00    +0.000 OA
BRANCH  15  16
ATOM     16  C   UNL     1       8.125   7.808  17.987  0.00  0.00    +0.000 C 
ATOM     17  C   UNL     1       8.034   9.289  17.744  0.00  0.00    +0.000 C 
ATOM     18  O   UNL     1       8.576   7.311  19.007  0.00  0.00    +0.000 OA
ENDBRANCH  15  16
ENDBRANCH  12  15
ENDBRANCH   1  10
BRANCH   2  19
ATOM     19  C   UNL     1       2.267   6.851  19.657  0.00  0.00    +0.000 A 
ATOM     20  C   UNL     1       1.445   7.172  20.731  0.00  0.00    +0.000 A 
ATOM     21  C   UNL     1       0.802   8.401  20.793  0.00  0.00    +0.000 A 
ATOM     22  C   UNL     1       0.928   9.307  19.718  0.00  0.00    +0.000 A 
ATOM     23  C   UNL     1       1.781   8.987  18.633  0.00  0.00    +0.000 A 
ATOM     24  C   UNL     1       2.491   7.777  18.645  0.00  0.00    +0.000 A 
BRANCH  21  25
ATOM     25  O   UNL     1       0.018   8.765  21.865  0.00  0.00    +0.000 OA
ATOM     26  C   UNL     1       0.702   9.400  22.947  0.00  0.00    +0.000 C 
ENDBRANCH  21  25
BRANCH  22  27
ATOM     27  O   UNL     1       0.120  10.416  19.809  0.00  0.00    +0.000 OA
ATOM     28  C   UNL     1      -1.089  10.412  19.068  0.00  0.00    +0.000 C 
ENDBRANCH  22  27
BRANCH  23  29
ATOM     29  O   UNL     1       1.840   9.859  17.575  0.00  0.00    +0.000 OA
ATOM     30  C   UNL     1       2.422  11.140  17.788  0.00  0.00    +0.000 C 
ENDBRANCH  23  29
ENDBRANCH   2  19
TORSDOF 8
ENDMDL
MODEL 2
REMARK VINA RESULT:      -7.9      1.428      7.285
REMARK  Name = 
REMARK  13 active torsions:
REMARK  status: ('A' for Active; 'I' for Inactive)
REMARK    1  A    between atoms: C_1  and  O_2
REMARK    2  A    between atoms: O_2  and  C_3
REMARK    3  A    between atoms: C_6  and  C_7
REMARK    4  A    between atoms: C_8  and  C_9
REMARK    5  A    between atoms: C_11  and  O_12
REMARK    6  A    between atoms: O_12  and  C_13
REMARK    7  A    between atoms: C_14  and  O_15
REMARK    8  A    between atoms: O_15  and  C_16
REMARK    9  A    between atoms: C_17  and  O_18
REMARK   10  A    between atoms: O_18  and  C_19
REMARK   11  A    between atoms: C_26  and  O_27
REMARK   12  A    between atoms: O_27  and  C_28
REMARK   13  A    between atoms: C_28  and  C_29
REMARK                            x       y       z     vdW  Elec       q    Type
REMARK                         _______ _______ _______ _____ _____    ______ ____
ROOT
ATOM      1  C   UNL     1       2.750   4.887  18.291  0.00  0.00    +0.000 C 
ATOM      2  C   UNL     1       3.626   4.186  17.542  0.00  0.00    +0.000 C 
ATOM      3  C   UNL     1       3.051   2.902  17.932  0.00  0.00    +0.000 C 
ATOM      4  O   UNL     1       3.195   1.725  17.722  0.00  0.00    +0.000 OA
ATOM      5  C   UNL     1       2.122   3.680  18.821  0.00  0.00    +0.000 C 
ATOM      6  O   UNL     1       1.242   3.355  19.576  0.00  0.00    +0.000 OA
ENDROOT
BRANCH   1  10
ATOM      7  C   UNL     1       1.780   8.978  19.053  0.00  0.00    +0.000 A 
ATOM      8  C   UNL     1       1.981   8.513  17.745  0.00  0.00    +0.000 A 
ATOM      9  C   UNL     1       2.277   7.176  17.486  0.00  0.00    +0.000 A 
ATOM     10  C   UNL     1       2.358   6.284  18.546  0.00  0.00    +0.000 A 
ATOM     11  C   UNL     1       2.129   6.718  19.861  0.00  0.00    +0.000 A 
ATOM     12  C   UNL     1       1.848   8.066  20.117  0.00  0.00    +0.000 A 
BRANCH   7  14
ATOM     13  C   UNL     1       0.329  10.852  18.700  0.00  0.00    +0.000 C 
ATOM     14  O   UNL     1       1.586  10.331  19.094  0.00  0.00    +0.000 OA
ENDBRANCH   7  14
BRANCH  12  15
ATOM     15  O   UNL     1       1.674   8.559  21.443  0.00  0.00    +0.000 OA
BRANCH  15  16
ATOM     16  C   UNL     1       0.594   9.264  21.987  0.00  0.00    +0.000 C 
ATOM     17  C   UNL     1      -0.657   8.437  21.866  0.00  0.00    +0.000 C 
ATOM     18  O   UNL     1       0.627  10.383  22.473  0.00  0.00    +0.000 OA
ENDBRANCH  15  16
ENDBRANCH  12  15
ENDBRANCH   1  10
BRANCH   2  19
ATOM     19  C   UNL     1       4.809   4.447  16.715  0.00  0.00    +0.000 A 
ATOM     20  C   UNL     1       5.662   5.474  17.103  0.00  0.00    +0.000 A 
ATOM     21  C   UNL     1       6.774   5.802  16.339  0.00  0.00    +0.000 A 
ATOM     22  C   UNL     1       7.002   5.133  15.118  0.00  0.00    +0.000 A 
ATOM     23  C   UNL     1       6.144   4.073  14.734  0.00  0.00    +0.000 A 
ATOM     24  C   UNL     1       5.083   3.702  15.574  0.00  0.00    +0.000 A 
BRANCH  21  25
ATOM     25  O   UNL     1       7.662   6.784  16.722  0.00  0.00    +0.000 OA
ATOM     26  C   UNL     1       7.815   6.967  18.130  0.00  0.00    +0.000 C 
ENDBRANCH  21  25
BRANCH  22  27
ATOM     27  O   UNL     1       8.033   5.649  14.369  0.00  0.00    +0.000 OA
ATOM     28  C   UNL     1       7.946   5.524  12.958  0.00  0.00    +0.000 C 
ENDBRANCH  22  27
BRANCH  23  29
ATOM     29  O   UNL     1       6.354   3.478  13.515  0.00  0.00    +0.000 OA
ATOM     30  C   UNL     1       5.271   3.431  12.591  0.00  0.00    +0.000 C 
ENDBRANCH  23  29
ENDBRANCH   2  19
TORSDOF 8
ENDMDL
MODEL 3
REMARK VINA RESULT:      -7.8      0.594      2.212
REMARK  Name = 
REMARK  13 active torsions:
REMARK  status: ('A' for Active; 'I' for Inactive)
REMARK    1  A    between atoms: C_1  and  O_2
REMARK    2  A    between atoms: O_2  and  C_3
REMARK    3  A    between atoms: C_6  and  C_7
REMARK    4  A    between atoms: C_8  and  C_9
REMARK    5  A    between atoms: C_11  and  O_12
REMARK    6  A    between atoms: O_12  and  C_13
REMARK    7  A    between atoms: C_14  and  O_15
REMARK    8  A    between atoms: O_15  and  C_16
REMARK    9  A    between atoms: C_17  and  O_18
REMARK   10  A    between atoms: O_18  and  C_19
REMARK   11  A    between atoms: C_26  and  O_27
REMARK   12  A    between atoms: O_27  and  C_28
REMARK   13  A    between atoms: C_28  and  C_29
REMARK                            x       y       z     vdW  Elec       q    Type
REMARK                         _______ _______ _______ _____ _____    ______ ____
ROOT
ATOM      1  C   UNL     1       3.357   4.850  18.896  0.00  0.00    +0.000 C 
ATOM      2  C   UNL     1       2.566   5.516  19.763  0.00  0.00    +0.000 C 
ATOM      3  C   UNL     1       2.280   4.316  20.544  0.00  0.00    +0.000 C 
ATOM      4  O   UNL     1       1.668   3.978  21.525  0.00  0.00    +0.000 OA
ATOM      5  C   UNL     1       3.103   3.562  19.537  0.00  0.00    +0.000 C 
ATOM      6  O   UNL     1       3.400   2.402  19.421  0.00  0.00    +0.000 OA
ENDROOT
BRANCH   1  10
ATOM      7  C   UNL     1       6.094   5.540  15.688  0.00  0.00    +0.000 A 
ATOM      8  C   UNL     1       5.164   4.491  15.634  0.00  0.00    +0.000 A 
ATOM      9  C   UNL     1       4.255   4.272  16.667  0.00  0.00    +0.000 A 
ATOM     10  C   UNL     1       4.260   5.122  17.764  0.00  0.00    +0.000 A 
ATOM     11  C   UNL     1       5.158   6.198  17.827  0.00  0.00    +0.000 A 
ATOM     12  C   UNL     1       6.081   6.404  16.794  0.00  0.00    +0.000 A 
BRANCH   7  14
ATOM     13  C   UNL     1       6.887   4.442  13.711  0.00  0.00    +0.000 C 
ATOM     14  O   UNL     1       6.946   5.528  14.619  0.00  0.00    +0.000 OA
ENDBRANCH   7  14
BRANCH  12  15
ATOM     15  O   UNL     1       7.052   7.445  16.850  0.00  0.00    +0.000 OA
BRANCH  15  16
ATOM     16  C   UNL     1       7.893   7.811  17.908  0.00  0.00    +0.000 C 
ATOM     17  C   UNL     1       8.156   9.291  17.850  0.00  0.00    +0.000 C 
ATOM     18  O   UNL     1       8.369   7.065  18.749  0.00  0.00    +0.000 OA
ENDBRANCH  15  16
ENDBRANCH  12  15
ENDBRANCH   1  10
BRANCH   2  19
ATOM     19  C   UNL     1       2.018   6.867  19.924  0.00  0.00    +0.000 A 
ATOM     20  C   UNL     1       1.994   7.698  18.810  0.00  0.00    +0.000 A 
ATOM     21  C   UNL     1       1.530   9.003  18.906  0.00  0.00    +0.000 A 
ATOM     22  C   UNL     1       1.145   9.515  20.163  0.00  0.00    +0.000 A 
ATOM     23  C   UNL     1       1.151   8.661  21.294  0.00  0.00    +0.000 A 
ATOM     24  C   UNL     1       1.535   7.320  21.147  0.00  0.00    +0.000 A 
BRANCH  21  25
ATOM     25  O   UNL     1       1.453   9.835  17.810  0.00  0.00    +0.000 OA
ATOM     26  C   UNL     1       2.469  10.835  17.718  0.00  0.00    +0.000 C 
ENDBRANCH  21  25
BRANCH  22  27
ATOM     27  O   UNL     1       0.862  10.860  20.169  0.00  0.00    +0.000 OA
ATOM     28  C   UNL     1      -0.493  11.247  19.998  0.00  0.00    +0.000 C 
ENDBRANCH  22  27
BRANCH  23  29
ATOM     29  O   UNL     1       0.827   9.199  22.515  0.00  0.00    +0.000 OA
ATOM     30  C   UNL     1      -0.543   9.216  22.903  0.00  0.00    +0.000 C 
ENDBRANCH  23  29
ENDBRANCH   2  19
TORSDOF 8
ENDMDL
MODEL 4
REMARK VINA RESULT:      -7.8      1.129      7.383
REMARK  Name = 
REMARK  13 active torsions:
REMARK  status: ('A' for Active; 'I' for Inactive)
REMARK    1  A    between atoms: C_1  and  O_2
REMARK    2  A    between atoms: O_2  and  C_3
REMARK    3  A    between atoms: C_6  and  C_7
REMARK    4  A    between atoms: C_8  and  C_9
REMARK    5  A    between atoms: C_11  and  O_12
REMARK    6  A    between atoms: O_12  and  C_13
REMARK    7  A    between atoms: C_14  and  O_15
REMARK    8  A    between atoms: O_15  and  C_16
REMARK    9  A    between atoms: C_17  and  O_18
REMARK   10  A    between atoms: O_18  and  C_19
REMARK   11  A    between atoms: C_26  and  O_27
REMARK   12  A    between atoms: O_27  and  C_28
REMARK   13  A    between atoms: C_28  and  C_29
REMARK                            x       y       z     vdW  Elec       q    Type
REMARK                         _______ _______ _______ _____ _____    ______ ____
ROOT
ATOM      1  C   UNL     1       2.820   5.566  18.835  0.00  0.00    +0.000 C 
ATOM      2  C   UNL     1       3.703   4.810  18.150  0.00  0.00    +0.000 C 
ATOM      3  C   UNL     1       3.282   3.580  18.813  0.00  0.00    +0.000 C 
ATOM      4  O   UNL     1       3.523   2.400  18.806  0.00  0.00    +0.000 OA
ATOM      5  C   UNL     1       2.350   4.433  19.627  0.00  0.00    +0.000 C 
ATOM      6  O   UNL     1       1.562   4.185  20.502  0.00  0.00    +0.000 OA
ENDROOT
BRANCH   1  10
ATOM      7  C   UNL     1       1.517   9.633  18.977  0.00  0.00    +0.000 A 
ATOM      8  C   UNL     1       1.963   9.057  17.779  0.00  0.00    +0.000 A 
ATOM      9  C   UNL     1       2.370   7.726  17.719  0.00  0.00    +0.000 A 
ATOM     10  C   UNL     1       2.316   6.950  18.869  0.00  0.00    +0.000 A 
ATOM     11  C   UNL     1       1.842   7.494  20.073  0.00  0.00    +0.000 A 
ATOM     12  C   UNL     1       1.449   8.836  20.131  0.00  0.00    +0.000 A 
BRANCH   7  14
ATOM     13  C   UNL     1       2.239  11.810  18.283  0.00  0.00    +0.000 C 
ATOM     14  O   UNL     1       1.246  10.966  18.839  0.00  0.00    +0.000 OA
ENDBRANCH   7  14
BRANCH  12  15
ATOM     15  O   UNL     1       1.024   9.443  21.348  0.00  0.00    +0.000 OA
BRANCH  15  16
ATOM     16  C   UNL     1      -0.182   9.283  22.039  0.00  0.00    +0.000 C 
ATOM     17  C   UNL     1      -0.587  10.596  22.652  0.00  0.00    +0.000 C 
ATOM     18  O   UNL     1      -0.820   8.249  22.160  0.00  0.00    +0.000 OA
ENDBRANCH  15  16
ENDBRANCH  12  15
ENDBRANCH   1  10
BRANCH   2  19
ATOM     19  C   UNL     1       4.794   5.007  17.189  0.00  0.00    +0.000 A 
ATOM     20  C   UNL     1       4.900   4.111  16.131  0.00  0.00    +0.000 A 
ATOM     21  C   UNL     1       5.936   4.215  15.212  0.00  0.00    +0.000 A 
ATOM     22  C   UNL     1       6.932   5.198  15.394  0.00  0.00    +0.000 A 
ATOM     23  C   UNL     1       6.812   6.122  16.461  0.00  0.00    +0.000 A 
ATOM     24  C   UNL     1       5.703   6.051  17.317  0.00  0.00    +0.000 A 
BRANCH  21  25
ATOM     25  O   UNL     1       6.042   3.370  14.129  0.00  0.00    +0.000 OA
ATOM     26  C   UNL     1       5.194   3.673  13.020  0.00  0.00    +0.000 C 
ENDBRANCH  21  25
BRANCH  22  27
ATOM     27  O   UNL     1       7.992   5.103  14.523  0.00  0.00    +0.000 OA
ATOM     28  C   UNL     1       7.857   5.724  13.255  0.00  0.00    +0.000 C 
ENDBRANCH  22  27
BRANCH  23  29
ATOM     29  O   UNL     1       7.824   7.031  16.649  0.00  0.00    +0.000 OA
ATOM     30  C   UNL     1       7.609   8.100  17.565  0.00  0.00    +0.000 C 
ENDBRANCH  23  29
ENDBRANCH   2  19
TORSDOF 8
ENDMDL
MODEL 5
REMARK VINA RESULT:      -7.8      1.008      1.242
REMARK  Name = 
REMARK  13 active torsions:
REMARK  status: ('A' for Active; 'I' for Inactive)
REMARK    1  A    between atoms: C_1  and  O_2
REMARK    2  A    between atoms: O_2  and  C_3
REMARK    3  A    between atoms: C_6  and  C_7
REMARK    4  A    between atoms: C_8  and  C_9
REMARK    5  A    between atoms: C_11  and  O_12
REMARK    6  A    between atoms: O_12  and  C_13
REMARK    7  A    between atoms: C_14  and  O_15
REMARK    8  A    between atoms: O_15  and  C_16
REMARK    9  A    between atoms: C_17  and  O_18
REMARK   10  A    between atoms: O_18  and  C_19
REMARK   11  A    between atoms: C_26  and  O_27
REMARK   12  A    between atoms: O_27  and  C_28
REMARK   13  A    between atoms: C_28  and  C_29
REMARK                            x       y       z     vdW  Elec       q    Type
REMARK                         _______ _______ _______ _____ _____    ______ ____
ROOT
ATOM      1  C   UNL     1       3.196   4.938  18.725  0.00  0.00    +0.000 C 
ATOM      2  C   UNL     1       2.401   5.649  19.552  0.00  0.00    +0.000 C 
ATOM      3  C   UNL     1       1.914   4.455  20.236  0.00  0.00    +0.000 C 
ATOM      4  O   UNL     1       1.177   4.145  21.137  0.00  0.00    +0.000 OA
ATOM      5  C   UNL     1       2.744   3.660  19.267  0.00  0.00    +0.000 C 
ATOM      6  O   UNL     1       2.925   2.480  19.115  0.00  0.00    +0.000 OA
ENDROOT
BRANCH   1  10
ATOM      7  C   UNL     1       6.301   5.501  15.844  0.00  0.00    +0.000 A 
ATOM      8  C   UNL     1       5.493   4.355  15.823  0.00  0.00    +0.000 A 
ATOM      9  C   UNL     1       4.465   4.173  16.746  0.00  0.00    +0.000 A 
ATOM     10  C   UNL     1       4.226   5.158  17.695  0.00  0.00    +0.000 A 
ATOM     11  C   UNL     1       5.000   6.329  17.717  0.00  0.00    +0.000 A 
ATOM     12  C   UNL     1       6.042   6.499  16.797  0.00  0.00    +0.000 A 
BRANCH   7  14
ATOM     13  C   UNL     1       7.080   4.711  13.721  0.00  0.00    +0.000 C 
ATOM     14  O   UNL     1       7.300   5.444  14.912  0.00  0.00    +0.000 OA
ENDBRANCH   7  14
BRANCH  12  15
ATOM     15  O   UNL     1       6.891   7.643  16.827  0.00  0.00    +0.000 OA
BRANCH  15  16
ATOM     16  C   UNL     1       7.810   8.033  17.807  0.00  0.00    +0.000 C 
ATOM     17  C   UNL     1       8.156   6.851  18.670  0.00  0.00    +0.000 C 
ATOM     18  O   UNL     1       8.265   9.154  17.974  0.00  0.00    +0.000 OA
ENDBRANCH  15  16
ENDBRANCH  12  15
ENDBRANCH   1  10
BRANCH   2  19
ATOM     19  C   UNL     1       1.988   7.045  19.736  0.00  0.00    +0.000 A 
ATOM     20  C   UNL     1       1.870   7.523  21.036  0.00  0.00    +0.000 A 
ATOM     21  C   UNL     1       1.440   8.820  21.281  0.00  0.00    +0.000 A 
ATOM     22  C   UNL     1       1.050   9.640  20.200  0.00  0.00    +0.000 A 
ATOM     23  C   UNL     1       1.189   9.158  18.875  0.00  0.00    +0.000 A 
ATOM     24  C   UNL     1       1.716   7.877  18.656  0.00  0.00    +0.000 A 
BRANCH  21  25
ATOM     25  O   UNL     1       1.356   9.337  22.555  0.00  0.00    +0.000 OA
ATOM     26  C   UNL     1       0.056   9.318  23.147  0.00  0.00    +0.000 C 
ENDBRANCH  21  25
BRANCH  22  27
ATOM     27  O   UNL     1       0.487  10.840  20.568  0.00  0.00    +0.000 OA
ATOM     28  C   UNL     1       1.281  12.007  20.428  0.00  0.00    +0.000 C 
ENDBRANCH  22  27
BRANCH  23  29
ATOM     29  O   UNL     1       0.749   9.953  17.846  0.00  0.00    +0.000 OA
ATOM     30  C   UNL     1      -0.654  10.059  17.627  0.00  0.00    +0.000 C 
ENDBRANCH  23  29
ENDBRANCH   2  19
TORSDOF 8
ENDMDL
MODEL 6
REMARK VINA RESULT:      -7.2      1.078      7.172
REMARK  Name = 
REMARK  13 active torsions:
REMARK  status: ('A' for Active; 'I' for Inactive)
REMARK    1  A    between atoms: C_1  and  O_2
REMARK    2  A    between atoms: O_2  and  C_3
REMARK    3  A    between atoms: C_6  and  C_7
REMARK    4  A    between atoms: C_8  and  C_9
REMARK    5  A    between atoms: C_11  and  O_12
REMARK    6  A    between atoms: O_12  and  C_13
REMARK    7  A    between atoms: C_14  and  O_15
REMARK    8  A    between atoms: O_15  and  C_16
REMARK    9  A    between atoms: C_17  and  O_18
REMARK   10  A    between atoms: O_18  and  C_19
REMARK   11  A    between atoms: C_26  and  O_27
REMARK   12  A    between atoms: O_27  and  C_28
REMARK   13  A    between atoms: C_28  and  C_29
REMARK                            x       y       z     vdW  Elec       q    Type
REMARK                         _______ _______ _______ _____ _____    ______ ____
ROOT
ATOM      1  C   UNL     1       3.335   5.017  19.263  0.00  0.00    +0.000 C 
ATOM      2  C   UNL     1       4.251   4.327  18.551  0.00  0.00    +0.000 C 
ATOM      3  C   UNL     1       4.088   3.124  19.361  0.00  0.00    +0.000 C 
ATOM      4  O   UNL     1       4.503   1.995  19.430  0.00  0.00    +0.000 OA
ATOM      5  C   UNL     1       3.121   3.915  20.197  0.00  0.00    +0.000 C 
ATOM      6  O   UNL     1       2.470   3.649  21.174  0.00  0.00    +0.000 OA
ENDROOT
BRANCH   1  10
ATOM      7  C   UNL     1       1.436   8.845  19.256  0.00  0.00    +0.000 A 
ATOM      8  C   UNL     1       2.208   8.417  18.165  0.00  0.00    +0.000 A 
ATOM      9  C   UNL     1       2.814   7.162  18.151  0.00  0.00    +0.000 A 
ATOM     10  C   UNL     1       2.633   6.312  19.233  0.00  0.00    +0.000 A 
ATOM     11  C   UNL     1       1.838   6.703  20.322  0.00  0.00    +0.000 A 
ATOM     12  C   UNL     1       1.245   7.971  20.338  0.00  0.00    +0.000 A 
BRANCH   7  14
ATOM     13  C   UNL     1       1.858  11.070  18.475  0.00  0.00    +0.000 C 
ATOM     14  O   UNL     1       1.004  10.133  19.107  0.00  0.00    +0.000 OA
ENDBRANCH   7  14
BRANCH  12  15
ATOM     15  O   UNL     1       0.486   8.431  21.452  0.00  0.00    +0.000 OA
BRANCH  15  16
ATOM     16  C   UNL     1       0.867   9.302  22.481  0.00  0.00    +0.000 C 
ATOM     17  C   UNL     1      -0.360   9.911  23.103  0.00  0.00    +0.000 C 
ATOM     18  O   UNL     1       2.008   9.561  22.828  0.00  0.00    +0.000 OA
ENDBRANCH  15  16
ENDBRANCH  12  15
ENDBRANCH   1  10
BRANCH   2  19
ATOM     19  C   UNL     1       5.199   4.577  17.460  0.00  0.00    +0.000 A 
ATOM     20  C   UNL     1       6.061   5.660  17.581  0.00  0.00    +0.000 A 
ATOM     21  C   UNL     1       6.952   5.978  16.564  0.00  0.00    +0.000 A 
ATOM     22  C   UNL     1       6.931   5.236  15.364  0.00  0.00    +0.000 A 
ATOM     23  C   UNL     1       6.066   4.120  15.249  0.00  0.00    +0.000 A 
ATOM     24  C   UNL     1       5.246   3.766  16.331  0.00  0.00    +0.000 A 
BRANCH  21  25
ATOM     25  O   UNL     1       7.849   7.018  16.673  0.00  0.00    +0.000 OA
ATOM     26  C   UNL     1       7.776   7.775  17.883  0.00  0.00    +0.000 C 
ENDBRANCH  21  25
BRANCH  22  27
ATOM     27  O   UNL     1       7.736   5.739  14.368  0.00  0.00    +0.000 OA
ATOM     28  C   UNL     1       8.050   4.882  13.282  0.00  0.00    +0.000 C 
ENDBRANCH  22  27
BRANCH  23  29
ATOM     29  O   UNL     1       6.025   3.451  14.052  0.00  0.00    +0.000 OA
ATOM     30  C   UNL     1       5.019   3.811  13.111  0.00  0.00    +0.000 C 
ENDBRANCH  23  29
ENDBRANCH   2  19
TORSDOF 8
ENDMDL
MODEL 7
REMARK VINA RESULT:      -7.2      2.752      8.489
REMARK  Name = 
REMARK  13 active torsions:
REMARK  status: ('A' for Active; 'I' for Inactive)
REMARK    1  A    between atoms: C_1  and  O_2
REMARK    2  A    between atoms: O_2  and  C_3
REMARK    3  A    between atoms: C_6  and  C_7
REMARK    4  A    between atoms: C_8  and  C_9
REMARK    5  A    between atoms: C_11  and  O_12
REMARK    6  A    between atoms: O_12  and  C_13
REMARK    7  A    between atoms: C_14  and  O_15
REMARK    8  A    between atoms: O_15  and  C_16
REMARK    9  A    between atoms: C_17  and  O_18
REMARK   10  A    between atoms: O_18  and  C_19
REMARK   11  A    between atoms: C_26  and  O_27
REMARK   12  A    between atoms: O_27  and  C_28
REMARK   13  A    between atoms: C_28  and  C_29
REMARK                            x       y       z     vdW  Elec       q    Type
REMARK                         _______ _______ _______ _____ _____    ______ ____
ROOT
ATOM      1  C   UNL     1       0.122   9.917  20.255  0.00  0.00    +0.000 C 
ATOM      2  C   UNL     1       1.035   8.981  20.590  0.00  0.00    +0.000 C 
ATOM      3  C   UNL     1       1.315   9.604  21.880  0.00  0.00    +0.000 C 
ATOM      4  O   UNL     1       1.995   9.431  22.859  0.00  0.00    +0.000 OA
ATOM      5  C   UNL     1       0.352  10.685  21.476  0.00  0.00    +0.000 C 
ATOM      6  O   UNL     1      -0.031  11.689  22.018  0.00  0.00    +0.000 OA
ENDROOT
BRANCH   1  10
ATOM      7  C   UNL     1      -2.650  10.866  17.146  0.00  0.00    +0.000 A 
ATOM      8  C   UNL     1      -1.551  10.028  16.906  0.00  0.00    +0.000 A 
ATOM      9  C   UNL     1      -0.653   9.698  17.918  0.00  0.00    +0.000 A 
ATOM     10  C   UNL     1      -0.864  10.195  19.197  0.00  0.00    +0.000 A 
ATOM     11  C   UNL     1      -1.975  11.008  19.471  0.00  0.00    +0.000 A 
ATOM     12  C   UNL     1      -2.865  11.351  18.446  0.00  0.00    +0.000 A 
BRANCH   7  14
ATOM     13  C   UNL     1      -3.112  10.342  14.854  0.00  0.00    +0.000 C 
ATOM     14  O   UNL     1      -3.354  11.132  16.004  0.00  0.00    +0.000 OA
ENDBRANCH   7  14
BRANCH  12  15
ATOM     15  O   UNL     1      -3.967  12.226  18.668  0.00  0.00    +0.000 OA
BRANCH  15  16
ATOM     16  C   UNL     1      -5.307  11.909  18.920  0.00  0.00    +0.000 C 
ATOM     17  C   UNL     1      -5.869  12.875  19.928  0.00  0.00    +0.000 C 
ATOM     18  O   UNL     1      -5.942  10.989  18.429  0.00  0.00    +0.000 OA
ENDBRANCH  15  16
ENDBRANCH  12  15
ENDBRANCH   1  10
BRANCH   2  19
ATOM     19  C   UNL     1       1.684   7.819  19.972  0.00  0.00    +0.000 A 
ATOM     20  C   UNL     1       1.643   6.610  20.656  0.00  0.00    +0.000 A 
ATOM     21  C   UNL     1       2.276   5.483  20.148  0.00  0.00    +0.000 A 
ATOM     22  C   UNL     1       3.031   5.585  18.960  0.00  0.00    +0.000 A 
ATOM     23  C   UNL     1       3.056   6.813  18.254  0.00  0.00    +0.000 A 
ATOM     24  C   UNL     1       2.327   7.908  18.743  0.00  0.00    +0.000 A 
BRANCH  21  25
ATOM     25  O   UNL     1       2.215   4.261  20.780  0.00  0.00    +0.000 OA
ATOM     26  C   UNL     1       1.010   3.520  20.582  0.00  0.00    +0.000 C 
ENDBRANCH  21  25
BRANCH  22  27
ATOM     27  O   UNL     1       3.746   4.456  18.640  0.00  0.00    +0.000 OA
ATOM     28  C   UNL     1       3.275   3.663  17.562  0.00  0.00    +0.000 C 
ENDBRANCH  22  27
BRANCH  23  29
ATOM     29  O   UNL     1       3.842   6.901  17.132  0.00  0.00    +0.000 OA
ATOM     30  C   UNL     1       5.255   6.951  17.301  0.00  0.00    +0.000 C 
ENDBRANCH  23  29
ENDBRANCH   2  19
TORSDOF 8
ENDMDL
MODEL 8
REMARK VINA RESULT:      -7.1      2.705      6.077
REMARK  Name = 
REMARK  13 active torsions:
REMARK  status: ('A' for Active; 'I' for Inactive)
REMARK    1  A    between atoms: C_1  and  O_2
REMARK    2  A    between atoms: O_2  and  C_3
REMARK    3  A    between atoms: C_6  and  C_7
REMARK    4  A    between atoms: C_8  and  C_9
REMARK    5  A    between atoms: C_11  and  O_12
REMARK    6  A    between atoms: O_12  and  C_13
REMARK    7  A    between atoms: C_14  and  O_15
REMARK    8  A    between atoms: O_15  and  C_16
REMARK    9  A    between atoms: C_17  and  O_18
REMARK   10  A    between atoms: O_18  and  C_19
REMARK   11  A    between atoms: C_26  and  O_27
REMARK   12  A    between atoms: O_27  and  C_28
REMARK   13  A    between atoms: C_28  and  C_29
REMARK                            x       y       z     vdW  Elec       q    Type
REMARK                         _______ _______ _______ _____ _____    ______ ____
ROOT
ATOM      1  C   UNL     1       0.789   9.435  20.866  0.00  0.00    +0.000 C 
ATOM      2  C   UNL     1      -0.215  10.333  20.785  0.00  0.00    +0.000 C 
ATOM      3  C   UNL     1      -0.018  10.793  22.156  0.00  0.00    +0.000 C 
ATOM      4  O   UNL     1      -0.464  11.600  22.932  0.00  0.00    +0.000 OA
ATOM      5  C   UNL     1       1.052   9.743  22.270  0.00  0.00    +0.000 C 
ATOM      6  O   UNL     1       1.784   9.409  23.165  0.00  0.00    +0.000 OA
ENDROOT
BRANCH   1  10
ATOM      7  C   UNL     1       2.788   6.661  18.304  0.00  0.00    +0.000 A 
ATOM      8  C   UNL     1       2.515   7.970  17.882  0.00  0.00    +0.000 A 
ATOM      9  C   UNL     1       1.882   8.887  18.718  0.00  0.00    +0.000 A 
ATOM     10  C   UNL     1       1.531   8.499  20.003  0.00  0.00    +0.000 A 
ATOM     11  C   UNL     1       1.823   7.205  20.462  0.00  0.00    +0.000 A 
ATOM     12  C   UNL     1       2.444   6.282  19.612  0.00  0.00    +0.000 A 
BRANCH   7  14
ATOM     13  C   UNL     1       4.739   5.929  17.121  0.00  0.00    +0.000 C 
ATOM     14  O   UNL     1       3.335   5.901  17.308  0.00  0.00    +0.000 OA
ENDBRANCH   7  14
BRANCH  12  15
ATOM     15  O   UNL     1       2.699   4.940  20.017  0.00  0.00    +0.000 OA
BRANCH  15  16
ATOM     16  C   UNL     1       1.789   3.901  20.245  0.00  0.00    +0.000 C 
ATOM     17  C   UNL     1       1.273   3.388  18.928  0.00  0.00    +0.000 C 
ATOM     18  O   UNL     1       1.437   3.468  21.331  0.00  0.00    +0.000 OA
ENDBRANCH  15  16
ENDBRANCH  12  15
ENDBRANCH   1  10
BRANCH   2  19
ATOM     19  C   UNL     1      -1.253  10.725  19.826  0.00  0.00    +0.000 A 
ATOM     20  C   UNL     1      -2.121  11.749  20.188  0.00  0.00    +0.000 A 
ATOM     21  C   UNL     1      -3.154  12.138  19.345  0.00  0.00    +0.000 A 
ATOM     22  C   UNL     1      -3.369  11.437  18.139  0.00  0.00    +0.000 A 
ATOM     23  C   UNL     1      -2.472  10.407  17.763  0.00  0.00    +0.000 A 
ATOM     24  C   UNL     1      -1.382  10.101  18.591  0.00  0.00    +0.000 A 
BRANCH  21  25
ATOM     25  O   UNL     1      -4.001  13.179  19.656  0.00  0.00    +0.000 OA
ATOM     26  C   UNL     1      -4.346  13.306  21.036  0.00  0.00    +0.000 C 
ENDBRANCH  21  25
BRANCH  22  27
ATOM     27  O   UNL     1      -4.513  11.797  17.467  0.00  0.00    +0.000 OA
ATOM     28  C   UNL     1      -5.719  11.140  17.822  0.00  0.00    +0.000 C 
ENDBRANCH  22  27
BRANCH  23  29
ATOM     29  O   UNL     1      -2.737   9.704  16.614  0.00  0.00    +0.000 OA
ATOM     30  C   UNL     1      -2.694  10.399  15.372  0.00  0.00    +0.000 C 
ENDBRANCH  23  29
ENDBRANCH   2  19
TORSDOF 8
ENDMDL
MODEL 9
REMARK VINA RESULT:      -7.1      2.657      8.674
REMARK  Name = 
REMARK  13 active torsions:
REMARK  status: ('A' for Active; 'I' for Inactive)
REMARK    1  A    between atoms: C_1  and  O_2
REMARK    2  A    between atoms: O_2  and  C_3
REMARK    3  A    between atoms: C_6  and  C_7
REMARK    4  A    between atoms: C_8  and  C_9
REMARK    5  A    between atoms: C_11  and  O_12
REMARK    6  A    between atoms: O_12  and  C_13
REMARK    7  A    between atoms: C_14  and  O_15
REMARK    8  A    between atoms: O_15  and  C_16
REMARK    9  A    between atoms: C_17  and  O_18
REMARK   10  A    between atoms: O_18  and  C_19
REMARK   11  A    between atoms: C_26  and  O_27
REMARK   12  A    between atoms: O_27  and  C_28
REMARK   13  A    between atoms: C_28  and  C_29
REMARK                            x       y       z     vdW  Elec       q    Type
REMARK                         _______ _______ _______ _____ _____    ______ ____
ROOT
ATOM      1  C   UNL     1       0.176   9.882  20.302  0.00  0.00    +0.000 C 
ATOM      2  C   UNL     1       1.017   8.900  20.689  0.00  0.00    +0.000 C 
ATOM      3  C   UNL     1       1.360   9.579  21.935  0.00  0.00    +0.000 C 
ATOM      4  O   UNL     1       2.037   9.417  22.918  0.00  0.00    +0.000 OA
ATOM      5  C   UNL     1       0.480  10.705  21.470  0.00  0.00    +0.000 C 
ATOM      6  O   UNL     1       0.184  11.769  21.948  0.00  0.00    +0.000 OA
ENDROOT
BRANCH   1  10
ATOM      7  C   UNL     1      -2.558  10.854  17.165  0.00  0.00    +0.000 A 
ATOM      8  C   UNL     1      -1.482   9.982  16.944  0.00  0.00    +0.000 A 
ATOM      9  C   UNL     1      -0.597   9.644  17.966  0.00  0.00    +0.000 A 
ATOM     10  C   UNL     1      -0.798  10.169  19.235  0.00  0.00    +0.000 A 
ATOM     11  C   UNL     1      -1.887  11.018  19.491  0.00  0.00    +0.000 A 
ATOM     12  C   UNL     1      -2.763  11.368  18.456  0.00  0.00    +0.000 A 
BRANCH   7  14
ATOM     13  C   UNL     1      -3.099  10.247  14.912  0.00  0.00    +0.000 C 
ATOM     14  O   UNL     1      -3.250  11.120  16.017  0.00  0.00    +0.000 OA
ENDBRANCH   7  14
BRANCH  12  15
ATOM     15  O   UNL     1      -3.840  12.277  18.658  0.00  0.00    +0.000 OA
BRANCH  15  16
ATOM     16  C   UNL     1      -4.907  12.194  19.562  0.00  0.00    +0.000 C 
ATOM     17  C   UNL     1      -6.065  11.493  18.907  0.00  0.00    +0.000 C 
ATOM     18  O   UNL     1      -4.930  12.630  20.702  0.00  0.00    +0.000 OA
ENDBRANCH  15  16
ENDBRANCH  12  15
ENDBRANCH   1  10
BRANCH   2  19
ATOM     19  C   UNL     1       1.566   7.654  20.143  0.00  0.00    +0.000 A 
ATOM     20  C   UNL     1       2.322   7.731  18.979  0.00  0.00    +0.000 A 
ATOM     21  C   UNL     1       2.832   6.583  18.386  0.00  0.00    +0.000 A 
ATOM     22  C   UNL     1       2.519   5.320  18.931  0.00  0.00    +0.000 A 
ATOM     23  C   UNL     1       1.764   5.244  20.127  0.00  0.00    +0.000 A 
ATOM     24  C   UNL     1       1.344   6.426  20.756  0.00  0.00    +0.000 A 
BRANCH  21  25
ATOM     25  O   UNL     1       3.622   6.630  17.258  0.00  0.00    +0.000 OA
ATOM     26  C   UNL     1       4.999   6.943  17.479  0.00  0.00    +0.000 C 
ENDBRANCH  21  25
BRANCH  22  27
ATOM     27  O   UNL     1       2.936   4.252  18.171  0.00  0.00    +0.000 OA
ATOM     28  C   UNL     1       4.098   3.557  18.598  0.00  0.00    +0.000 C 
ENDBRANCH  22  27
BRANCH  23  29
ATOM     29  O   UNL     1       1.425   4.003  20.604  0.00  0.00    +0.000 OA
ATOM     30  C   UNL     1       2.157   3.480  21.707  0.00  0.00    +0.000 C 
ENDBRANCH  23  29
ENDBRANCH   2  19
TORSDOF 8
ENDMDL
