MODEL 1
REMARK VINA RESULT:      -7.1      0.000      0.000
REMARK  Name = 
REMARK  2 active torsions:
REMARK  status: ('A' for Active; 'I' for Inactive)
REMARK    1  A    between atoms: C_14  and  C_15
REMARK    2  A    between atoms: N_22  and  C_23
REMARK                            x       y       z     vdW  Elec       q    Type
REMARK                         _______ _______ _______ _____ _____    ______ ____
ROOT
ATOM      1  O   UNL     1       2.134  13.144  21.236  0.00  0.00    +0.000 OA
ATOM      2  C   UNL     1       0.925  13.209  21.397  0.00  0.00    +0.000 C 
ATOM      3  N   UNL     1       0.198  14.402  21.391  0.00  0.00    +0.000 N 
ATOM      4  C   UNL     1      -1.155  14.167  21.585  0.00  0.00    +0.000 A 
ATOM      5  C   UNL     1      -2.153  15.117  21.650  0.00  0.00    +0.000 A 
ATOM      6  C   UNL     1      -3.453  14.665  21.885  0.00  0.00    +0.000 A 
ATOM      7  C   UNL     1      -3.713  13.293  22.058  0.00  0.00    +0.000 A 
ATOM      8 CL   UNL     1      -5.325  12.776  22.374  0.00  0.00    +0.000 Cl
ATOM      9  C   UNL     1      -2.690  12.344  21.979  0.00  0.00    +0.000 A 
ATOM     10  C   UNL     1      -1.405  12.799  21.727  0.00  0.00    +0.000 A 
ATOM     11  C   UNL     1      -0.110  12.042  21.591  0.00  0.00    +0.000 C 
ATOM     12  O   UNL     1       0.154  11.278  22.774  0.00  0.00    +0.000 OA
ATOM     13  N   UNL     1       0.666   9.998  22.365  0.00  0.00    +0.000 NA
ATOM     14  C   UNL     1       0.587   9.974  21.056  0.00  0.00    +0.000 C 
ATOM     15  N   UNL     1       0.007  11.089  20.497  0.00  0.00    +0.000 N 
ATOM     16  H   UNL     1       0.636  15.303  21.274  0.00  0.00    +0.000 HD
ENDROOT
BRANCH  14  17
ATOM     17  C   UNL     1       1.201   8.871  20.274  0.00  0.00    +0.000 A 
ATOM     18  C   UNL     1       1.431   7.624  20.864  0.00  0.00    +0.000 A 
ATOM     19  C   UNL     1       2.073   6.619  20.133  0.00  0.00    +0.000 A 
ATOM     20  C   UNL     1       2.492   6.867  18.823  0.00  0.00    +0.000 A 
ATOM     21 CL   UNL     1       3.306   5.640  17.935  0.00  0.00    +0.000 Cl
ATOM     22  C   UNL     1       2.273   8.110  18.236  0.00  0.00    +0.000 A 
ATOM     23  C   UNL     1       1.634   9.114  18.963  0.00  0.00    +0.000 A 
ENDBRANCH  14  17
BRANCH  15  24
ATOM     24  C   UNL     1      -0.733  11.154  19.317  0.00  0.00    +0.000 A 
ATOM     25  C   UNL     1      -0.533  12.188  18.385  0.00  0.00    +0.000 A 
ATOM     26  C   UNL     1      -1.336  12.311  17.248  0.00  0.00    +0.000 A 
ATOM     27  C   UNL     1      -2.359  11.397  17.019  0.00  0.00    +0.000 A 
ATOM     28  C   UNL     1      -2.559  10.357  17.921  0.00  0.00    +0.000 A 
ATOM     29 CL   UNL     1      -3.836   9.233  17.658  0.00  0.00    +0.000 Cl
ATOM     30  C   UNL     1      -1.753  10.229  19.053  0.00  0.00    +0.000 A 
ENDBRANCH  15  24
TORSDOF 2
ENDMDL
MODEL 2
REMARK VINA RESULT:      -6.8      3.004      4.244
REMARK  Name = 
REMARK  2 active torsions:
REMARK  status: ('A' for Active; 'I' for Inactive)
REMARK    1  A    between atoms: C_14  and  C_15
REMARK    2  A    between atoms: N_22  and  C_23
REMARK                            x       y       z     vdW  Elec       q    Type
REMARK                         _______ _______ _______ _____ _____    ______ ____
ROOT
ATOM      1  O   UNL     1      -0.789  12.235  23.212  0.00  0.00    +0.000 OA
ATOM      2  C   UNL     1      -0.843  13.224  22.497  0.00  0.00    +0.000 C 
ATOM      3  N   UNL     1      -0.908  14.534  22.979  0.00  0.00    +0.000 N 
ATOM      4  C   UNL     1      -0.947  15.451  21.940  0.00  0.00    +0.000 A 
ATOM      5  C   UNL     1      -1.030  16.822  22.057  0.00  0.00    +0.000 A 
ATOM      6  C   UNL     1      -1.088  17.563  20.874  0.00  0.00    +0.000 A 
ATOM      7  C   UNL     1      -1.073  16.918  19.624  0.00  0.00    +0.000 A 
ATOM      8 CL   UNL     1      -1.175  17.863  18.189  0.00  0.00    +0.000 Cl
ATOM      9  C   UNL     1      -0.979  15.527  19.526  0.00  0.00    +0.000 A 
ATOM     10  C   UNL     1      -0.903  14.799  20.704  0.00  0.00    +0.000 A 
ATOM     11  C   UNL     1      -0.801  13.314  20.929  0.00  0.00    +0.000 C 
ATOM     12  O   UNL     1      -1.906  12.634  20.320  0.00  0.00    +0.000 OA
ATOM     13  N   UNL     1      -1.399  11.439  19.701  0.00  0.00    +0.000 NA
ATOM     14  C   UNL     1      -0.094  11.486  19.831  0.00  0.00    +0.000 C 
ATOM     15  N   UNL     1       0.381  12.631  20.425  0.00  0.00    +0.000 N 
ATOM     16  H   UNL     1      -0.939  14.748  23.965  0.00  0.00    +0.000 HD
ENDROOT
BRANCH  14  17
ATOM     17  C   UNL     1       0.750  10.320  19.467  0.00  0.00    +0.000 A 
ATOM     18  C   UNL     1       1.241  10.175  18.166  0.00  0.00    +0.000 A 
ATOM     19  C   UNL     1       1.977   9.036  17.825  0.00  0.00    +0.000 A 
ATOM     20  C   UNL     1       2.208   8.042  18.779  0.00  0.00    +0.000 A 
ATOM     21 CL   UNL     1       3.090   6.629  18.351  0.00  0.00    +0.000 Cl
ATOM     22  C   UNL     1       1.714   8.178  20.073  0.00  0.00    +0.000 A 
ATOM     23  C   UNL     1       0.979   9.313  20.415  0.00  0.00    +0.000 A 
ENDBRANCH  14  17
BRANCH  15  24
ATOM     24  C   UNL     1       1.609  13.252  20.200  0.00  0.00    +0.000 A 
ATOM     25  C   UNL     1       2.542  13.426  21.237  0.00  0.00    +0.000 A 
ATOM     26  C   UNL     1       3.732  14.131  21.038  0.00  0.00    +0.000 A 
ATOM     27  C   UNL     1       4.016  14.676  19.791  0.00  0.00    +0.000 A 
ATOM     28  C   UNL     1       3.113  14.498  18.747  0.00  0.00    +0.000 A 
ATOM     29 CL   UNL     1       3.443  15.188  17.206  0.00  0.00    +0.000 Cl
ATOM     30  C   UNL     1       1.926  13.788  18.943  0.00  0.00    +0.000 A 
ENDBRANCH  15  24
TORSDOF 2
ENDMDL
MODEL 3
REMARK VINA RESULT:      -6.7      3.118      6.626
REMARK  Name = 
REMARK  2 active torsions:
REMARK  status: ('A' for Active; 'I' for Inactive)
REMARK    1  A    between atoms: C_14  and  C_15
REMARK    2  A    between atoms: N_22  and  C_23
REMARK                            x       y       z     vdW  Elec       q    Type
REMARK                         _______ _______ _______ _____ _____    ______ ____
ROOT
ATOM      1  O   UNL     1       2.175  12.526  18.828  0.00  0.00    +0.000 OA
ATOM      2  C   UNL     1       1.026  12.172  18.609  0.00  0.00    +0.000 C 
ATOM      3  N   UNL     1       0.676  10.911  18.122  0.00  0.00    +0.000 N 
ATOM      4  C   UNL     1      -0.698  10.789  17.983  0.00  0.00    +0.000 A 
ATOM      5  C   UNL     1      -1.382   9.687  17.515  0.00  0.00    +0.000 A 
ATOM      6  C   UNL     1      -2.772   9.787  17.426  0.00  0.00    +0.000 A 
ATOM      7  C   UNL     1      -3.430  10.975  17.793  0.00  0.00    +0.000 A 
ATOM      8 CL   UNL     1      -5.142  11.070  17.643  0.00  0.00    +0.000 Cl
ATOM      9  C   UNL     1      -2.720  12.078  18.275  0.00  0.00    +0.000 A 
ATOM     10  C   UNL     1      -1.341  11.965  18.378  0.00  0.00    +0.000 A 
ATOM     11  C   UNL     1      -0.313  12.960  18.847  0.00  0.00    +0.000 C 
ATOM     12  O   UNL     1      -0.379  14.160  18.067  0.00  0.00    +0.000 OA
ATOM     13  N   UNL     1      -0.224  15.275  18.964  0.00  0.00    +0.000 NA
ATOM     14  C   UNL     1      -0.198  14.770  20.174  0.00  0.00    +0.000 C 
ATOM     15  N   UNL     1      -0.384  13.409  20.230  0.00  0.00    +0.000 N 
ATOM     16  H   UNL     1       1.364  10.207  17.894  0.00  0.00    +0.000 HD
ENDROOT
BRANCH  14  17
ATOM     17  C   UNL     1       0.135  15.617  21.347  0.00  0.00    +0.000 A 
ATOM     18  C   UNL     1      -0.799  16.522  21.859  0.00  0.00    +0.000 A 
ATOM     19  C   UNL     1      -0.444  17.361  22.921  0.00  0.00    +0.000 A 
ATOM     20  C   UNL     1       0.845  17.301  23.456  0.00  0.00    +0.000 A 
ATOM     21 CL   UNL     1       1.290  18.351  24.743  0.00  0.00    +0.000 Cl
ATOM     22  C   UNL     1       1.781  16.408  22.943  0.00  0.00    +0.000 A 
ATOM     23  C   UNL     1       1.429  15.571  21.884  0.00  0.00    +0.000 A 
ENDBRANCH  14  17
BRANCH  15  24
ATOM     24  C   UNL     1      -0.973  12.679  21.262  0.00  0.00    +0.000 A 
ATOM     25  C   UNL     1      -2.183  13.089  21.851  0.00  0.00    +0.000 A 
ATOM     26  C   UNL     1      -2.727  12.415  22.947  0.00  0.00    +0.000 A 
ATOM     27  C   UNL     1      -2.070  11.310  23.478  0.00  0.00    +0.000 A 
ATOM     28  C   UNL     1      -0.882  10.878  22.896  0.00  0.00    +0.000 A 
ATOM     29 CL   UNL     1      -0.050   9.526  23.559  0.00  0.00    +0.000 Cl
ATOM     30  C   UNL     1      -0.341  11.548  21.797  0.00  0.00    +0.000 A 
ENDBRANCH  15  24
TORSDOF 2
ENDMDL
MODEL 4
REMARK VINA RESULT:      -6.7      2.996      4.269
REMARK  Name = 
REMARK  2 active torsions:
REMARK  status: ('A' for Active; 'I' for Inactive)
REMARK    1  A    between atoms: C_14  and  C_15
REMARK    2  A    between atoms: N_22  and  C_23
REMARK                            x       y       z     vdW  Elec       q    Type
REMARK                         _______ _______ _______ _____ _____    ______ ____
ROOT
ATOM      1  O   UNL     1      -0.722  12.102  23.260  0.00  0.00    +0.000 OA
ATOM      2  C   UNL     1      -0.834  13.096  22.559  0.00  0.00    +0.000 C 
ATOM      3  N   UNL     1      -0.922  14.398  23.057  0.00  0.00    +0.000 N 
ATOM      4  C   UNL     1      -1.028  15.323  22.030  0.00  0.00    +0.000 A 
ATOM      5  C   UNL     1      -1.149  16.690  22.164  0.00  0.00    +0.000 A 
ATOM      6  C   UNL     1      -1.274  17.440  20.993  0.00  0.00    +0.000 A 
ATOM      7  C   UNL     1      -1.286  16.808  19.736  0.00  0.00    +0.000 A 
ATOM      8 CL   UNL     1      -1.471  17.763  18.316  0.00  0.00    +0.000 Cl
ATOM      9  C   UNL     1      -1.153  15.422  19.620  0.00  0.00    +0.000 A 
ATOM     10  C   UNL     1      -1.010  14.685  20.786  0.00  0.00    +0.000 A 
ATOM     11  C   UNL     1      -0.854  13.202  20.991  0.00  0.00    +0.000 C 
ATOM     12  O   UNL     1      -1.959  12.494  20.417  0.00  0.00    +0.000 OA
ATOM     13  N   UNL     1      -1.438  11.321  19.767  0.00  0.00    +0.000 NA
ATOM     14  C   UNL     1      -0.132  11.407  19.848  0.00  0.00    +0.000 C 
ATOM     15  N   UNL     1       0.330  12.562  20.436  0.00  0.00    +0.000 N 
ATOM     16  H   UNL     1      -0.922  14.601  24.046  0.00  0.00    +0.000 HD
ENDROOT
BRANCH  14  17
ATOM     17  C   UNL     1       0.735  10.272  19.440  0.00  0.00    +0.000 A 
ATOM     18  C   UNL     1       1.202  10.170  18.127  0.00  0.00    +0.000 A 
ATOM     19  C   UNL     1       1.959   9.058  17.744  0.00  0.00    +0.000 A 
ATOM     20  C   UNL     1       2.236   8.049  18.671  0.00  0.00    +0.000 A 
ATOM     21 CL   UNL     1       3.144   6.670  18.193  0.00  0.00    +0.000 Cl
ATOM     22  C   UNL     1       1.765   8.144  19.977  0.00  0.00    +0.000 A 
ATOM     23  C   UNL     1       1.008   9.251  20.361  0.00  0.00    +0.000 A 
ENDBRANCH  14  17
BRANCH  15  24
ATOM     24  C   UNL     1       1.529  13.223  20.172  0.00  0.00    +0.000 A 
ATOM     25  C   UNL     1       1.914  13.543  18.858  0.00  0.00    +0.000 A 
ATOM     26  C   UNL     1       3.157  14.119  18.581  0.00  0.00    +0.000 A 
ATOM     27  C   UNL     1       4.042  14.391  19.619  0.00  0.00    +0.000 A 
ATOM     28  C   UNL     1       3.670  14.098  20.928  0.00  0.00    +0.000 A 
ATOM     29 CL   UNL     1       4.767  14.410  22.217  0.00  0.00    +0.000 Cl
ATOM     30  C   UNL     1       2.426  13.528  21.205  0.00  0.00    +0.000 A 
ENDBRANCH  15  24
TORSDOF 2
ENDMDL
MODEL 5
REMARK VINA RESULT:      -6.7      3.270      5.965
REMARK  Name = 
REMARK  2 active torsions:
REMARK  status: ('A' for Active; 'I' for Inactive)
REMARK    1  A    between atoms: C_14  and  C_15
REMARK    2  A    between atoms: N_22  and  C_23
REMARK                            x       y       z     vdW  Elec       q    Type
REMARK                         _______ _______ _______ _____ _____    ______ ____
ROOT
ATOM      1  O   UNL     1       2.290  10.960  18.065  0.00  0.00    +0.000 OA
ATOM      2  C   UNL     1       1.071  11.036  18.113  0.00  0.00    +0.000 C 
ATOM      3  N   UNL     1       0.208  10.009  17.724  0.00  0.00    +0.000 N 
ATOM      4  C   UNL     1      -1.118  10.373  17.901  0.00  0.00    +0.000 A 
ATOM      5  C   UNL     1      -2.226   9.608  17.604  0.00  0.00    +0.000 A 
ATOM      6  C   UNL     1      -3.479  10.181  17.832  0.00  0.00    +0.000 A 
ATOM      7  C   UNL     1      -3.587  11.491  18.333  0.00  0.00    +0.000 A 
ATOM      8 CL   UNL     1      -5.149  12.174  18.574  0.00  0.00    +0.000 Cl
ATOM      9  C   UNL     1      -2.452  12.248  18.636  0.00  0.00    +0.000 A 
ATOM     10  C   UNL     1      -1.211  11.665  18.425  0.00  0.00    +0.000 A 
ATOM     11  C   UNL     1       0.175  12.212  18.645  0.00  0.00    +0.000 C 
ATOM     12  O   UNL     1       0.366  13.418  17.894  0.00  0.00    +0.000 OA
ATOM     13  N   UNL     1       1.087  14.343  18.727  0.00  0.00    +0.000 NA
ATOM     14  C   UNL     1       1.194  13.771  19.902  0.00  0.00    +0.000 C 
ATOM     15  N   UNL     1       0.561  12.554  20.006  0.00  0.00    +0.000 N 
ATOM     16  H   UNL     1       0.542   9.133  17.350  0.00  0.00    +0.000 HD
ENDROOT
BRANCH  14  17
ATOM     17  C   UNL     1       2.043  14.365  20.965  0.00  0.00    +0.000 A 
ATOM     18  C   UNL     1       1.567  15.418  21.752  0.00  0.00    +0.000 A 
ATOM     19  C   UNL     1       2.407  16.010  22.701  0.00  0.00    +0.000 A 
ATOM     20  C   UNL     1       3.719  15.556  22.852  0.00  0.00    +0.000 A 
ATOM     21 CL   UNL     1       4.759  16.302  24.000  0.00  0.00    +0.000 Cl
ATOM     22  C   UNL     1       4.200  14.514  22.065  0.00  0.00    +0.000 A 
ATOM     23  C   UNL     1       3.365  13.923  21.117  0.00  0.00    +0.000 A 
ENDBRANCH  14  17
BRANCH  15  24
ATOM     24  C   UNL     1      -0.010  11.994  21.148  0.00  0.00    +0.000 A 
ATOM     25  C   UNL     1       0.332  10.700  21.577  0.00  0.00    +0.000 A 
ATOM     26  C   UNL     1      -0.308  10.098  22.664  0.00  0.00    +0.000 A 
ATOM     27  C   UNL     1      -1.305  10.785  23.349  0.00  0.00    +0.000 A 
ATOM     28  C   UNL     1      -1.643  12.074  22.950  0.00  0.00    +0.000 A 
ATOM     29 CL   UNL     1      -2.890  12.923  23.777  0.00  0.00    +0.000 Cl
ATOM     30  C   UNL     1      -1.000  12.678  21.868  0.00  0.00    +0.000 A 
ENDBRANCH  15  24
TORSDOF 2
ENDMDL
MODEL 6
REMARK VINA RESULT:      -6.6      3.250      6.400
REMARK  Name = 
REMARK  2 active torsions:
REMARK  status: ('A' for Active; 'I' for Inactive)
REMARK    1  A    between atoms: C_14  and  C_15
REMARK    2  A    between atoms: N_22  and  C_23
REMARK                            x       y       z     vdW  Elec       q    Type
REMARK                         _______ _______ _______ _____ _____    ______ ____
ROOT
ATOM      1  O   UNL     1       2.266  12.188  18.492  0.00  0.00    +0.000 OA
ATOM      2  C   UNL     1       1.079  11.913  18.412  0.00  0.00    +0.000 C 
ATOM      3  N   UNL     1       0.588  10.695  17.935  0.00  0.00    +0.000 N 
ATOM      4  C   UNL     1      -0.798  10.662  17.972  0.00  0.00    +0.000 A 
ATOM      5  C   UNL     1      -1.606   9.623  17.562  0.00  0.00    +0.000 A 
ATOM      6  C   UNL     1      -2.987   9.810  17.657  0.00  0.00    +0.000 A 
ATOM      7  C   UNL     1      -3.513  11.021  18.143  0.00  0.00    +0.000 A 
ATOM      8 CL   UNL     1      -5.221  11.225  18.218  0.00  0.00    +0.000 Cl
ATOM      9  C   UNL     1      -2.678  12.060  18.562  0.00  0.00    +0.000 A 
ATOM     10  C   UNL     1      -1.308  11.859  18.483  0.00  0.00    +0.000 A 
ATOM     11  C   UNL     1      -0.165  12.771  18.846  0.00  0.00    +0.000 C 
ATOM     12  O   UNL     1      -0.251  14.002  18.118  0.00  0.00    +0.000 OA
ATOM     13  N   UNL     1       0.088  15.070  19.021  0.00  0.00    +0.000 NA
ATOM     14  C   UNL     1       0.235  14.517  20.201  0.00  0.00    +0.000 C 
ATOM     15  N   UNL     1      -0.031  13.169  20.239  0.00  0.00    +0.000 N 
ATOM     16  H   UNL     1       1.194   9.961  17.599  0.00  0.00    +0.000 HD
ENDROOT
BRANCH  14  17
ATOM     17  C   UNL     1       0.769  15.297  21.347  0.00  0.00    +0.000 A 
ATOM     18  C   UNL     1      -0.076  16.108  22.111  0.00  0.00    +0.000 A 
ATOM     19  C   UNL     1       0.458  16.888  23.142  0.00  0.00    +0.000 A 
ATOM     20  C   UNL     1       1.831  16.863  23.398  0.00  0.00    +0.000 A 
ATOM     21 CL   UNL     1       2.489  17.843  24.648  0.00  0.00    +0.000 Cl
ATOM     22  C   UNL     1       2.676  16.064  22.634  0.00  0.00    +0.000 A 
ATOM     23  C   UNL     1       2.147  15.286  21.604  0.00  0.00    +0.000 A 
ENDBRANCH  14  17
BRANCH  15  24
ATOM     24  C   UNL     1      -0.531  12.437  21.316  0.00  0.00    +0.000 A 
ATOM     25  C   UNL     1       0.083  11.244  21.737  0.00  0.00    +0.000 A 
ATOM     26  C   UNL     1      -0.468  10.458  22.753  0.00  0.00    +0.000 A 
ATOM     27  C   UNL     1      -1.649  10.853  23.372  0.00  0.00    +0.000 A 
ATOM     28  C   UNL     1      -2.261  12.040  22.980  0.00  0.00    +0.000 A 
ATOM     29 CL   UNL     1      -3.734  12.526  23.725  0.00  0.00    +0.000 Cl
ATOM     30  C   UNL     1      -1.707  12.829  21.970  0.00  0.00    +0.000 A 
ENDBRANCH  15  24
TORSDOF 2
ENDMDL
MODEL 7
REMARK VINA RESULT:      -6.5      3.220      4.410
REMARK  Name = 
REMARK  2 active torsions:
REMARK  status: ('A' for Active; 'I' for Inactive)
REMARK    1  A    between atoms: C_14  and  C_15
REMARK    2  A    between atoms: N_22  and  C_23
REMARK                            x       y       z     vdW  Elec       q    Type
REMARK                         _______ _______ _______ _____ _____    ______ ____
ROOT
ATOM      1  O   UNL     1      -0.554  13.083  23.395  0.00  0.00    +0.000 OA
ATOM      2  C   UNL     1      -0.653  14.005  22.600  0.00  0.00    +0.000 C 
ATOM      3  N   UNL     1      -0.570  15.354  22.953  0.00  0.00    +0.000 N 
ATOM      4  C   UNL     1      -0.704  16.174  21.842  0.00  0.00    +0.000 A 
ATOM      5  C   UNL     1      -0.688  17.553  21.832  0.00  0.00    +0.000 A 
ATOM      6  C   UNL     1      -0.873  18.186  20.601  0.00  0.00    +0.000 A 
ATOM      7  C   UNL     1      -1.078  17.431  19.431  0.00  0.00    +0.000 A 
ATOM      8 CL   UNL     1      -1.330  18.247  17.937  0.00  0.00    +0.000 Cl
ATOM      9  C   UNL     1      -1.082  16.034  19.461  0.00  0.00    +0.000 A 
ATOM     10  C   UNL     1      -0.879  15.412  20.683  0.00  0.00    +0.000 A 
ATOM     11  C   UNL     1      -0.833  13.950  21.040  0.00  0.00    +0.000 C 
ATOM     12  O   UNL     1      -2.053  13.300  20.661  0.00  0.00    +0.000 OA
ATOM     13  N   UNL     1      -1.712  12.020  20.100  0.00  0.00    +0.000 NA
ATOM     14  C   UNL     1      -0.403  11.983  20.042  0.00  0.00    +0.000 C 
ATOM     15  N   UNL     1       0.221  13.140  20.447  0.00  0.00    +0.000 N 
ATOM     16  H   UNL     1      -0.445  15.659  23.907  0.00  0.00    +0.000 HD
ENDROOT
BRANCH  14  17
ATOM     17  C   UNL     1       0.310  10.730  19.683  0.00  0.00    +0.000 A 
ATOM     18  C   UNL     1       0.700   9.825  20.674  0.00  0.00    +0.000 A 
ATOM     19  C   UNL     1       1.431   8.685  20.324  0.00  0.00    +0.000 A 
ATOM     20  C   UNL     1       1.778   8.461  18.989  0.00  0.00    +0.000 A 
ATOM     21 CL   UNL     1       2.700   7.074  18.562  0.00  0.00    +0.000 Cl
ATOM     22  C   UNL     1       1.399   9.365  18.001  0.00  0.00    +0.000 A 
ATOM     23  C   UNL     1       0.671  10.503  18.348  0.00  0.00    +0.000 A 
ENDBRANCH  14  17
BRANCH  15  24
ATOM     24  C   UNL     1       1.438  13.646  19.993  0.00  0.00    +0.000 A 
ATOM     25  C   UNL     1       1.676  13.861  18.624  0.00  0.00    +0.000 A 
ATOM     26  C   UNL     1       2.925  14.278  18.157  0.00  0.00    +0.000 A 
ATOM     27  C   UNL     1       3.966  14.492  19.054  0.00  0.00    +0.000 A 
ATOM     28  C   UNL     1       3.743  14.302  20.415  0.00  0.00    +0.000 A 
ATOM     29 CL   UNL     1       5.030  14.542  21.531  0.00  0.00    +0.000 Cl
ATOM     30  C   UNL     1       2.493  13.892  20.883  0.00  0.00    +0.000 A 
ENDBRANCH  15  24
TORSDOF 2
ENDMDL
MODEL 8
REMARK VINA RESULT:      -6.5      3.779      6.849
REMARK  Name = 
REMARK  2 active torsions:
REMARK  status: ('A' for Active; 'I' for Inactive)
REMARK    1  A    between atoms: C_14  and  C_15
REMARK    2  A    between atoms: N_22  and  C_23
REMARK                            x       y       z     vdW  Elec       q    Type
REMARK                         _______ _______ _______ _____ _____    ______ ____
ROOT
ATOM      1  O   UNL     1      -1.637  12.013  18.183  0.00  0.00    +0.000 OA
ATOM      2  C   UNL     1      -0.604  12.464  18.654  0.00  0.00    +0.000 C 
ATOM      3  N   UNL     1       0.437  12.997  17.890  0.00  0.00    +0.000 N 
ATOM      4  C   UNL     1       1.474  13.443  18.694  0.00  0.00    +0.000 A 
ATOM      5  C   UNL     1       2.659  14.007  18.270  0.00  0.00    +0.000 A 
ATOM      6  C   UNL     1       3.587  14.361  19.251  0.00  0.00    +0.000 A 
ATOM      7  C   UNL     1       3.312  14.133  20.612  0.00  0.00    +0.000 A 
ATOM      8 CL   UNL     1       4.493  14.557  21.791  0.00  0.00    +0.000 Cl
ATOM      9  C   UNL     1       2.102  13.569  21.023  0.00  0.00    +0.000 A 
ATOM     10  C   UNL     1       1.177  13.237  20.044  0.00  0.00    +0.000 A 
ATOM     11  C   UNL     1      -0.191  12.620  20.163  0.00  0.00    +0.000 C 
ATOM     12  O   UNL     1      -0.119  11.356  20.835  0.00  0.00    +0.000 OA
ATOM     13  N   UNL     1      -1.237  11.274  21.736  0.00  0.00    +0.000 NA
ATOM     14  C   UNL     1      -1.836  12.440  21.684  0.00  0.00    +0.000 C 
ATOM     15  N   UNL     1      -1.213  13.367  20.881  0.00  0.00    +0.000 N 
ATOM     16  H   UNL     1       0.411  13.022  16.881  0.00  0.00    +0.000 HD
ENDROOT
BRANCH  14  17
ATOM     17  C   UNL     1      -3.144  12.656  22.351  0.00  0.00    +0.000 A 
ATOM     18  C   UNL     1      -3.267  12.519  23.737  0.00  0.00    +0.000 A 
ATOM     19  C   UNL     1      -4.522  12.659  24.340  0.00  0.00    +0.000 A 
ATOM     20  C   UNL     1      -5.647  12.922  23.556  0.00  0.00    +0.000 A 
ATOM     21 CL   UNL     1      -7.193  13.067  24.294  0.00  0.00    +0.000 Cl
ATOM     22  C   UNL     1      -5.530  13.051  22.175  0.00  0.00    +0.000 A 
ATOM     23  C   UNL     1      -4.281  12.911  21.571  0.00  0.00    +0.000 A 
ENDBRANCH  14  17
BRANCH  15  24
ATOM     24  C   UNL     1      -1.205  14.752  21.041  0.00  0.00    +0.000 A 
ATOM     25  C   UNL     1      -0.891  15.344  22.277  0.00  0.00    +0.000 A 
ATOM     26  C   UNL     1      -0.974  16.726  22.467  0.00  0.00    +0.000 A 
ATOM     27  C   UNL     1      -1.373  17.548  21.418  0.00  0.00    +0.000 A 
ATOM     28  C   UNL     1      -1.670  16.981  20.182  0.00  0.00    +0.000 A 
ATOM     29 CL   UNL     1      -2.186  17.987  18.885  0.00  0.00    +0.000 Cl
ATOM     30  C   UNL     1      -1.580  15.601  19.990  0.00  0.00    +0.000 A 
ENDBRANCH  15  24
TORSDOF 2
ENDMDL
MODEL 9
REMARK VINA RESULT:      -6.5      3.838      6.835
REMARK  Name = 
REMARK  2 active torsions:
REMARK  status: ('A' for Active; 'I' for Inactive)
REMARK    1  A    between atoms: C_14  and  C_15
REMARK    2  A    between atoms: N_22  and  C_23
REMARK                            x       y       z     vdW  Elec       q    Type
REMARK                         _______ _______ _______ _____ _____    ______ ____
ROOT
ATOM      1  O   UNL     1       0.087  11.831  18.213  0.00  0.00    +0.000 OA
ATOM      2  C   UNL     1       1.019  12.482  18.660  0.00  0.00    +0.000 C 
ATOM      3  N   UNL     1       2.048  13.013  17.879  0.00  0.00    +0.000 N 
ATOM      4  C   UNL     1       2.958  13.714  18.656  0.00  0.00    +0.000 A 
ATOM      5  C   UNL     1       4.098  14.350  18.213  0.00  0.00    +0.000 A 
ATOM      6  C   UNL     1       4.897  14.975  19.172  0.00  0.00    +0.000 A 
ATOM      7  C   UNL     1       4.542  14.937  20.534  0.00  0.00    +0.000 A 
ATOM      8 CL   UNL     1       5.567  15.695  21.691  0.00  0.00    +0.000 Cl
ATOM      9  C   UNL     1       3.377  14.296  20.962  0.00  0.00    +0.000 A 
ATOM     10  C   UNL     1       2.579  13.693  20.001  0.00  0.00    +0.000 A 
ATOM     11  C   UNL     1       1.288  12.932  20.142  0.00  0.00    +0.000 C 
ATOM     12  O   UNL     1       1.454  11.815  21.024  0.00  0.00    +0.000 OA
ATOM     13  N   UNL     1       0.284  11.736  21.857  0.00  0.00    +0.000 NA
ATOM     14  C   UNL     1      -0.441  12.791  21.570  0.00  0.00    +0.000 C 
ATOM     15  N   UNL     1       0.131  13.649  20.660  0.00  0.00    +0.000 N 
ATOM     16  H   UNL     1       2.100  12.870  16.881  0.00  0.00    +0.000 HD
ENDROOT
BRANCH  14  17
ATOM     17  C   UNL     1      -1.815  12.943  22.112  0.00  0.00    +0.000 A 
ATOM     18  C   UNL     1      -2.019  13.219  23.467  0.00  0.00    +0.000 A 
ATOM     19  C   UNL     1      -3.322  13.289  23.973  0.00  0.00    +0.000 A 
ATOM     20  C   UNL     1      -4.412  13.072  23.127  0.00  0.00    +0.000 A 
ATOM     21 CL   UNL     1      -6.011  13.132  23.754  0.00  0.00    +0.000 Cl
ATOM     22  C   UNL     1      -4.212  12.788  21.779  0.00  0.00    +0.000 A 
ATOM     23  C   UNL     1      -2.914  12.716  21.273  0.00  0.00    +0.000 A 
ENDBRANCH  14  17
BRANCH  15  24
ATOM     24  C   UNL     1      -0.036  15.030  20.581  0.00  0.00    +0.000 A 
ATOM     25  C   UNL     1       0.053  15.845  21.723  0.00  0.00    +0.000 A 
ATOM     26  C   UNL     1      -0.208  17.217  21.665  0.00  0.00    +0.000 A 
ATOM     27  C   UNL     1      -0.561  17.804  20.454  0.00  0.00    +0.000 A 
ATOM     28  C   UNL     1      -0.636  17.017  19.310  0.00  0.00    +0.000 A 
ATOM     29 CL   UNL     1      -1.094  17.730  17.812  0.00  0.00    +0.000 Cl
ATOM     30  C   UNL     1      -0.369  15.648  19.367  0.00  0.00    +0.000 A 
ENDBRANCH  15  24
TORSDOF 2
ENDMDL
