MODEL 1
REMARK VINA RESULT:      -8.9      0.000      0.000
REMARK  Name = 
REMARK  8 active torsions:
REMARK  status: ('A' for Active; 'I' for Inactive)
REMARK    1  A    between atoms: C_1  and  C_2
REMARK    2  A    between atoms: C_10  and  C_11
REMARK    3  A    between atoms: N_16  and  C_17
REMARK    4  A    between atoms: C_17  and  C_18
REMARK    5  A    between atoms: C_18  and  C_19
REMARK    6  A    between atoms: C_22  and  C_23
REMARK    7  A    between atoms: N_25  and  C_26
REMARK    8  A    between atoms: C_31  and  N_32
REMARK                            x       y       z     vdW  Elec       q    Type
REMARK                         _______ _______ _______ _____ _____    ______ ____
ROOT
ATOM      1  C   UNL     1       0.243  10.721  20.367  0.00  0.00    +0.000 C 
ENDROOT
BRANCH   1   2
ATOM      2  C   UNL     1       1.088   9.615  19.774  0.00  0.00    +0.000 A 
ATOM      3  C   UNL     1       1.588   9.746  18.474  0.00  0.00    +0.000 A 
ATOM      4  C   UNL     1       2.301   8.701  17.890  0.00  0.00    +0.000 A 
ATOM      5  C   UNL     1       2.530   7.505  18.590  0.00  0.00    +0.000 A 
ATOM      6  C   UNL     1       2.065   7.377  19.898  0.00  0.00    +0.000 A 
ATOM      7  C   UNL     1       1.346   8.429  20.485  0.00  0.00    +0.000 A 
BRANCH   5   8
ATOM      8  C   UNL     1       3.306   6.459  17.875  0.00  0.00    +0.000 C 
ATOM      9  O   UNL     1       2.921   5.297  18.025  0.00  0.00    +0.000 OA
ATOM     10  N   UNL     1       4.445   6.855  17.189  0.00  0.00    +0.000 N 
ATOM     11  H   UNL     1       4.730   7.822  17.228  0.00  0.00    +0.000 HD
BRANCH  10  12
ATOM     12  C   UNL     1       5.374   5.963  16.579  0.00  0.00    +0.000 A 
ATOM     13  C   UNL     1       5.282   5.610  15.225  0.00  0.00    +0.000 A 
ATOM     14  C   UNL     1       6.174   4.706  14.647  0.00  0.00    +0.000 A 
ATOM     15  C   UNL     1       7.201   4.168  15.406  0.00  0.00    +0.000 A 
ATOM     16  C   UNL     1       7.340   4.541  16.744  0.00  0.00    +0.000 A 
ATOM     17  C   UNL     1       6.410   5.398  17.357  0.00  0.00    +0.000 A 
BRANCH  17  18
ATOM     18  N   UNL     1       6.628   5.783  18.701  0.00  0.00    +0.000 N 
ATOM     19  H   UNL     1       6.899   6.763  18.779  0.00  0.00    +0.000 HD
ATOM     20  H   UNL     1       7.308   5.191  19.165  0.00  0.00    +0.000 HD
ENDBRANCH  17  18
ENDBRANCH  10  12
ENDBRANCH   5   8
ENDBRANCH   1   2
BRANCH   1  21
ATOM     21  C   UNL     1      -1.210  10.634  19.882  0.00  0.00    +0.000 C 
BRANCH  21  27
ATOM     22  C   UNL     1      -4.933  11.572  18.513  0.00  0.00    +0.000 A 
ATOM     23  C   UNL     1      -5.189  11.532  17.161  0.00  0.00    +0.000 A 
ATOM     24  C   UNL     1      -4.086  11.434  16.350  0.00  0.00    +0.000 A 
ATOM     25  N   UNL     1      -2.827  11.353  16.812  0.00  0.00    +0.000 NA
ATOM     26  C   UNL     1      -2.667  11.399  18.138  0.00  0.00    +0.000 A 
ATOM     27  N   UNL     1      -1.358  11.287  18.590  0.00  0.00    +0.000 N 
ATOM     28  N   UNL     1      -3.680  11.515  19.006  0.00  0.00    +0.000 NA
ATOM     29  H   UNL     1      -0.838  10.877  17.820  0.00  0.00    +0.000 HD
BRANCH  22  39
ATOM     30  C   UNL     1      -7.143   9.348  19.572  0.00  0.00    +0.000 C 
ATOM     31  C   UNL     1      -6.929  10.761  19.973  0.00  0.00    +0.000 A 
ATOM     32  N   UNL     1      -7.769  11.306  20.914  0.00  0.00    +0.000 NA
ATOM     33  C   UNL     1      -7.393  12.556  21.041  0.00  0.00    +0.000 A 
ATOM     34  C   UNL     1      -7.916  13.597  21.860  0.00  0.00    +0.000 A 
ATOM     35  C   UNL     1      -7.350  14.819  21.841  0.00  0.00    +0.000 A 
ATOM     36  C   UNL     1      -6.199  15.100  21.004  0.00  0.00    +0.000 A 
ATOM     37  C   UNL     1      -5.702  14.122  20.230  0.00  0.00    +0.000 A 
ATOM     38  N   UNL     1      -6.301  12.855  20.225  0.00  0.00    +0.000 N 
ATOM     39  C   UNL     1      -5.997  11.693  19.514  0.00  0.00    +0.000 A 
ENDBRANCH  22  39
ENDBRANCH  21  27
ENDBRANCH   1  21
TORSDOF 7
ENDMDL
MODEL 2
REMARK VINA RESULT:      -8.9      2.563      4.505
REMARK  Name = 
REMARK  8 active torsions:
REMARK  status: ('A' for Active; 'I' for Inactive)
REMARK    1  A    between atoms: C_1  and  C_2
REMARK    2  A    between atoms: C_10  and  C_11
REMARK    3  A    between atoms: N_16  and  C_17
REMARK    4  A    between atoms: C_17  and  C_18
REMARK    5  A    between atoms: C_18  and  C_19
REMARK    6  A    between atoms: C_22  and  C_23
REMARK    7  A    between atoms: N_25  and  C_26
REMARK    8  A    between atoms: C_31  and  N_32
REMARK                            x       y       z     vdW  Elec       q    Type
REMARK                         _______ _______ _______ _____ _____    ______ ____
ROOT
ATOM      1  C   UNL     1      -0.701  11.820  21.998  0.00  0.00    +0.000 C 
ENDROOT
BRANCH   1   2
ATOM      2  C   UNL     1      -0.009  10.668  21.303  0.00  0.00    +0.000 A 
ATOM      3  C   UNL     1       0.131   9.443  21.964  0.00  0.00    +0.000 A 
ATOM      4  C   UNL     1       0.834   8.401  21.364  0.00  0.00    +0.000 A 
ATOM      5  C   UNL     1       1.412   8.559  20.094  0.00  0.00    +0.000 A 
ATOM      6  C   UNL     1       1.250   9.764  19.412  0.00  0.00    +0.000 A 
ATOM      7  C   UNL     1       0.543  10.814  20.018  0.00  0.00    +0.000 A 
BRANCH   5   8
ATOM      8  C   UNL     1       2.135   7.382  19.545  0.00  0.00    +0.000 C 
ATOM      9  O   UNL     1       2.436   7.435  18.350  0.00  0.00    +0.000 OA
ATOM     10  N   UNL     1       2.322   6.290  20.382  0.00  0.00    +0.000 N 
ATOM     11  H   UNL     1       1.932   6.313  21.312  0.00  0.00    +0.000 HD
BRANCH  10  12
ATOM     12  C   UNL     1       2.861   5.038  19.971  0.00  0.00    +0.000 A 
ATOM     13  C   UNL     1       4.213   4.889  19.629  0.00  0.00    +0.000 A 
ATOM     14  C   UNL     1       4.721   3.666  19.190  0.00  0.00    +0.000 A 
ATOM     15  C   UNL     1       3.893   2.557  19.124  0.00  0.00    +0.000 A 
ATOM     16  C   UNL     1       2.555   2.670  19.504  0.00  0.00    +0.000 A 
ATOM     17  C   UNL     1       2.012   3.910  19.883  0.00  0.00    +0.000 A 
BRANCH  17  18
ATOM     18  N   UNL     1       0.663   3.957  20.307  0.00  0.00    +0.000 N 
ATOM     19  H   UNL     1       0.479   3.306  21.070  0.00  0.00    +0.000 HD
ATOM     20  H   UNL     1       0.014   3.799  19.544  0.00  0.00    +0.000 HD
ENDBRANCH  17  18
ENDBRANCH  10  12
ENDBRANCH   5   8
ENDBRANCH   1   2
BRANCH   1  21
ATOM     21  C   UNL     1      -1.672  11.319  23.075  0.00  0.00    +0.000 C 
BRANCH  21  27
ATOM     22  C   UNL     1      -4.338  13.107  20.562  0.00  0.00    +0.000 A 
ATOM     23  C   UNL     1      -4.607  14.449  20.703  0.00  0.00    +0.000 A 
ATOM     24  C   UNL     1      -4.150  15.030  21.859  0.00  0.00    +0.000 A 
ATOM     25  N   UNL     1      -3.459  14.367  22.802  0.00  0.00    +0.000 NA
ATOM     26  C   UNL     1      -3.241  13.066  22.587  0.00  0.00    +0.000 A 
ATOM     27  N   UNL     1      -2.501  12.411  23.564  0.00  0.00    +0.000 N 
ATOM     28  N   UNL     1      -3.665  12.410  21.500  0.00  0.00    +0.000 NA
ATOM     29  H   UNL     1      -2.018  13.143  24.076  0.00  0.00    +0.000 HD
BRANCH  22  39
ATOM     30  C   UNL     1      -7.376  12.278  19.545  0.00  0.00    +0.000 C 
ATOM     31  C   UNL     1      -6.047  11.983  18.954  0.00  0.00    +0.000 A 
ATOM     32  N   UNL     1      -5.997  11.222  17.811  0.00  0.00    +0.000 NA
ATOM     33  C   UNL     1      -4.723  11.076  17.540  0.00  0.00    +0.000 A 
ATOM     34  C   UNL     1      -4.080  10.368  16.483  0.00  0.00    +0.000 A 
ATOM     35  C   UNL     1      -2.737  10.371  16.389  0.00  0.00    +0.000 A 
ATOM     36  C   UNL     1      -1.919  11.095  17.344  0.00  0.00    +0.000 A 
ATOM     37  C   UNL     1      -2.520  11.764  18.341  0.00  0.00    +0.000 A 
ATOM     38  N   UNL     1      -3.916  11.746  18.460  0.00  0.00    +0.000 N 
ATOM     39  C   UNL     1      -4.770  12.332  19.395  0.00  0.00    +0.000 A 
ENDBRANCH  22  39
ENDBRANCH  21  27
ENDBRANCH   1  21
TORSDOF 7
ENDMDL
MODEL 3
REMARK VINA RESULT:      -8.7      4.817     11.956
REMARK  Name = 
REMARK  8 active torsions:
REMARK  status: ('A' for Active; 'I' for Inactive)
REMARK    1  A    between atoms: C_1  and  C_2
REMARK    2  A    between atoms: C_10  and  C_11
REMARK    3  A    between atoms: N_16  and  C_17
REMARK    4  A    between atoms: C_17  and  C_18
REMARK    5  A    between atoms: C_18  and  C_19
REMARK    6  A    between atoms: C_22  and  C_23
REMARK    7  A    between atoms: N_25  and  C_26
REMARK    8  A    between atoms: C_31  and  N_32
REMARK                            x       y       z     vdW  Elec       q    Type
REMARK                         _______ _______ _______ _____ _____    ______ ____
ROOT
ATOM      1  C   UNL     1       1.212   7.814  21.220  0.00  0.00    +0.000 C 
ENDROOT
BRANCH   1   2
ATOM      2  C   UNL     1       1.042   9.164  20.555  0.00  0.00    +0.000 A 
ATOM      3  C   UNL     1       0.685  10.275  21.326  0.00  0.00    +0.000 A 
ATOM      4  C   UNL     1       0.450  11.504  20.713  0.00  0.00    +0.000 A 
ATOM      5  C   UNL     1       0.566  11.650  19.321  0.00  0.00    +0.000 A 
ATOM      6  C   UNL     1       0.954  10.556  18.548  0.00  0.00    +0.000 A 
ATOM      7  C   UNL     1       1.188   9.318  19.165  0.00  0.00    +0.000 A 
BRANCH   5   8
ATOM      8  C   UNL     1       0.299  13.005  18.773  0.00  0.00    +0.000 C 
ATOM      9  O   UNL     1      -0.452  13.059  17.796  0.00  0.00    +0.000 OA
ATOM     10  N   UNL     1       0.984  14.075  19.331  0.00  0.00    +0.000 N 
ATOM     11  H   UNL     1       1.663  13.898  20.056  0.00  0.00    +0.000 HD
BRANCH  10  12
ATOM     12  C   UNL     1       0.953  15.407  18.829  0.00  0.00    +0.000 A 
ATOM     13  C   UNL     1       2.063  15.987  18.197  0.00  0.00    +0.000 A 
ATOM     14  C   UNL     1       2.034  17.306  17.744  0.00  0.00    +0.000 A 
ATOM     15  C   UNL     1       0.878  18.058  17.880  0.00  0.00    +0.000 A 
ATOM     16  C   UNL     1      -0.253  17.487  18.464  0.00  0.00    +0.000 A 
ATOM     17  C   UNL     1      -0.218  16.182  18.986  0.00  0.00    +0.000 A 
BRANCH  17  18
ATOM     18  N   UNL     1      -1.409  15.636  19.521  0.00  0.00    +0.000 N 
ATOM     19  H   UNL     1      -2.045  15.317  18.791  0.00  0.00    +0.000 HD
ATOM     20  H   UNL     1      -1.882  16.281  20.145  0.00  0.00    +0.000 HD
ENDBRANCH  17  18
ENDBRANCH  10  12
ENDBRANCH   5   8
ENDBRANCH   1   2
BRANCH   1  21
ATOM     21  C   UNL     1       2.113   6.893  20.387  0.00  0.00    +0.000 C 
BRANCH  21  27
ATOM     22  C   UNL     1       4.619   4.093  18.806  0.00  0.00    +0.000 A 
ATOM     23  C   UNL     1       4.259   2.766  18.838  0.00  0.00    +0.000 A 
ATOM     24  C   UNL     1       3.193   2.457  19.646  0.00  0.00    +0.000 A 
ATOM     25  N   UNL     1       2.505   3.371  20.352  0.00  0.00    +0.000 NA
ATOM     26  C   UNL     1       2.921   4.638  20.264  0.00  0.00    +0.000 A 
ATOM     27  N   UNL     1       2.177   5.566  20.983  0.00  0.00    +0.000 N 
ATOM     28  N   UNL     1       3.962   5.030  19.519  0.00  0.00    +0.000 NA
ATOM     29  H   UNL     1       1.286   5.116  21.167  0.00  0.00    +0.000 HD
BRANCH  22  39
ATOM     30  C   UNL     1       7.392   5.640  19.739  0.00  0.00    +0.000 C 
ATOM     31  C   UNL     1       6.921   5.234  18.391  0.00  0.00    +0.000 A 
ATOM     32  N   UNL     1       7.704   5.546  17.306  0.00  0.00    +0.000 NA
ATOM     33  C   UNL     1       7.039   5.124  16.258  0.00  0.00    +0.000 A 
ATOM     34  C   UNL     1       7.360   5.195  14.872  0.00  0.00    +0.000 A 
ATOM     35  C   UNL     1       6.522   4.670  13.958  0.00  0.00    +0.000 A 
ATOM     36  C   UNL     1       5.291   4.014  14.357  0.00  0.00    +0.000 A 
ATOM     37  C   UNL     1       4.984   3.944  15.662  0.00  0.00    +0.000 A 
ATOM     38  N   UNL     1       5.838   4.510  16.618  0.00  0.00    +0.000 N 
ATOM     39  C   UNL     1       5.745   4.587  18.008  0.00  0.00    +0.000 A 
ENDBRANCH  22  39
ENDBRANCH  21  27
ENDBRANCH   1  21
TORSDOF 7
ENDMDL
MODEL 4
REMARK VINA RESULT:      -8.7      2.194      4.222
REMARK  Name = 
REMARK  8 active torsions:
REMARK  status: ('A' for Active; 'I' for Inactive)
REMARK    1  A    between atoms: C_1  and  C_2
REMARK    2  A    between atoms: C_10  and  C_11
REMARK    3  A    between atoms: N_16  and  C_17
REMARK    4  A    between atoms: C_17  and  C_18
REMARK    5  A    between atoms: C_18  and  C_19
REMARK    6  A    between atoms: C_22  and  C_23
REMARK    7  A    between atoms: N_25  and  C_26
REMARK    8  A    between atoms: C_31  and  N_32
REMARK                            x       y       z     vdW  Elec       q    Type
REMARK                         _______ _______ _______ _____ _____    ______ ____
ROOT
ATOM      1  C   UNL     1       1.438   7.370  20.867  0.00  0.00    +0.000 C 
ENDROOT
BRANCH   1   2
ATOM      2  C   UNL     1       2.247   6.576  19.864  0.00  0.00    +0.000 A 
ATOM      3  C   UNL     1       2.887   7.238  18.812  0.00  0.00    +0.000 A 
ATOM      4  C   UNL     1       3.569   6.509  17.839  0.00  0.00    +0.000 A 
ATOM      5  C   UNL     1       3.626   5.107  17.897  0.00  0.00    +0.000 A 
ATOM      6  C   UNL     1       3.019   4.440  18.960  0.00  0.00    +0.000 A 
ATOM      7  C   UNL     1       2.331   5.174  19.938  0.00  0.00    +0.000 A 
BRANCH   5   8
ATOM      8  C   UNL     1       4.384   4.431  16.812  0.00  0.00    +0.000 C 
ATOM      9  O   UNL     1       4.796   3.295  17.061  0.00  0.00    +0.000 OA
ATOM     10  N   UNL     1       4.651   5.157  15.661  0.00  0.00    +0.000 N 
ATOM     11  H   UNL     1       4.361   6.122  15.611  0.00  0.00    +0.000 HD
BRANCH  10  12
ATOM     12  C   UNL     1       5.485   4.710  14.596  0.00  0.00    +0.000 A 
ATOM     13  C   UNL     1       4.985   3.936  13.538  0.00  0.00    +0.000 A 
ATOM     14  C   UNL     1       5.819   3.470  12.521  0.00  0.00    +0.000 A 
ATOM     15  C   UNL     1       7.164   3.805  12.522  0.00  0.00    +0.000 A 
ATOM     16  C   UNL     1       7.674   4.612  13.539  0.00  0.00    +0.000 A 
ATOM     17  C   UNL     1       6.861   5.033  14.607  0.00  0.00    +0.000 A 
BRANCH  17  18
ATOM     18  N   UNL     1       7.419   5.892  15.583  0.00  0.00    +0.000 N 
ATOM     19  H   UNL     1       6.702   6.343  16.150  0.00  0.00    +0.000 HD
ATOM     20  H   UNL     1       8.037   6.586  15.177  0.00  0.00    +0.000 HD
ENDBRANCH  17  18
ENDBRANCH  10  12
ENDBRANCH   5   8
ENDBRANCH   1   2
BRANCH   1  21
ATOM     21  C   UNL     1       0.979   8.710  20.277  0.00  0.00    +0.000 C 
BRANCH  21  27
ATOM     22  C   UNL     1      -1.151  12.182  20.135  0.00  0.00    +0.000 A 
ATOM     23  C   UNL     1      -0.517  13.378  20.384  0.00  0.00    +0.000 A 
ATOM     24  C   UNL     1       0.740  13.283  20.927  0.00  0.00    +0.000 A 
ATOM     25  N   UNL     1       1.353  12.115  21.186  0.00  0.00    +0.000 NA
ATOM     26  C   UNL     1       0.666  11.001  20.914  0.00  0.00    +0.000 A 
ATOM     27  N   UNL     1       1.332   9.807  21.165  0.00  0.00    +0.000 N 
ATOM     28  N   UNL     1      -0.572  10.996  20.403  0.00  0.00    +0.000 NA
ATOM     29  H   UNL     1       2.317  10.050  21.206  0.00  0.00    +0.000 HD
BRANCH  22  39
ATOM     30  C   UNL     1      -4.079  12.913  21.492  0.00  0.00    +0.000 C 
ATOM     31  C   UNL     1      -3.743  12.419  20.134  0.00  0.00    +0.000 A 
ATOM     32  N   UNL     1      -4.771  12.179  19.255  0.00  0.00    +0.000 NA
ATOM     33  C   UNL     1      -4.204  11.712  18.169  0.00  0.00    +0.000 A 
ATOM     34  C   UNL     1      -4.782  11.278  16.941  0.00  0.00    +0.000 A 
ATOM     35  C   UNL     1      -3.992  10.848  15.939  0.00  0.00    +0.000 A 
ATOM     36  C   UNL     1      -2.549  10.826  16.078  0.00  0.00    +0.000 A 
ATOM     37  C   UNL     1      -1.999  11.234  17.233  0.00  0.00    +0.000 A 
ATOM     38  N   UNL     1      -2.815  11.659  18.289  0.00  0.00    +0.000 N 
ATOM     39  C   UNL     1      -2.503  12.108  19.574  0.00  0.00    +0.000 A 
ENDBRANCH  22  39
ENDBRANCH  21  27
ENDBRANCH   1  21
TORSDOF 7
ENDMDL
MODEL 5
REMARK VINA RESULT:      -8.7      1.879      3.626
REMARK  Name = 
REMARK  8 active torsions:
REMARK  status: ('A' for Active; 'I' for Inactive)
REMARK    1  A    between atoms: C_1  and  C_2
REMARK    2  A    between atoms: C_10  and  C_11
REMARK    3  A    between atoms: N_16  and  C_17
REMARK    4  A    between atoms: C_17  and  C_18
REMARK    5  A    between atoms: C_18  and  C_19
REMARK    6  A    between atoms: C_22  and  C_23
REMARK    7  A    between atoms: N_25  and  C_26
REMARK    8  A    between atoms: C_31  and  N_32
REMARK                            x       y       z     vdW  Elec       q    Type
REMARK                         _______ _______ _______ _____ _____    ______ ____
ROOT
ATOM      1  C   UNL     1       0.010  10.712  21.177  0.00  0.00    +0.000 C 
ENDROOT
BRANCH   1   2
ATOM      2  C   UNL     1       0.826   9.676  20.433  0.00  0.00    +0.000 A 
ATOM      3  C   UNL     1       1.121   9.868  19.080  0.00  0.00    +0.000 A 
ATOM      4  C   UNL     1       1.804   8.885  18.367  0.00  0.00    +0.000 A 
ATOM      5  C   UNL     1       2.206   7.691  18.989  0.00  0.00    +0.000 A 
ATOM      6  C   UNL     1       1.946   7.505  20.346  0.00  0.00    +0.000 A 
ATOM      7  C   UNL     1       1.256   8.494  21.062  0.00  0.00    +0.000 A 
BRANCH   5   8
ATOM      8  C   UNL     1       2.932   6.714  18.137  0.00  0.00    +0.000 C 
ATOM      9  O   UNL     1       2.365   5.636  17.940  0.00  0.00    +0.000 OA
ATOM     10  N   UNL     1       4.214   7.045  17.722  0.00  0.00    +0.000 N 
ATOM     11  H   UNL     1       4.623   7.911  18.038  0.00  0.00    +0.000 HD
BRANCH  10  12
ATOM     12  C   UNL     1       5.094   6.165  17.029  0.00  0.00    +0.000 A 
ATOM     13  C   UNL     1       5.138   6.112  15.628  0.00  0.00    +0.000 A 
ATOM     14  C   UNL     1       5.975   5.219  14.960  0.00  0.00    +0.000 A 
ATOM     15  C   UNL     1       6.816   4.388  15.684  0.00  0.00    +0.000 A 
ATOM     16  C   UNL     1       6.823   4.456  17.077  0.00  0.00    +0.000 A 
ATOM     17  C   UNL     1       5.937   5.302  17.766  0.00  0.00    +0.000 A 
BRANCH  17  18
ATOM     18  N   UNL     1       6.023   5.368  19.177  0.00  0.00    +0.000 N 
ATOM     19  H   UNL     1       6.692   6.071  19.486  0.00  0.00    +0.000 HD
ATOM     20  H   UNL     1       6.237   4.468  19.591  0.00  0.00    +0.000 HD
ENDBRANCH  17  18
ENDBRANCH  10  12
ENDBRANCH   5   8
ENDBRANCH   1   2
BRANCH   1  21
ATOM     21  C   UNL     1      -0.695  10.097  22.394  0.00  0.00    +0.000 C 
BRANCH  21  27
ATOM     22  C   UNL     1      -3.302  12.874  20.941  0.00  0.00    +0.000 A 
ATOM     23  C   UNL     1      -3.268  14.159  21.433  0.00  0.00    +0.000 A 
ATOM     24  C   UNL     1      -2.527  14.340  22.574  0.00  0.00    +0.000 A 
ATOM     25  N   UNL     1      -1.846  13.354  23.183  0.00  0.00    +0.000 NA
ATOM     26  C   UNL     1      -1.933  12.136  22.640  0.00  0.00    +0.000 A 
ATOM     27  N   UNL     1      -1.197  11.142  23.274  0.00  0.00    +0.000 N 
ATOM     28  N   UNL     1      -2.646  11.861  21.542  0.00  0.00    +0.000 NA
ATOM     29  H   UNL     1      -0.502  11.630  23.830  0.00  0.00    +0.000 HD
BRANCH  22  39
ATOM     30  C   UNL     1      -6.502  13.298  20.214  0.00  0.00    +0.000 C 
ATOM     31  C   UNL     1      -5.406  12.687  19.422  0.00  0.00    +0.000 A 
ATOM     32  N   UNL     1      -5.707  12.167  18.186  0.00  0.00    +0.000 NA
ATOM     33  C   UNL     1      -4.587  11.656  17.736  0.00  0.00    +0.000 A 
ATOM     34  C   UNL     1      -4.309  10.973  16.517  0.00  0.00    +0.000 A 
ATOM     35  C   UNL     1      -3.060  10.545  16.253  0.00  0.00    +0.000 A 
ATOM     36  C   UNL     1      -1.975  10.775  17.188  0.00  0.00    +0.000 A 
ATOM     37  C   UNL     1      -2.231  11.418  18.338  0.00  0.00    +0.000 A 
ATOM     38  N   UNL     1      -3.533  11.845  18.631  0.00  0.00    +0.000 N 
ATOM     39  C   UNL     1      -4.060  12.507  19.741  0.00  0.00    +0.000 A 
ENDBRANCH  22  39
ENDBRANCH  21  27
ENDBRANCH   1  21
TORSDOF 7
ENDMDL
MODEL 6
REMARK VINA RESULT:      -8.7      7.563     11.343
REMARK  Name = 
REMARK  8 active torsions:
REMARK  status: ('A' for Active; 'I' for Inactive)
REMARK    1  A    between atoms: C_1  and  C_2
REMARK    2  A    between atoms: C_10  and  C_11
REMARK    3  A    between atoms: N_16  and  C_17
REMARK    4  A    between atoms: C_17  and  C_18
REMARK    5  A    between atoms: C_18  and  C_19
REMARK    6  A    between atoms: C_22  and  C_23
REMARK    7  A    between atoms: N_25  and  C_26
REMARK    8  A    between atoms: C_31  and  N_32
REMARK                            x       y       z     vdW  Elec       q    Type
REMARK                         _______ _______ _______ _____ _____    ______ ____
ROOT
ATOM      1  C   UNL     1       8.171   7.991  18.155  0.00  0.00    +0.000 C 
ENDROOT
BRANCH   1   2
ATOM      2  C   UNL     1       8.581   9.431  18.381  0.00  0.00    +0.000 A 
ATOM      3  C   UNL     1       8.109  10.428  17.521  0.00  0.00    +0.000 A 
ATOM      4  C   UNL     1       8.542  11.744  17.672  0.00  0.00    +0.000 A 
ATOM      5  C   UNL     1       9.452  12.091  18.684  0.00  0.00    +0.000 A 
ATOM      6  C   UNL     1       9.901  11.111  19.568  0.00  0.00    +0.000 A 
ATOM      7  C   UNL     1       9.467   9.786  19.413  0.00  0.00    +0.000 A 
BRANCH   5   8
ATOM      8  C   UNL     1       9.841  13.523  18.759  0.00  0.00    +0.000 C 
ATOM      9  O   UNL     1      10.644  13.824  19.646  0.00  0.00    +0.000 OA
ATOM     10  N   UNL     1       9.204  14.412  17.905  0.00  0.00    +0.000 N 
ATOM     11  H   UNL     1       8.478  14.071  17.295  0.00  0.00    +0.000 HD
BRANCH  10  12
ATOM     12  C   UNL     1       9.355  15.828  17.951  0.00  0.00    +0.000 A 
ATOM     13  C   UNL     1       8.588  16.628  18.811  0.00  0.00    +0.000 A 
ATOM     14  C   UNL     1       8.716  18.017  18.819  0.00  0.00    +0.000 A 
ATOM     15  C   UNL     1       9.645  18.630  17.994  0.00  0.00    +0.000 A 
ATOM     16  C   UNL     1      10.452  17.851  17.163  0.00  0.00    +0.000 A 
ATOM     17  C   UNL     1      10.287  16.457  17.094  0.00  0.00    +0.000 A 
BRANCH  17  18
ATOM     18  N   UNL     1      11.167  15.712  16.273  0.00  0.00    +0.000 N 
ATOM     19  H   UNL     1      10.668  15.050  15.681  0.00  0.00    +0.000 HD
ATOM     20  H   UNL     1      11.884  15.236  16.810  0.00  0.00    +0.000 HD
ENDBRANCH  17  18
ENDBRANCH  10  12
ENDBRANCH   5   8
ENDBRANCH   1   2
BRANCH   1  21
ATOM     21  C   UNL     1       6.706   7.892  17.707  0.00  0.00    +0.000 C 
BRANCH  21  27
ATOM     22  C   UNL     1       4.804   4.327  17.170  0.00  0.00    +0.000 A 
ATOM     23  C   UNL     1       5.247   3.462  16.196  0.00  0.00    +0.000 A 
ATOM     24  C   UNL     1       6.140   3.987  15.295  0.00  0.00    +0.000 A 
ATOM     25  N   UNL     1       6.594   5.251  15.347  0.00  0.00    +0.000 NA
ATOM     26  C   UNL     1       6.113   6.024  16.325  0.00  0.00    +0.000 A 
ATOM     27  N   UNL     1       6.618   7.318  16.372  0.00  0.00    +0.000 N 
ATOM     28  N   UNL     1       5.225   5.606  17.236  0.00  0.00    +0.000 NA
ATOM     29  H   UNL     1       7.482   7.292  15.839  0.00  0.00    +0.000 HD
BRANCH  22  39
ATOM     30  C   UNL     1       3.818   1.322  18.142  0.00  0.00    +0.000 C 
ATOM     31  C   UNL     1       3.419   2.668  18.619  0.00  0.00    +0.000 A 
ATOM     32  N   UNL     1       2.467   2.753  19.607  0.00  0.00    +0.000 NA
ATOM     33  C   UNL     1       2.271   4.036  19.798  0.00  0.00    +0.000 A 
ATOM     34  C   UNL     1       1.385   4.711  20.687  0.00  0.00    +0.000 A 
ATOM     35  C   UNL     1       1.367   6.056  20.728  0.00  0.00    +0.000 A 
ATOM     36  C   UNL     1       2.247   6.845  19.886  0.00  0.00    +0.000 A 
ATOM     37  C   UNL     1       3.084   6.214  19.047  0.00  0.00    +0.000 A 
ATOM     38  N   UNL     1       3.091   4.814  18.981  0.00  0.00    +0.000 N 
ATOM     39  C   UNL     1       3.837   3.931  18.198  0.00  0.00    +0.000 A 
ENDBRANCH  22  39
ENDBRANCH  21  27
ENDBRANCH   1  21
TORSDOF 7
ENDMDL
MODEL 7
REMARK VINA RESULT:      -8.7      3.677     12.590
REMARK  Name = 
REMARK  8 active torsions:
REMARK  status: ('A' for Active; 'I' for Inactive)
REMARK    1  A    between atoms: C_1  and  C_2
REMARK    2  A    between atoms: C_10  and  C_11
REMARK    3  A    between atoms: N_16  and  C_17
REMARK    4  A    between atoms: C_17  and  C_18
REMARK    5  A    between atoms: C_18  and  C_19
REMARK    6  A    between atoms: C_22  and  C_23
REMARK    7  A    between atoms: N_25  and  C_26
REMARK    8  A    between atoms: C_31  and  N_32
REMARK                            x       y       z     vdW  Elec       q    Type
REMARK                         _______ _______ _______ _____ _____    ______ ____
ROOT
ATOM      1  C   UNL     1       1.380   8.665  17.652  0.00  0.00    +0.000 C 
ENDROOT
BRANCH   1   2
ATOM      2  C   UNL     1       0.679   9.642  18.572  0.00  0.00    +0.000 A 
ATOM      3  C   UNL     1      -0.500  10.266  18.151  0.00  0.00    +0.000 A 
ATOM      4  C   UNL     1      -1.110  11.224  18.957  0.00  0.00    +0.000 A 
ATOM      5  C   UNL     1      -0.558  11.579  20.199  0.00  0.00    +0.000 A 
ATOM      6  C   UNL     1       0.598  10.938  20.643  0.00  0.00    +0.000 A 
ATOM      7  C   UNL     1       1.213   9.975  19.829  0.00  0.00    +0.000 A 
BRANCH   5   8
ATOM      8  C   UNL     1      -1.293  12.607  20.980  0.00  0.00    +0.000 C 
ATOM      9  O   UNL     1      -1.628  13.623  20.365  0.00  0.00    +0.000 OA
ATOM     10  N   UNL     1      -1.453  12.394  22.342  0.00  0.00    +0.000 N 
ATOM     11  H   UNL     1      -1.037  11.576  22.762  0.00  0.00    +0.000 HD
BRANCH  10  12
ATOM     12  C   UNL     1      -2.000  13.343  23.252  0.00  0.00    +0.000 A 
ATOM     13  C   UNL     1      -1.221  14.364  23.816  0.00  0.00    +0.000 A 
ATOM     14  C   UNL     1      -1.758  15.263  24.736  0.00  0.00    +0.000 A 
ATOM     15  C   UNL     1      -3.098  15.184  25.080  0.00  0.00    +0.000 A 
ATOM     16  C   UNL     1      -3.903  14.205  24.496  0.00  0.00    +0.000 A 
ATOM     17  C   UNL     1      -3.362  13.249  23.619  0.00  0.00    +0.000 A 
BRANCH  17  18
ATOM     18  N   UNL     1      -4.235  12.312  23.017  0.00  0.00    +0.000 N 
ATOM     19  H   UNL     1      -4.786  11.805  23.708  0.00  0.00    +0.000 HD
ATOM     20  H   UNL     1      -3.744  11.664  22.411  0.00  0.00    +0.000 HD
ENDBRANCH  17  18
ENDBRANCH  10  12
ENDBRANCH   5   8
ENDBRANCH   1   2
BRANCH   1  21
ATOM     21  C   UNL     1       2.674   8.136  18.284  0.00  0.00    +0.000 C 
BRANCH  21  27
ATOM     22  C   UNL     1       4.486   4.817  16.761  0.00  0.00    +0.000 A 
ATOM     23  C   UNL     1       3.841   3.603  16.823  0.00  0.00    +0.000 A 
ATOM     24  C   UNL     1       2.738   3.557  17.638  0.00  0.00    +0.000 A 
ATOM     25  N   UNL     1       2.274   4.615  18.325  0.00  0.00    +0.000 NA
ATOM     26  C   UNL     1       2.961   5.756  18.209  0.00  0.00    +0.000 A 
ATOM     27  N   UNL     1       2.445   6.841  18.909  0.00  0.00    +0.000 N 
ATOM     28  N   UNL     1       4.058   5.891  17.455  0.00  0.00    +0.000 NA
ATOM     29  H   UNL     1       1.477   6.604  19.103  0.00  0.00    +0.000 HD
BRANCH  22  39
ATOM     30  C   UNL     1       7.272   6.463  17.456  0.00  0.00    +0.000 C 
ATOM     31  C   UNL     1       6.871   5.718  16.237  0.00  0.00    +0.000 A 
ATOM     32  N   UNL     1       7.742   5.690  15.174  0.00  0.00    +0.000 NA
ATOM     33  C   UNL     1       7.126   5.018  14.231  0.00  0.00    +0.000 A 
ATOM     34  C   UNL     1       7.543   4.693  12.909  0.00  0.00    +0.000 A 
ATOM     35  C   UNL     1       6.741   3.965  12.109  0.00  0.00    +0.000 A 
ATOM     36  C   UNL     1       5.452   3.489  12.571  0.00  0.00    +0.000 A 
ATOM     37  C   UNL     1       5.053   3.792  13.817  0.00  0.00    +0.000 A 
ATOM     38  N   UNL     1       5.872   4.570  14.648  0.00  0.00    +0.000 N 
ATOM     39  C   UNL     1       5.690   5.032  15.952  0.00  0.00    +0.000 A 
ENDBRANCH  22  39
ENDBRANCH  21  27
ENDBRANCH   1  21
TORSDOF 7
ENDMDL
MODEL 8
REMARK VINA RESULT:      -8.7      3.697     12.469
REMARK  Name = 
REMARK  8 active torsions:
REMARK  status: ('A' for Active; 'I' for Inactive)
REMARK    1  A    between atoms: C_1  and  C_2
REMARK    2  A    between atoms: C_10  and  C_11
REMARK    3  A    between atoms: N_16  and  C_17
REMARK    4  A    between atoms: C_17  and  C_18
REMARK    5  A    between atoms: C_18  and  C_19
REMARK    6  A    between atoms: C_22  and  C_23
REMARK    7  A    between atoms: N_25  and  C_26
REMARK    8  A    between atoms: C_31  and  N_32
REMARK                            x       y       z     vdW  Elec       q    Type
REMARK                         _______ _______ _______ _____ _____    ______ ____
ROOT
ATOM      1  C   UNL     1       1.481   8.703  17.422  0.00  0.00    +0.000 C 
ENDROOT
BRANCH   1   2
ATOM      2  C   UNL     1       0.599   9.639  18.222  0.00  0.00    +0.000 A 
ATOM      3  C   UNL     1       1.088  10.214  19.399  0.00  0.00    +0.000 A 
ATOM      4  C   UNL     1       0.260  11.014  20.183  0.00  0.00    +0.000 A 
ATOM      5  C   UNL     1      -1.072  11.257  19.808  0.00  0.00    +0.000 A 
ATOM      6  C   UNL     1      -1.559  10.717  18.618  0.00  0.00    +0.000 A 
ATOM      7  C   UNL     1      -0.724   9.909  17.831  0.00  0.00    +0.000 A 
BRANCH   5   8
ATOM      8  C   UNL     1      -1.865  12.130  20.713  0.00  0.00    +0.000 C 
ATOM      9  O   UNL     1      -2.637  12.922  20.168  0.00  0.00    +0.000 OA
ATOM     10  N   UNL     1      -1.603  12.056  22.074  0.00  0.00    +0.000 N 
ATOM     11  H   UNL     1      -0.866  11.450  22.400  0.00  0.00    +0.000 HD
BRANCH  10  12
ATOM     12  C   UNL     1      -2.167  12.922  23.054  0.00  0.00    +0.000 A 
ATOM     13  C   UNL     1      -3.351  12.601  23.735  0.00  0.00    +0.000 A 
ATOM     14  C   UNL     1      -3.915  13.474  24.664  0.00  0.00    +0.000 A 
ATOM     15  C   UNL     1      -3.281  14.670  24.962  0.00  0.00    +0.000 A 
ATOM     16  C   UNL     1      -2.078  14.990  24.332  0.00  0.00    +0.000 A 
ATOM     17  C   UNL     1      -1.533  14.152  23.343  0.00  0.00    +0.000 A 
BRANCH  17  18
ATOM     18  N   UNL     1      -0.285  14.501  22.774  0.00  0.00    +0.000 N 
ATOM     19  H   UNL     1       0.135  13.722  22.268  0.00  0.00    +0.000 HD
ATOM     20  H   UNL     1       0.363  14.866  23.463  0.00  0.00    +0.000 HD
ENDBRANCH  17  18
ENDBRANCH  10  12
ENDBRANCH   5   8
ENDBRANCH   1   2
BRANCH   1  21
ATOM     21  C   UNL     1       2.686   8.232  18.248  0.00  0.00    +0.000 C 
BRANCH  21  27
ATOM     22  C   UNL     1       4.438   4.864  16.762  0.00  0.00    +0.000 A 
ATOM     23  C   UNL     1       3.758   3.669  16.810  0.00  0.00    +0.000 A 
ATOM     24  C   UNL     1       2.637   3.652  17.602  0.00  0.00    +0.000 A 
ATOM     25  N   UNL     1       2.189   4.723  18.279  0.00  0.00    +0.000 NA
ATOM     26  C   UNL     1       2.908   5.845  18.178  0.00  0.00    +0.000 A 
ATOM     27  N   UNL     1       2.408   6.943  18.867  0.00  0.00    +0.000 N 
ATOM     28  N   UNL     1       4.025   5.949  17.447  0.00  0.00    +0.000 NA
ATOM     29  H   UNL     1       1.430   6.733  19.042  0.00  0.00    +0.000 HD
BRANCH  22  39
ATOM     30  C   UNL     1       7.256   6.424  17.519  0.00  0.00    +0.000 C 
ATOM     31  C   UNL     1       6.858   5.695  16.289  0.00  0.00    +0.000 A 
ATOM     32  N   UNL     1       7.749   5.645  15.244  0.00  0.00    +0.000 NA
ATOM     33  C   UNL     1       7.133   4.995  14.287  0.00  0.00    +0.000 A 
ATOM     34  C   UNL     1       7.567   4.662  12.971  0.00  0.00    +0.000 A 
ATOM     35  C   UNL     1       6.760   3.961  12.153  0.00  0.00    +0.000 A 
ATOM     36  C   UNL     1       5.448   3.522  12.587  0.00  0.00    +0.000 A 
ATOM     37  C   UNL     1       5.033   3.833  13.826  0.00  0.00    +0.000 A 
ATOM     38  N   UNL     1       5.857   4.583  14.676  0.00  0.00    +0.000 N 
ATOM     39  C   UNL     1       5.663   5.046  15.978  0.00  0.00    +0.000 A 
ENDBRANCH  22  39
ENDBRANCH  21  27
ENDBRANCH   1  21
TORSDOF 7
ENDMDL
MODEL 9
REMARK VINA RESULT:      -8.7      7.546     11.749
REMARK  Name = 
REMARK  8 active torsions:
REMARK  status: ('A' for Active; 'I' for Inactive)
REMARK    1  A    between atoms: C_1  and  C_2
REMARK    2  A    between atoms: C_10  and  C_11
REMARK    3  A    between atoms: N_16  and  C_17
REMARK    4  A    between atoms: C_17  and  C_18
REMARK    5  A    between atoms: C_18  and  C_19
REMARK    6  A    between atoms: C_22  and  C_23
REMARK    7  A    between atoms: N_25  and  C_26
REMARK    8  A    between atoms: C_31  and  N_32
REMARK                            x       y       z     vdW  Elec       q    Type
REMARK                         _______ _______ _______ _____ _____    ______ ____
ROOT
ATOM      1  C   UNL     1       7.342   8.946  17.971  0.00  0.00    +0.000 C 
ENDROOT
BRANCH   1   2
ATOM      2  C   UNL     1       8.249  10.129  18.231  0.00  0.00    +0.000 A 
ATOM      3  C   UNL     1       8.089  11.302  17.486  0.00  0.00    +0.000 A 
ATOM      4  C   UNL     1       8.968  12.368  17.663  0.00  0.00    +0.000 A 
ATOM      5  C   UNL     1      10.022  12.287  18.587  0.00  0.00    +0.000 A 
ATOM      6  C   UNL     1      10.170  11.136  19.360  0.00  0.00    +0.000 A 
ATOM      7  C   UNL     1       9.286  10.061  19.179  0.00  0.00    +0.000 A 
BRANCH   5   8
ATOM      8  C   UNL     1      10.896  13.484  18.701  0.00  0.00    +0.000 C 
ATOM      9  O   UNL     1      12.068  13.275  19.021  0.00  0.00    +0.000 OA
ATOM     10  N   UNL     1      10.308  14.731  18.539  0.00  0.00    +0.000 N 
ATOM     11  H   UNL     1       9.312  14.788  18.391  0.00  0.00    +0.000 HD
BRANCH  10  12
ATOM     12  C   UNL     1      10.970  15.973  18.760  0.00  0.00    +0.000 A 
ATOM     13  C   UNL     1      11.575  16.686  17.714  0.00  0.00    +0.000 A 
ATOM     14  C   UNL     1      12.254  17.882  17.948  0.00  0.00    +0.000 A 
ATOM     15  C   UNL     1      12.306  18.408  19.229  0.00  0.00    +0.000 A 
ATOM     16  C   UNL     1      11.673  17.739  20.277  0.00  0.00    +0.000 A 
ATOM     17  C   UNL     1      11.043  16.500  20.069  0.00  0.00    +0.000 A 
BRANCH  17  18
ATOM     18  N   UNL     1      10.373  15.891  21.157  0.00  0.00    +0.000 N 
ATOM     19  H   UNL     1      10.879  16.010  22.033  0.00  0.00    +0.000 HD
ATOM     20  H   UNL     1      10.180  14.909  20.990  0.00  0.00    +0.000 HD
ENDBRANCH  17  18
ENDBRANCH  10  12
ENDBRANCH   5   8
ENDBRANCH   1   2
BRANCH   1  21
ATOM     21  C   UNL     1       8.143   7.640  17.874  0.00  0.00    +0.000 C 
BRANCH  21  27
ATOM     22  C   UNL     1       4.989   5.092  17.458  0.00  0.00    +0.000 A 
ATOM     23  C   UNL     1       5.098   4.010  16.615  0.00  0.00    +0.000 A 
ATOM     24  C   UNL     1       6.179   4.021  15.769  0.00  0.00    +0.000 A 
ATOM     25  N   UNL     1       7.104   4.996  15.757  0.00  0.00    +0.000 NA
ATOM     26  C   UNL     1       6.923   6.010  16.608  0.00  0.00    +0.000 A 
ATOM     27  N   UNL     1       7.908   6.990  16.593  0.00  0.00    +0.000 N 
ATOM     28  N   UNL     1       5.889   6.095  17.454  0.00  0.00    +0.000 NA
ATOM     29  H   UNL     1       8.716   6.557  16.157  0.00  0.00    +0.000 HD
BRANCH  22  39
ATOM     30  C   UNL     1       2.854   7.583  17.888  0.00  0.00    +0.000 C 
ATOM     31  C   UNL     1       2.975   6.285  18.596  0.00  0.00    +0.000 A 
ATOM     32  N   UNL     1       2.108   6.022  19.629  0.00  0.00    +0.000 NA
ATOM     33  C   UNL     1       2.464   4.851  20.099  0.00  0.00    +0.000 A 
ATOM     34  C   UNL     1       1.931   4.091  21.179  0.00  0.00    +0.000 A 
ATOM     35  C   UNL     1       2.451   2.885  21.477  0.00  0.00    +0.000 A 
ATOM     36  C   UNL     1       3.549   2.331  20.707  0.00  0.00    +0.000 A 
ATOM     37  C   UNL     1       4.055   3.043  19.687  0.00  0.00    +0.000 A 
ATOM     38  N   UNL     1       3.535   4.310  19.387  0.00  0.00    +0.000 N 
ATOM     39  C   UNL     1       3.885   5.243  18.410  0.00  0.00    +0.000 A 
ENDBRANCH  22  39
ENDBRANCH  21  27
ENDBRANCH   1  21
TORSDOF 7
ENDMDL
