MODEL 1
REMARK VINA RESULT:      -8.0      0.000      0.000
REMARK  Name = 
REMARK  3 active torsions:
REMARK  status: ('A' for Active; 'I' for Inactive)
REMARK    1  A    between atoms: C_1  and  C_2
REMARK    2  A    between atoms: C_9  and  O_10
REMARK    3  A    between atoms: C_12  and  C_13
REMARK                            x       y       z     vdW  Elec       q    Type
REMARK                         _______ _______ _______ _____ _____    ______ ____
ROOT
ATOM      1  C   UNL     1       8.041   5.291  12.699  0.00  0.00    +0.000 C 
ATOM      2  C   UNL     1       6.917   4.821  13.582  0.00  0.00    +0.000 C 
ATOM      3  O   UNL     1       6.125   3.965  13.199  0.00  0.00    +0.000 OA
ATOM      4  N   UNL     1       6.903   5.425  14.822  0.00  0.00    +0.000 N 
ATOM      5  C   UNL     1       5.958   5.102  15.800  0.00  0.00    +0.000 A 
ATOM      6  C   UNL     1       5.625   3.789  16.064  0.00  0.00    +0.000 A 
ATOM      7  C   UNL     1       4.676   3.544  17.047  0.00  0.00    +0.000 A 
ATOM      8  C   UNL     1       4.039   4.625  17.683  0.00  0.00    +0.000 A 
ATOM      9  C   UNL     1       3.008   4.493  18.626  0.00  0.00    +0.000 A 
ATOM     10  C   UNL     1       2.359   5.610  19.116  0.00  0.00    +0.000 A 
ATOM     11  C   UNL     1       2.749   6.855  18.657  0.00  0.00    +0.000 A 
ATOM     12  N   UNL     1       3.812   7.006  17.826  0.00  0.00    +0.000 NA
ATOM     13  C   UNL     1       4.442   5.930  17.338  0.00  0.00    +0.000 A 
ATOM     14  N   UNL     1       5.431   6.147  16.466  0.00  0.00    +0.000 NA
ATOM     15  H   UNL     1       7.246   6.374  14.890  0.00  0.00    +0.000 HD
ENDROOT
BRANCH  11  16
ATOM     16  C   UNL     1       1.980   8.079  18.977  0.00  0.00    +0.000 A 
ATOM     17  C   UNL     1       1.688   9.042  17.999  0.00  0.00    +0.000 A 
ATOM     18  C   UNL     1       0.930  10.180  18.307  0.00  0.00    +0.000 A 
ATOM     19  C   UNL     1       0.442  10.374  19.597  0.00  0.00    +0.000 A 
ATOM     20  C   UNL     1       0.717   9.436  20.583  0.00  0.00    +0.000 A 
ATOM     21  C   UNL     1       1.475   8.302  20.276  0.00  0.00    +0.000 A 
ENDBRANCH  11  16
BRANCH   9  22
ATOM     22  O   UNL     1       2.535   3.295  19.092  0.00  0.00    +0.000 OA
ATOM     23  H   UNL     1       1.850   3.437  19.762  0.00  0.00    +0.000 HD
ENDBRANCH   9  22
TORSDOF 2
ENDMDL
MODEL 2
REMARK VINA RESULT:      -8.0      0.087      1.052
REMARK  Name = 
REMARK  3 active torsions:
REMARK  status: ('A' for Active; 'I' for Inactive)
REMARK    1  A    between atoms: C_1  and  C_2
REMARK    2  A    between atoms: C_9  and  O_10
REMARK    3  A    between atoms: C_12  and  C_13
REMARK                            x       y       z     vdW  Elec       q    Type
REMARK                         _______ _______ _______ _____ _____    ______ ____
ROOT
ATOM      1  C   UNL     1       7.884   5.238  12.595  0.00  0.00    +0.000 C 
ATOM      2  C   UNL     1       6.796   4.768  13.522  0.00  0.00    +0.000 C 
ATOM      3  O   UNL     1       6.010   3.888  13.182  0.00  0.00    +0.000 OA
ATOM      4  N   UNL     1       6.805   5.402  14.747  0.00  0.00    +0.000 N 
ATOM      5  C   UNL     1       5.894   5.084  15.759  0.00  0.00    +0.000 A 
ATOM      6  C   UNL     1       5.595   3.772  16.063  0.00  0.00    +0.000 A 
ATOM      7  C   UNL     1       4.680   3.532  17.079  0.00  0.00    +0.000 A 
ATOM      8  C   UNL     1       4.040   4.616  17.707  0.00  0.00    +0.000 A 
ATOM      9  C   UNL     1       3.039   4.486  18.683  0.00  0.00    +0.000 A 
ATOM     10  C   UNL     1       2.382   5.602  19.165  0.00  0.00    +0.000 A 
ATOM     11  C   UNL     1       2.733   6.844  18.666  0.00  0.00    +0.000 A 
ATOM     12  N   UNL     1       3.769   6.995  17.801  0.00  0.00    +0.000 NA
ATOM     13  C   UNL     1       4.406   5.920  17.320  0.00  0.00    +0.000 A 
ATOM     14  N   UNL     1       5.365   6.135  16.416  0.00  0.00    +0.000 NA
ATOM     15  H   UNL     1       7.131   6.359  14.782  0.00  0.00    +0.000 HD
ENDROOT
BRANCH  11  16
ATOM     16  C   UNL     1       1.949   8.059  18.978  0.00  0.00    +0.000 A 
ATOM     17  C   UNL     1       1.483   8.322  20.275  0.00  0.00    +0.000 A 
ATOM     18  C   UNL     1       0.771   9.493  20.566  0.00  0.00    +0.000 A 
ATOM     19  C   UNL     1       0.517  10.430  19.567  0.00  0.00    +0.000 A 
ATOM     20  C   UNL     1       0.968  10.194  18.275  0.00  0.00    +0.000 A 
ATOM     21  C   UNL     1       1.676   9.024  17.985  0.00  0.00    +0.000 A 
ENDBRANCH  11  16
BRANCH   9  22
ATOM     22  O   UNL     1       2.604   3.292  19.190  0.00  0.00    +0.000 OA
ATOM     23  H   UNL     1       3.133   2.560  18.840  0.00  0.00    +0.000 HD
ENDBRANCH   9  22
TORSDOF 2
ENDMDL
MODEL 3
REMARK VINA RESULT:      -7.7      2.695      7.117
REMARK  Name = 
REMARK  3 active torsions:
REMARK  status: ('A' for Active; 'I' for Inactive)
REMARK    1  A    between atoms: C_1  and  C_2
REMARK    2  A    between atoms: C_9  and  O_10
REMARK    3  A    between atoms: C_12  and  C_13
REMARK                            x       y       z     vdW  Elec       q    Type
REMARK                         _______ _______ _______ _____ _____    ______ ____
ROOT
ATOM      1  C   UNL     1       0.473  13.386  18.523  0.00  0.00    +0.000 C 
ATOM      2  C   UNL     1       0.975  12.146  19.212  0.00  0.00    +0.000 C 
ATOM      3  O   UNL     1       1.412  12.191  20.359  0.00  0.00    +0.000 OA
ATOM      4  N   UNL     1       0.867  11.007  18.441  0.00  0.00    +0.000 N 
ATOM      5  C   UNL     1       1.249   9.748  18.912  0.00  0.00    +0.000 A 
ATOM      6  C   UNL     1       0.907   9.327  20.181  0.00  0.00    +0.000 A 
ATOM      7  C   UNL     1       1.323   8.065  20.582  0.00  0.00    +0.000 A 
ATOM      8  C   UNL     1       2.130   7.295  19.725  0.00  0.00    +0.000 A 
ATOM      9  C   UNL     1       2.676   6.046  20.062  0.00  0.00    +0.000 A 
ATOM     10  C   UNL     1       3.552   5.410  19.204  0.00  0.00    +0.000 A 
ATOM     11  C   UNL     1       3.877   6.030  18.010  0.00  0.00    +0.000 A 
ATOM     12  N   UNL     1       3.277   7.186  17.624  0.00  0.00    +0.000 NA
ATOM     13  C   UNL     1       2.434   7.816  18.452  0.00  0.00    +0.000 A 
ATOM     14  N   UNL     1       1.938   8.986  18.041  0.00  0.00    +0.000 NA
ATOM     15  H   UNL     1       0.950  11.106  17.438  0.00  0.00    +0.000 HD
ENDROOT
BRANCH  11  16
ATOM     16  C   UNL     1       4.951   5.517  17.133  0.00  0.00    +0.000 A 
ATOM     17  C   UNL     1       6.226   6.103  17.107  0.00  0.00    +0.000 A 
ATOM     18  C   UNL     1       7.245   5.586  16.297  0.00  0.00    +0.000 A 
ATOM     19  C   UNL     1       7.013   4.467  15.500  0.00  0.00    +0.000 A 
ATOM     20  C   UNL     1       5.761   3.868  15.507  0.00  0.00    +0.000 A 
ATOM     21  C   UNL     1       4.744   4.386  16.314  0.00  0.00    +0.000 A 
ENDBRANCH  11  16
BRANCH   9  22
ATOM     22  O   UNL     1       2.441   5.392  21.242  0.00  0.00    +0.000 OA
ATOM     23  H   UNL     1       3.145   4.752  21.422  0.00  0.00    +0.000 HD
ENDBRANCH   9  22
TORSDOF 2
ENDMDL
MODEL 4
REMARK VINA RESULT:      -7.7      2.696      7.109
REMARK  Name = 
REMARK  3 active torsions:
REMARK  status: ('A' for Active; 'I' for Inactive)
REMARK    1  A    between atoms: C_1  and  C_2
REMARK    2  A    between atoms: C_9  and  O_10
REMARK    3  A    between atoms: C_12  and  C_13
REMARK                            x       y       z     vdW  Elec       q    Type
REMARK                         _______ _______ _______ _____ _____    ______ ____
ROOT
ATOM      1  C   UNL     1       0.536  13.421  18.532  0.00  0.00    +0.000 C 
ATOM      2  C   UNL     1       1.018  12.174  19.223  0.00  0.00    +0.000 C 
ATOM      3  O   UNL     1       1.447  12.211  20.373  0.00  0.00    +0.000 OA
ATOM      4  N   UNL     1       0.902  11.038  18.449  0.00  0.00    +0.000 N 
ATOM      5  C   UNL     1       1.265   9.773  18.921  0.00  0.00    +0.000 A 
ATOM      6  C   UNL     1       0.908   9.354  20.187  0.00  0.00    +0.000 A 
ATOM      7  C   UNL     1       1.306   8.087  20.588  0.00  0.00    +0.000 A 
ATOM      8  C   UNL     1       2.110   7.308  19.736  0.00  0.00    +0.000 A 
ATOM      9  C   UNL     1       2.638   6.052  20.074  0.00  0.00    +0.000 A 
ATOM     10  C   UNL     1       3.512   5.407  19.222  0.00  0.00    +0.000 A 
ATOM     11  C   UNL     1       3.853   6.025  18.032  0.00  0.00    +0.000 A 
ATOM     12  N   UNL     1       3.271   7.189  17.643  0.00  0.00    +0.000 NA
ATOM     13  C   UNL     1       2.430   7.827  18.466  0.00  0.00    +0.000 A 
ATOM     14  N   UNL     1       1.951   9.004  18.053  0.00  0.00    +0.000 NA
ATOM     15  H   UNL     1       0.993  11.137  17.447  0.00  0.00    +0.000 HD
ENDROOT
BRANCH  11  16
ATOM     16  C   UNL     1       4.928   5.500  17.161  0.00  0.00    +0.000 A 
ATOM     17  C   UNL     1       4.755   4.334  16.398  0.00  0.00    +0.000 A 
ATOM     18  C   UNL     1       5.768   3.865  15.552  0.00  0.00    +0.000 A 
ATOM     19  C   UNL     1       6.973   4.556  15.443  0.00  0.00    +0.000 A 
ATOM     20  C   UNL     1       7.169   5.713  16.186  0.00  0.00    +0.000 A 
ATOM     21  C   UNL     1       6.159   6.179  17.033  0.00  0.00    +0.000 A 
ENDBRANCH  11  16
BRANCH   9  22
ATOM     22  O   UNL     1       2.386   5.399  21.251  0.00  0.00    +0.000 OA
ATOM     23  H   UNL     1       1.443   5.196  21.333  0.00  0.00    +0.000 HD
ENDBRANCH   9  22
TORSDOF 2
ENDMDL
MODEL 5
REMARK VINA RESULT:      -7.5      3.848      5.293
REMARK  Name = 
REMARK  3 active torsions:
REMARK  status: ('A' for Active; 'I' for Inactive)
REMARK    1  A    between atoms: C_1  and  C_2
REMARK    2  A    between atoms: C_9  and  O_10
REMARK    3  A    between atoms: C_12  and  C_13
REMARK                            x       y       z     vdW  Elec       q    Type
REMARK                         _______ _______ _______ _____ _____    ______ ____
ROOT
ATOM      1  C   UNL     1       9.516  10.092  19.377  0.00  0.00    +0.000 C 
ATOM      2  C   UNL     1       8.593   9.286  18.504  0.00  0.00    +0.000 C 
ATOM      3  O   UNL     1       8.042   9.789  17.529  0.00  0.00    +0.000 OA
ATOM      4  N   UNL     1       8.467   7.971  18.903  0.00  0.00    +0.000 N 
ATOM      5  C   UNL     1       7.680   7.050  18.205  0.00  0.00    +0.000 A 
ATOM      6  C   UNL     1       7.718   6.980  16.827  0.00  0.00    +0.000 A 
ATOM      7  C   UNL     1       6.908   6.043  16.201  0.00  0.00    +0.000 A 
ATOM      8  C   UNL     1       6.032   5.257  16.971  0.00  0.00    +0.000 A 
ATOM      9  C   UNL     1       5.110   4.343  16.437  0.00  0.00    +0.000 A 
ATOM     10  C   UNL     1       4.208   3.696  17.259  0.00  0.00    +0.000 A 
ATOM     11  C   UNL     1       4.235   3.969  18.615  0.00  0.00    +0.000 A 
ATOM     12  N   UNL     1       5.187   4.769  19.160  0.00  0.00    +0.000 NA
ATOM     13  C   UNL     1       6.060   5.409  18.372  0.00  0.00    +0.000 A 
ATOM     14  N   UNL     1       6.921   6.240  18.966  0.00  0.00    +0.000 NA
ATOM     15  H   UNL     1       8.548   7.767  19.890  0.00  0.00    +0.000 HD
ENDROOT
BRANCH  11  16
ATOM     16  C   UNL     1       3.182   3.475  19.530  0.00  0.00    +0.000 A 
ATOM     17  C   UNL     1       3.495   2.879  20.761  0.00  0.00    +0.000 A 
ATOM     18  C   UNL     1       2.489   2.446  21.634  0.00  0.00    +0.000 A 
ATOM     19  C   UNL     1       1.146   2.607  21.297  0.00  0.00    +0.000 A 
ATOM     20  C   UNL     1       0.809   3.195  20.085  0.00  0.00    +0.000 A 
ATOM     21  C   UNL     1       1.814   3.625  19.214  0.00  0.00    +0.000 A 
ENDBRANCH  11  16
BRANCH   9  22
ATOM     22  O   UNL     1       4.991   4.056  15.104  0.00  0.00    +0.000 OA
ATOM     23  H   UNL     1       5.697   4.486  14.598  0.00  0.00    +0.000 HD
ENDBRANCH   9  22
TORSDOF 2
ENDMDL
MODEL 6
REMARK VINA RESULT:      -7.4      3.358      4.266
REMARK  Name = 
REMARK  3 active torsions:
REMARK  status: ('A' for Active; 'I' for Inactive)
REMARK    1  A    between atoms: C_1  and  C_2
REMARK    2  A    between atoms: C_9  and  O_10
REMARK    3  A    between atoms: C_12  and  C_13
REMARK                            x       y       z     vdW  Elec       q    Type
REMARK                         _______ _______ _______ _____ _____    ______ ____
ROOT
ATOM      1  C   UNL     1       4.727   3.203  10.752  0.00  0.00    +0.000 C 
ATOM      2  C   UNL     1       5.433   3.231  12.081  0.00  0.00    +0.000 C 
ATOM      3  O   UNL     1       6.433   2.548  12.282  0.00  0.00    +0.000 OA
ATOM      4  N   UNL     1       4.858   4.094  12.991  0.00  0.00    +0.000 N 
ATOM      5  C   UNL     1       5.384   4.288  14.271  0.00  0.00    +0.000 A 
ATOM      6  C   UNL     1       6.740   4.448  14.468  0.00  0.00    +0.000 A 
ATOM      7  C   UNL     1       7.191   4.634  15.768  0.00  0.00    +0.000 A 
ATOM      8  C   UNL     1       6.276   4.581  16.835  0.00  0.00    +0.000 A 
ATOM      9  C   UNL     1       6.633   4.669  18.190  0.00  0.00    +0.000 A 
ATOM     10  C   UNL     1       5.684   4.492  19.177  0.00  0.00    +0.000 A 
ATOM     11  C   UNL     1       4.379   4.227  18.801  0.00  0.00    +0.000 A 
ATOM     12  N   UNL     1       3.998   4.242  17.498  0.00  0.00    +0.000 NA
ATOM     13  C   UNL     1       4.911   4.403  16.532  0.00  0.00    +0.000 A 
ATOM     14  N   UNL     1       4.481   4.332  15.270  0.00  0.00    +0.000 NA
ATOM     15  H   UNL     1       3.859   4.240  12.938  0.00  0.00    +0.000 HD
ENDROOT
BRANCH  11  16
ATOM     16  C   UNL     1       3.349   3.830  19.787  0.00  0.00    +0.000 A 
ATOM     17  C   UNL     1       2.094   4.455  19.833  0.00  0.00    +0.000 A 
ATOM     18  C   UNL     1       1.115   4.048  20.749  0.00  0.00    +0.000 A 
ATOM     19  C   UNL     1       1.368   3.001  21.634  0.00  0.00    +0.000 A 
ATOM     20  C   UNL     1       2.602   2.366  21.608  0.00  0.00    +0.000 A 
ATOM     21  C   UNL     1       3.579   2.775  20.695  0.00  0.00    +0.000 A 
ENDBRANCH  11  16
BRANCH   9  22
ATOM     22  O   UNL     1       7.908   4.881  18.641  0.00  0.00    +0.000 OA
ATOM     23  H   UNL     1       8.499   4.177  18.334  0.00  0.00    +0.000 HD
ENDBRANCH   9  22
TORSDOF 2
ENDMDL
MODEL 7
REMARK VINA RESULT:      -7.4      3.365      4.337
REMARK  Name = 
REMARK  3 active torsions:
REMARK  status: ('A' for Active; 'I' for Inactive)
REMARK    1  A    between atoms: C_1  and  C_2
REMARK    2  A    between atoms: C_9  and  O_10
REMARK    3  A    between atoms: C_12  and  C_13
REMARK                            x       y       z     vdW  Elec       q    Type
REMARK                         _______ _______ _______ _____ _____    ______ ____
ROOT
ATOM      1  C   UNL     1       4.820   3.174  10.701  0.00  0.00    +0.000 C 
ATOM      2  C   UNL     1       5.515   3.212  12.035  0.00  0.00    +0.000 C 
ATOM      3  O   UNL     1       6.524   2.545  12.244  0.00  0.00    +0.000 OA
ATOM      4  N   UNL     1       4.919   4.066  12.941  0.00  0.00    +0.000 N 
ATOM      5  C   UNL     1       5.432   4.267  14.225  0.00  0.00    +0.000 A 
ATOM      6  C   UNL     1       6.784   4.449  14.433  0.00  0.00    +0.000 A 
ATOM      7  C   UNL     1       7.222   4.641  15.737  0.00  0.00    +0.000 A 
ATOM      8  C   UNL     1       6.299   4.573  16.796  0.00  0.00    +0.000 A 
ATOM      9  C   UNL     1       6.644   4.667  18.154  0.00  0.00    +0.000 A 
ATOM     10  C   UNL     1       5.690   4.474  19.134  0.00  0.00    +0.000 A 
ATOM     11  C   UNL     1       4.392   4.188  18.748  0.00  0.00    +0.000 A 
ATOM     12  N   UNL     1       4.022   4.198  17.441  0.00  0.00    +0.000 NA
ATOM     13  C   UNL     1       4.940   4.374  16.483  0.00  0.00    +0.000 A 
ATOM     14  N   UNL     1       4.521   4.296  15.217  0.00  0.00    +0.000 NA
ATOM     15  H   UNL     1       3.918   4.196  12.880  0.00  0.00    +0.000 HD
ENDROOT
BRANCH  11  16
ATOM     16  C   UNL     1       3.361   3.775  19.725  0.00  0.00    +0.000 A 
ATOM     17  C   UNL     1       3.590   2.738  20.643  0.00  0.00    +0.000 A 
ATOM     18  C   UNL     1       2.618   2.378  21.586  0.00  0.00    +0.000 A 
ATOM     19  C   UNL     1       1.400   3.053  21.636  0.00  0.00    +0.000 A 
ATOM     20  C   UNL     1       1.150   4.083  20.740  0.00  0.00    +0.000 A 
ATOM     21  C   UNL     1       2.119   4.440  19.798  0.00  0.00    +0.000 A 
ENDBRANCH  11  16
BRANCH   9  22
ATOM     22  O   UNL     1       7.912   4.899  18.615  0.00  0.00    +0.000 OA
ATOM     23  H   UNL     1       7.978   5.786  18.998  0.00  0.00    +0.000 HD
ENDBRANCH   9  22
TORSDOF 2
ENDMDL
MODEL 8
REMARK VINA RESULT:      -7.3      3.869      5.219
REMARK  Name = 
REMARK  3 active torsions:
REMARK  status: ('A' for Active; 'I' for Inactive)
REMARK    1  A    between atoms: C_1  and  C_2
REMARK    2  A    between atoms: C_9  and  O_10
REMARK    3  A    between atoms: C_12  and  C_13
REMARK                            x       y       z     vdW  Elec       q    Type
REMARK                         _______ _______ _______ _____ _____    ______ ____
ROOT
ATOM      1  C   UNL     1       9.562  10.056  19.418  0.00  0.00    +0.000 C 
ATOM      2  C   UNL     1       8.627   9.273  18.536  0.00  0.00    +0.000 C 
ATOM      3  O   UNL     1       8.087   9.794  17.564  0.00  0.00    +0.000 OA
ATOM      4  N   UNL     1       8.477   7.958  18.925  0.00  0.00    +0.000 N 
ATOM      5  C   UNL     1       7.676   7.057  18.217  0.00  0.00    +0.000 A 
ATOM      6  C   UNL     1       7.717   6.997  16.839  0.00  0.00    +0.000 A 
ATOM      7  C   UNL     1       6.892   6.079  16.204  0.00  0.00    +0.000 A 
ATOM      8  C   UNL     1       6.001   5.302  16.966  0.00  0.00    +0.000 A 
ATOM      9  C   UNL     1       5.064   4.409  16.422  0.00  0.00    +0.000 A 
ATOM     10  C   UNL     1       4.149   3.771  17.236  0.00  0.00    +0.000 A 
ATOM     11  C   UNL     1       4.176   4.033  18.595  0.00  0.00    +0.000 A 
ATOM     12  N   UNL     1       5.141   4.812  19.149  0.00  0.00    +0.000 NA
ATOM     13  C   UNL     1       6.027   5.443  18.368  0.00  0.00    +0.000 A 
ATOM     14  N   UNL     1       6.901   6.253  18.970  0.00  0.00    +0.000 NA
ATOM     15  H   UNL     1       8.552   7.744  19.910  0.00  0.00    +0.000 HD
ENDROOT
BRANCH  11  16
ATOM     16  C   UNL     1       3.113   3.551  19.503  0.00  0.00    +0.000 A 
ATOM     17  C   UNL     1       1.761   3.562  19.127  0.00  0.00    +0.000 A 
ATOM     18  C   UNL     1       0.766   3.071  19.982  0.00  0.00    +0.000 A 
ATOM     19  C   UNL     1       1.103   2.551  21.230  0.00  0.00    +0.000 A 
ATOM     20  C   UNL     1       2.434   2.528  21.626  0.00  0.00    +0.000 A 
ATOM     21  C   UNL     1       3.425   3.020  20.773  0.00  0.00    +0.000 A 
ENDBRANCH  11  16
BRANCH   9  22
ATOM     22  O   UNL     1       4.944   4.134  15.086  0.00  0.00    +0.000 OA
ATOM     23  H   UNL     1       4.511   4.868  14.625  0.00  0.00    +0.000 HD
ENDBRANCH   9  22
TORSDOF 2
ENDMDL
MODEL 9
REMARK VINA RESULT:      -7.1      4.430      8.358
REMARK  Name = 
REMARK  3 active torsions:
REMARK  status: ('A' for Active; 'I' for Inactive)
REMARK    1  A    between atoms: C_1  and  C_2
REMARK    2  A    between atoms: C_9  and  O_10
REMARK    3  A    between atoms: C_12  and  C_13
REMARK                            x       y       z     vdW  Elec       q    Type
REMARK                         _______ _______ _______ _____ _____    ______ ____
ROOT
ATOM      1  C   UNL     1      -2.206  12.538  23.324  0.00  0.00    +0.000 C 
ATOM      2  C   UNL     1      -1.625  11.932  22.075  0.00  0.00    +0.000 C 
ATOM      3  O   UNL     1      -2.131  12.138  20.976  0.00  0.00    +0.000 OA
ATOM      4  N   UNL     1      -0.496  11.173  22.307  0.00  0.00    +0.000 N 
ATOM      5  C   UNL     1       0.211  10.552  21.273  0.00  0.00    +0.000 A 
ATOM      6  C   UNL     1       0.491  11.220  20.099  0.00  0.00    +0.000 A 
ATOM      7  C   UNL     1       1.195  10.539  19.115  0.00  0.00    +0.000 A 
ATOM      8  C   UNL     1       1.532   9.188  19.312  0.00  0.00    +0.000 A 
ATOM      9  C   UNL     1       2.164   8.382  18.352  0.00  0.00    +0.000 A 
ATOM     10  C   UNL     1       2.354   7.033  18.585  0.00  0.00    +0.000 A 
ATOM     11  C   UNL     1       1.908   6.499  19.781  0.00  0.00    +0.000 A 
ATOM     12  N   UNL     1       1.390   7.284  20.760  0.00  0.00    +0.000 NA
ATOM     13  C   UNL     1       1.192   8.590  20.542  0.00  0.00    +0.000 A 
ATOM     14  N   UNL     1       0.609   9.289  21.519  0.00  0.00    +0.000 NA
ATOM     15  H   UNL     1      -0.424  10.691  23.193  0.00  0.00    +0.000 HD
ENDROOT
BRANCH  11  16
ATOM     16  C   UNL     1       1.893   5.040  20.024  0.00  0.00    +0.000 A 
ATOM     17  C   UNL     1       1.622   4.124  18.996  0.00  0.00    +0.000 A 
ATOM     18  C   UNL     1       1.643   2.743  19.231  0.00  0.00    +0.000 A 
ATOM     19  C   UNL     1       1.943   2.248  20.499  0.00  0.00    +0.000 A 
ATOM     20  C   UNL     1       2.216   3.133  21.533  0.00  0.00    +0.000 A 
ATOM     21  C   UNL     1       2.192   4.511  21.298  0.00  0.00    +0.000 A 
ENDBRANCH  11  16
BRANCH   9  22
ATOM     22  O   UNL     1       2.590   8.826  17.129  0.00  0.00    +0.000 OA
ATOM     23  H   UNL     1       3.183   9.585  17.230  0.00  0.00    +0.000 HD
ENDBRANCH   9  22
TORSDOF 2
ENDMDL
