MODEL 1
REMARK VINA RESULT:      -7.0      0.000      0.000
REMARK  Name = 
REMARK  5 active torsions:
REMARK  status: ('A' for Active; 'I' for Inactive)
REMARK    1  A    between atoms: C_1  and  C_2
REMARK    2  A    between atoms: C_6  and  C_7
REMARK    3  A    between atoms: C_17  and  C_18
REMARK    4  A    between atoms: C_17  and  C_19
REMARK    5  A    between atoms: C_23  and  O_24
REMARK                            x       y       z     vdW  Elec       q    Type
REMARK                         _______ _______ _______ _____ _____    ______ ____
ROOT
ATOM      1  C   UNL     1       2.504  11.424  18.153  0.00  0.00    +0.000 C 
ATOM      2  C   UNL     1       1.106  10.785  18.051  0.00  0.00    +0.000 C 
ATOM      3  C   UNL     1       1.286   9.290  17.726  0.00  0.00    +0.000 C 
ATOM      4  N   UNL     1       1.922   8.597  18.853  0.00  0.00    +0.000 NA
ATOM      5  C   UNL     1       2.323   7.239  18.472  0.00  0.00    +0.000 C 
ATOM      6  C   UNL     1       2.441   6.130  19.583  0.00  0.00    +0.000 C 
ATOM      7  N   UNL     1       1.829   6.430  20.893  0.00  0.00    +0.000 NA
ATOM      8  C   UNL     1       1.748   7.858  21.187  0.00  0.00    +0.000 C 
ATOM      9  C   UNL     1       1.057   8.615  20.038  0.00  0.00    +0.000 C 
ATOM     10  C   UNL     1       0.801  10.068  20.466  0.00  0.00    +0.000 C 
ATOM     11  C   UNL     1       0.225  10.972  19.336  0.00  0.00    +0.000 C 
ATOM     12  C   UNL     1      -1.238  10.512  19.054  0.00  0.00    +0.000 C 
ATOM     13  H   UNL     1       2.366   5.971  21.626  0.00  0.00    +0.000 HD
ENDROOT
BRANCH   6  14
ATOM     14  C   UNL     1       1.805   4.812  19.029  0.00  0.00    +0.000 C 
ATOM     15  C   UNL     1       2.577   4.232  17.824  0.00  0.00    +0.000 C 
ATOM     16  C   UNL     1       3.896   3.575  18.223  0.00  0.00    +0.000 C 
ATOM     17  C   UNL     1       3.702   2.521  19.309  0.00  0.00    +0.000 C 
ATOM     18  C   UNL     1       2.919   3.054  20.504  0.00  0.00    +0.000 C 
ATOM     19  C   UNL     1       1.609   3.696  20.071  0.00  0.00    +0.000 C 
ENDBRANCH   6  14
BRANCH  11  20
ATOM     20  C   UNL     1       0.131  12.460  19.748  0.00  0.00    +0.000 A 
ATOM     21  C   UNL     1      -0.454  13.411  18.891  0.00  0.00    +0.000 A 
ATOM     22  C   UNL     1      -0.583  14.753  19.267  0.00  0.00    +0.000 A 
ATOM     23  C   UNL     1      -0.123  15.182  20.510  0.00  0.00    +0.000 A 
ATOM     24  C   UNL     1       0.465  14.262  21.363  0.00  0.00    +0.000 A 
ATOM     25  C   UNL     1       0.591  12.922  20.997  0.00  0.00    +0.000 A 
BRANCH  24  26
ATOM     26  O   UNL     1       0.936  14.618  22.591  0.00  0.00    +0.000 OA
ATOM     27  H   UNL     1       0.754  13.888  23.209  0.00  0.00    +0.000 HD
ENDBRANCH  24  26
ENDBRANCH  11  20
TORSDOF 3
ENDMDL
MODEL 2
REMARK VINA RESULT:      -7.0      0.934      1.334
REMARK  Name = 
REMARK  5 active torsions:
REMARK  status: ('A' for Active; 'I' for Inactive)
REMARK    1  A    between atoms: C_1  and  C_2
REMARK    2  A    between atoms: C_6  and  C_7
REMARK    3  A    between atoms: C_17  and  C_18
REMARK    4  A    between atoms: C_17  and  C_19
REMARK    5  A    between atoms: C_23  and  O_24
REMARK                            x       y       z     vdW  Elec       q    Type
REMARK                         _______ _______ _______ _____ _____    ______ ____
ROOT
ATOM      1  C   UNL     1       2.468  11.559  18.269  0.00  0.00    +0.000 C 
ATOM      2  C   UNL     1       1.078  10.906  18.138  0.00  0.00    +0.000 C 
ATOM      3  C   UNL     1       1.279   9.423  17.775  0.00  0.00    +0.000 C 
ATOM      4  N   UNL     1       1.913   8.708  18.889  0.00  0.00    +0.000 NA
ATOM      5  C   UNL     1       2.334   7.365  18.475  0.00  0.00    +0.000 C 
ATOM      6  C   UNL     1       2.455   6.228  19.557  0.00  0.00    +0.000 C 
ATOM      7  N   UNL     1       1.828   6.486  20.869  0.00  0.00    +0.000 NA
ATOM      8  C   UNL     1       1.728   7.904  21.200  0.00  0.00    +0.000 C 
ATOM      9  C   UNL     1       1.038   8.684  20.066  0.00  0.00    +0.000 C 
ATOM     10  C   UNL     1       0.761  10.121  20.530  0.00  0.00    +0.000 C 
ATOM     11  C   UNL     1       0.184  11.049  19.420  0.00  0.00    +0.000 C 
ATOM     12  C   UNL     1      -1.271  10.580  19.112  0.00  0.00    +0.000 C 
ATOM     13  H   UNL     1       2.365   6.013  21.594  0.00  0.00    +0.000 HD
ENDROOT
BRANCH   6  14
ATOM     14  C   UNL     1       1.840   4.918  18.962  0.00  0.00    +0.000 C 
ATOM     15  C   UNL     1       2.672   4.337  17.799  0.00  0.00    +0.000 C 
ATOM     16  C   UNL     1       3.962   3.666  18.266  0.00  0.00    +0.000 C 
ATOM     17  C   UNL     1       3.699   2.609  19.335  0.00  0.00    +0.000 C 
ATOM     18  C   UNL     1       2.856   3.144  20.488  0.00  0.00    +0.000 C 
ATOM     19  C   UNL     1       1.577   3.799  19.987  0.00  0.00    +0.000 C 
ENDBRANCH   6  14
BRANCH  11  20
ATOM     20  C   UNL     1       0.069  12.524  19.870  0.00  0.00    +0.000 A 
ATOM     21  C   UNL     1       0.383  12.904  21.188  0.00  0.00    +0.000 A 
ATOM     22  C   UNL     1       0.323  14.241  21.599  0.00  0.00    +0.000 A 
ATOM     23  C   UNL     1      -0.060  15.234  20.701  0.00  0.00    +0.000 A 
ATOM     24  C   UNL     1      -0.382  14.879  19.401  0.00  0.00    +0.000 A 
ATOM     25  C   UNL     1      -0.318  13.549  18.984  0.00  0.00    +0.000 A 
BRANCH  24  26
ATOM     26  O   UNL     1      -0.765  15.802  18.477  0.00  0.00    +0.000 OA
ATOM     27  H   UNL     1      -1.080  16.593  18.950  0.00  0.00    +0.000 HD
ENDBRANCH  24  26
ENDBRANCH  11  20
TORSDOF 3
ENDMDL
MODEL 3
REMARK VINA RESULT:      -6.7      1.058      1.067
REMARK  Name = 
REMARK  5 active torsions:
REMARK  status: ('A' for Active; 'I' for Inactive)
REMARK    1  A    between atoms: C_1  and  C_2
REMARK    2  A    between atoms: C_6  and  C_7
REMARK    3  A    between atoms: C_17  and  C_18
REMARK    4  A    between atoms: C_17  and  C_19
REMARK    5  A    between atoms: C_23  and  O_24
REMARK                            x       y       z     vdW  Elec       q    Type
REMARK                         _______ _______ _______ _____ _____    ______ ____
ROOT
ATOM      1  C   UNL     1       1.971  12.134  19.011  0.00  0.00    +0.000 C 
ATOM      2  C   UNL     1       0.700  11.349  18.634  0.00  0.00    +0.000 C 
ATOM      3  C   UNL     1       1.133   9.993  18.046  0.00  0.00    +0.000 C 
ATOM      4  N   UNL     1       1.774   9.171  19.079  0.00  0.00    +0.000 NA
ATOM      5  C   UNL     1       2.409   7.989  18.487  0.00  0.00    +0.000 C 
ATOM      6  C   UNL     1       2.605   6.698  19.366  0.00  0.00    +0.000 C 
ATOM      7  N   UNL     1       1.851   6.634  20.634  0.00  0.00    +0.000 NA
ATOM      8  C   UNL     1       1.529   7.944  21.190  0.00  0.00    +0.000 C 
ATOM      9  C   UNL     1       0.825   8.826  20.143  0.00  0.00    +0.000 C 
ATOM     10  C   UNL     1       0.316  10.110  20.815  0.00  0.00    +0.000 C 
ATOM     11  C   UNL     1      -0.300  11.144  19.826  0.00  0.00    +0.000 C 
ATOM     12  C   UNL     1      -1.648  10.562  19.301  0.00  0.00    +0.000 C 
ATOM     13  H   UNL     1       2.392   6.108  21.318  0.00  0.00    +0.000 HD
ENDROOT
BRANCH   6  14
ATOM     14  C   UNL     1       2.225   5.452  18.500  0.00  0.00    +0.000 C 
ATOM     15  C   UNL     1       3.366   5.002  17.562  0.00  0.00    +0.000 C 
ATOM     16  C   UNL     1       4.501   4.297  18.301  0.00  0.00    +0.000 C 
ATOM     17  C   UNL     1       3.994   3.133  19.146  0.00  0.00    +0.000 C 
ATOM     18  C   UNL     1       2.847   3.538  20.067  0.00  0.00    +0.000 C 
ATOM     19  C   UNL     1       1.732   4.231  19.297  0.00  0.00    +0.000 C 
ENDBRANCH   6  14
BRANCH  11  20
ATOM     20  C   UNL     1      -0.653  12.488  20.507  0.00  0.00    +0.000 A 
ATOM     21  C   UNL     1      -1.147  13.570  19.756  0.00  0.00    +0.000 A 
ATOM     22  C   UNL     1      -1.510  14.778  20.365  0.00  0.00    +0.000 A 
ATOM     23  C   UNL     1      -1.382  14.937  21.742  0.00  0.00    +0.000 A 
ATOM     24  C   UNL     1      -0.888  13.885  22.497  0.00  0.00    +0.000 A 
ATOM     25  C   UNL     1      -0.531  12.677  21.898  0.00  0.00    +0.000 A 
BRANCH  24  26
ATOM     26  O   UNL     1      -0.738  13.977  23.848  0.00  0.00    +0.000 OA
ATOM     27  H   UNL     1       0.206  13.864  24.056  0.00  0.00    +0.000 HD
ENDBRANCH  24  26
ENDBRANCH  11  20
TORSDOF 3
ENDMDL
MODEL 4
REMARK VINA RESULT:      -6.7      1.434      1.749
REMARK  Name = 
REMARK  5 active torsions:
REMARK  status: ('A' for Active; 'I' for Inactive)
REMARK    1  A    between atoms: C_1  and  C_2
REMARK    2  A    between atoms: C_6  and  C_7
REMARK    3  A    between atoms: C_17  and  C_18
REMARK    4  A    between atoms: C_17  and  C_19
REMARK    5  A    between atoms: C_23  and  O_24
REMARK                            x       y       z     vdW  Elec       q    Type
REMARK                         _______ _______ _______ _____ _____    ______ ____
ROOT
ATOM      1  C   UNL     1       1.847  12.163  19.270  0.00  0.00    +0.000 C 
ATOM      2  C   UNL     1       0.619  11.355  18.807  0.00  0.00    +0.000 C 
ATOM      3  C   UNL     1       1.123  10.058  18.146  0.00  0.00    +0.000 C 
ATOM      4  N   UNL     1       1.771   9.197  19.142  0.00  0.00    +0.000 NA
ATOM      5  C   UNL     1       2.468   8.082  18.494  0.00  0.00    +0.000 C 
ATOM      6  C   UNL     1       2.695   6.745  19.293  0.00  0.00    +0.000 C 
ATOM      7  N   UNL     1       1.911   6.568  20.532  0.00  0.00    +0.000 NA
ATOM      8  C   UNL     1       1.521   7.826  21.162  0.00  0.00    +0.000 C 
ATOM      9  C   UNL     1       0.809   8.746  20.153  0.00  0.00    +0.000 C 
ATOM     10  C   UNL     1       0.230   9.962  20.892  0.00  0.00    +0.000 C 
ATOM     11  C   UNL     1      -0.402  11.034  19.955  0.00  0.00    +0.000 C 
ATOM     12  C   UNL     1      -1.710  10.435  19.355  0.00  0.00    +0.000 C 
ATOM     13  H   UNL     1       2.455   6.020  21.196  0.00  0.00    +0.000 HD
ENDROOT
BRANCH   6  14
ATOM     14  C   UNL     1       2.389   5.544  18.338  0.00  0.00    +0.000 C 
ATOM     15  C   UNL     1       3.598   5.150  17.462  0.00  0.00    +0.000 C 
ATOM     16  C   UNL     1       4.684   4.414  18.243  0.00  0.00    +0.000 C 
ATOM     17  C   UNL     1       4.129   3.204  18.987  0.00  0.00    +0.000 C 
ATOM     18  C   UNL     1       2.916   3.554  19.844  0.00  0.00    +0.000 C 
ATOM     19  C   UNL     1       1.852   4.280  19.033  0.00  0.00    +0.000 C 
ENDBRANCH   6  14
BRANCH  11  20
ATOM     20  C   UNL     1      -0.828  12.315  20.710  0.00  0.00    +0.000 A 
ATOM     21  C   UNL     1      -0.545  12.473  22.080  0.00  0.00    +0.000 A 
ATOM     22  C   UNL     1      -0.888  13.644  22.767  0.00  0.00    +0.000 A 
ATOM     23  C   UNL     1      -1.530  14.686  22.102  0.00  0.00    +0.000 A 
ATOM     24  C   UNL     1      -1.825  14.544  20.755  0.00  0.00    +0.000 A 
ATOM     25  C   UNL     1      -1.481  13.383  20.064  0.00  0.00    +0.000 A 
BRANCH  24  26
ATOM     26  O   UNL     1      -2.453  15.525  20.049  0.00  0.00    +0.000 OA
ATOM     27  H   UNL     1      -3.391  15.281  19.958  0.00  0.00    +0.000 HD
ENDBRANCH  24  26
ENDBRANCH  11  20
TORSDOF 3
ENDMDL
MODEL 5
REMARK VINA RESULT:      -6.6      4.011      8.931
REMARK  Name = 
REMARK  5 active torsions:
REMARK  status: ('A' for Active; 'I' for Inactive)
REMARK    1  A    between atoms: C_1  and  C_2
REMARK    2  A    between atoms: C_6  and  C_7
REMARK    3  A    between atoms: C_17  and  C_18
REMARK    4  A    between atoms: C_17  and  C_19
REMARK    5  A    between atoms: C_23  and  O_24
REMARK                            x       y       z     vdW  Elec       q    Type
REMARK                         _______ _______ _______ _____ _____    ______ ____
ROOT
ATOM      1  C   UNL     1      -1.764  10.056  18.352  0.00  0.00    +0.000 C 
ATOM      2  C   UNL     1      -0.803  11.237  18.582  0.00  0.00    +0.000 C 
ATOM      3  C   UNL     1      -1.639  12.459  19.006  0.00  0.00    +0.000 C 
ATOM      4  N   UNL     1      -2.251  12.227  20.319  0.00  0.00    +0.000 NA
ATOM      5  C   UNL     1      -3.241  13.265  20.625  0.00  0.00    +0.000 C 
ATOM      6  C   UNL     1      -3.565  13.602  22.128  0.00  0.00    +0.000 C 
ATOM      7  N   UNL     1      -2.626  13.087  23.145  0.00  0.00    +0.000 NA
ATOM      8  C   UNL     1      -1.912  11.885  22.725  0.00  0.00    +0.000 C 
ATOM      9  C   UNL     1      -1.228  12.101  21.363  0.00  0.00    +0.000 C 
ATOM     10  C   UNL     1      -0.320  10.902  21.052  0.00  0.00    +0.000 C 
ATOM     11  C   UNL     1       0.325  10.944  19.634  0.00  0.00    +0.000 C 
ATOM     12  C   UNL     1       1.380  12.092  19.622  0.00  0.00    +0.000 C 
ATOM     13  H   UNL     1      -3.138  12.886  24.001  0.00  0.00    +0.000 HD
ENDROOT
BRANCH   6  14
ATOM     14  C   UNL     1      -3.652  15.157  22.275  0.00  0.00    +0.000 C 
ATOM     15  C   UNL     1      -4.503  15.819  21.170  0.00  0.00    +0.000 C 
ATOM     16  C   UNL     1      -6.002  15.594  21.358  0.00  0.00    +0.000 C 
ATOM     17  C   UNL     1      -6.473  16.023  22.744  0.00  0.00    +0.000 C 
ATOM     18  C   UNL     1      -5.635  15.406  23.860  0.00  0.00    +0.000 C 
ATOM     19  C   UNL     1      -4.149  15.655  23.644  0.00  0.00    +0.000 C 
ENDBRANCH   6  14
BRANCH  11  20
ATOM     20  C   UNL     1       1.100   9.650  19.290  0.00  0.00    +0.000 A 
ATOM     21  C   UNL     1       1.692   9.478  18.025  0.00  0.00    +0.000 A 
ATOM     22  C   UNL     1       2.432   8.331  17.713  0.00  0.00    +0.000 A 
ATOM     23  C   UNL     1       2.592   7.321  18.658  0.00  0.00    +0.000 A 
ATOM     24  C   UNL     1       2.008   7.468  19.906  0.00  0.00    +0.000 A 
ATOM     25  C   UNL     1       1.275   8.611  20.225  0.00  0.00    +0.000 A 
BRANCH  24  26
ATOM     26  O   UNL     1       2.126   6.516  20.873  0.00  0.00    +0.000 OA
ATOM     27  H   UNL     1       1.393   6.630  21.503  0.00  0.00    +0.000 HD
ENDBRANCH  24  26
ENDBRANCH  11  20
TORSDOF 3
ENDMDL
MODEL 6
REMARK VINA RESULT:      -6.5      2.410      3.627
REMARK  Name = 
REMARK  5 active torsions:
REMARK  status: ('A' for Active; 'I' for Inactive)
REMARK    1  A    between atoms: C_1  and  C_2
REMARK    2  A    between atoms: C_6  and  C_7
REMARK    3  A    between atoms: C_17  and  C_18
REMARK    4  A    between atoms: C_17  and  C_19
REMARK    5  A    between atoms: C_23  and  O_24
REMARK                            x       y       z     vdW  Elec       q    Type
REMARK                         _______ _______ _______ _____ _____    ______ ____
ROOT
ATOM      1  C   UNL     1      -0.790   8.486  21.808  0.00  0.00    +0.000 C 
ATOM      2  C   UNL     1       0.461   9.385  21.811  0.00  0.00    +0.000 C 
ATOM      3  C   UNL     1       1.669   8.527  21.389  0.00  0.00    +0.000 C 
ATOM      4  N   UNL     1       1.528   8.103  19.991  0.00  0.00    +0.000 NA
ATOM      5  C   UNL     1       2.533   7.090  19.648  0.00  0.00    +0.000 C 
ATOM      6  C   UNL     1       2.993   6.936  18.151  0.00  0.00    +0.000 C 
ATOM      7  N   UNL     1       2.632   8.030  17.227  0.00  0.00    +0.000 NA
ATOM      8  C   UNL     1       1.438   8.767  17.630  0.00  0.00    +0.000 C 
ATOM      9  C   UNL     1       1.562   9.256  19.085  0.00  0.00    +0.000 C 
ATOM     10  C   UNL     1       0.392  10.198  19.407  0.00  0.00    +0.000 C 
ATOM     11  C   UNL     1       0.335  10.654  20.896  0.00  0.00    +0.000 C 
ATOM     12  C   UNL     1       1.535  11.618  21.148  0.00  0.00    +0.000 C 
ATOM     13  H   UNL     1       2.485   7.645  16.295  0.00  0.00    +0.000 HD
ENDROOT
BRANCH   6  14
ATOM     14  C   UNL     1       4.547   6.762  18.130  0.00  0.00    +0.000 C 
ATOM     15  C   UNL     1       5.026   5.539  18.942  0.00  0.00    +0.000 C 
ATOM     16  C   UNL     1       4.744   4.212  18.242  0.00  0.00    +0.000 C 
ATOM     17  C   UNL     1       5.308   4.184  16.825  0.00  0.00    +0.000 C 
ATOM     18  C   UNL     1       4.874   5.394  16.003  0.00  0.00    +0.000 C 
ATOM     19  C   UNL     1       5.176   6.698  16.727  0.00  0.00    +0.000 C 
ENDBRANCH   6  14
BRANCH  11  20
ATOM     20  C   UNL     1      -0.939  11.467  21.225  0.00  0.00    +0.000 A 
ATOM     21  C   UNL     1      -1.240  11.833  22.550  0.00  0.00    +0.000 A 
ATOM     22  C   UNL     1      -2.368  12.604  22.859  0.00  0.00    +0.000 A 
ATOM     23  C   UNL     1      -3.229  13.022  21.848  0.00  0.00    +0.000 A 
ATOM     24  C   UNL     1      -2.955  12.663  20.538  0.00  0.00    +0.000 A 
ATOM     25  C   UNL     1      -1.830  11.901  20.224  0.00  0.00    +0.000 A 
BRANCH  24  26
ATOM     26  O   UNL     1      -3.760  13.040  19.506  0.00  0.00    +0.000 OA
ATOM     27  H   UNL     1      -3.276  12.888  18.674  0.00  0.00    +0.000 HD
ENDBRANCH  24  26
ENDBRANCH  11  20
TORSDOF 3
ENDMDL
MODEL 7
REMARK VINA RESULT:      -6.4      3.379      8.336
REMARK  Name = 
REMARK  5 active torsions:
REMARK  status: ('A' for Active; 'I' for Inactive)
REMARK    1  A    between atoms: C_1  and  C_2
REMARK    2  A    between atoms: C_6  and  C_7
REMARK    3  A    between atoms: C_17  and  C_18
REMARK    4  A    between atoms: C_17  and  C_19
REMARK    5  A    between atoms: C_23  and  O_24
REMARK                            x       y       z     vdW  Elec       q    Type
REMARK                         _______ _______ _______ _____ _____    ______ ____
ROOT
ATOM      1  C   UNL     1       4.846   5.582  19.765  0.00  0.00    +0.000 C 
ATOM      2  C   UNL     1       3.479   5.138  19.211  0.00  0.00    +0.000 C 
ATOM      3  C   UNL     1       2.380   5.851  20.021  0.00  0.00    +0.000 C 
ATOM      4  N   UNL     1       2.421   7.297  19.773  0.00  0.00    +0.000 NA
ATOM      5  C   UNL     1       1.554   8.013  20.714  0.00  0.00    +0.000 C 
ATOM      6  C   UNL     1       0.952   9.408  20.300  0.00  0.00    +0.000 C 
ATOM      7  N   UNL     1       1.028   9.768  18.870  0.00  0.00    +0.000 NA
ATOM      8  C   UNL     1       2.130   9.125  18.162  0.00  0.00    +0.000 C 
ATOM      9  C   UNL     1       2.102   7.601  18.374  0.00  0.00    +0.000 C 
ATOM     10  C   UNL     1       3.140   6.939  17.454  0.00  0.00    +0.000 C 
ATOM     11  C   UNL     1       3.298   5.405  17.675  0.00  0.00    +0.000 C 
ATOM     12  C   UNL     1       2.000   4.711  17.160  0.00  0.00    +0.000 C 
ATOM     13  H   UNL     1       1.124  10.779  18.785  0.00  0.00    +0.000 HD
ENDROOT
BRANCH   6  14
ATOM     14  C   UNL     1      -0.547   9.446  20.743  0.00  0.00    +0.000 C 
ATOM     15  C   UNL     1      -0.761   8.940  22.186  0.00  0.00    +0.000 C 
ATOM     16  C   UNL     1      -0.295   9.939  23.243  0.00  0.00    +0.000 C 
ATOM     17  C   UNL     1      -0.925  11.314  23.045  0.00  0.00    +0.000 C 
ATOM     18  C   UNL     1      -0.754  11.833  21.620  0.00  0.00    +0.000 C 
ATOM     19  C   UNL     1      -1.235  10.816  20.595  0.00  0.00    +0.000 C 
ENDBRANCH   6  14
BRANCH  11  20
ATOM     20  C   UNL     1       4.459   4.798  16.853  0.00  0.00    +0.000 A 
ATOM     21  C   UNL     1       4.446   3.442  16.476  0.00  0.00    +0.000 A 
ATOM     22  C   UNL     1       5.470   2.888  15.698  0.00  0.00    +0.000 A 
ATOM     23  C   UNL     1       6.539   3.677  15.280  0.00  0.00    +0.000 A 
ATOM     24  C   UNL     1       6.574   5.013  15.649  0.00  0.00    +0.000 A 
ATOM     25  C   UNL     1       5.554   5.571  16.419  0.00  0.00    +0.000 A 
BRANCH  24  26
ATOM     26  O   UNL     1       7.592   5.836  15.274  0.00  0.00    +0.000 OA
ATOM     27  H   UNL     1       7.204   6.646  14.899  0.00  0.00    +0.000 HD
ENDBRANCH  24  26
ENDBRANCH  11  20
TORSDOF 3
ENDMDL
MODEL 8
REMARK VINA RESULT:      -6.3      2.311      3.428
REMARK  Name = 
REMARK  5 active torsions:
REMARK  status: ('A' for Active; 'I' for Inactive)
REMARK    1  A    between atoms: C_1  and  C_2
REMARK    2  A    between atoms: C_6  and  C_7
REMARK    3  A    between atoms: C_17  and  C_18
REMARK    4  A    between atoms: C_17  and  C_19
REMARK    5  A    between atoms: C_23  and  O_24
REMARK                            x       y       z     vdW  Elec       q    Type
REMARK                         _______ _______ _______ _____ _____    ______ ____
ROOT
ATOM      1  C   UNL     1      -0.867   8.516  21.694  0.00  0.00    +0.000 C 
ATOM      2  C   UNL     1       0.376   9.426  21.704  0.00  0.00    +0.000 C 
ATOM      3  C   UNL     1       1.600   8.567  21.336  0.00  0.00    +0.000 C 
ATOM      4  N   UNL     1       1.499   8.105  19.947  0.00  0.00    +0.000 NA
ATOM      5  C   UNL     1       2.521   7.093  19.658  0.00  0.00    +0.000 C 
ATOM      6  C   UNL     1       3.020   6.902  18.177  0.00  0.00    +0.000 C 
ATOM      7  N   UNL     1       2.673   7.967  17.214  0.00  0.00    +0.000 NA
ATOM      8  C   UNL     1       1.464   8.704  17.568  0.00  0.00    +0.000 C 
ATOM      9  C   UNL     1       1.546   9.233  19.011  0.00  0.00    +0.000 C 
ATOM     10  C   UNL     1       0.361  10.173  19.278  0.00  0.00    +0.000 C 
ATOM     11  C   UNL     1       0.262  10.669  20.752  0.00  0.00    +0.000 C 
ATOM     12  C   UNL     1       1.447  11.649  21.008  0.00  0.00    +0.000 C 
ATOM     13  H   UNL     1       2.553   7.556  16.290  0.00  0.00    +0.000 HD
ENDROOT
BRANCH   6  14
ATOM     14  C   UNL     1       4.575   6.741  18.200  0.00  0.00    +0.000 C 
ATOM     15  C   UNL     1       5.039   5.491  18.978  0.00  0.00    +0.000 C 
ATOM     16  C   UNL     1       4.792   4.191  18.217  0.00  0.00    +0.000 C 
ATOM     17  C   UNL     1       5.402   4.224  16.819  0.00  0.00    +0.000 C 
ATOM     18  C   UNL     1       4.984   5.463  16.032  0.00  0.00    +0.000 C 
ATOM     19  C   UNL     1       5.250   6.739  16.817  0.00  0.00    +0.000 C 
ENDBRANCH   6  14
BRANCH  11  20
ATOM     20  C   UNL     1      -1.027  11.479  21.027  0.00  0.00    +0.000 A 
ATOM     21  C   UNL     1      -1.822  11.953  19.967  0.00  0.00    +0.000 A 
ATOM     22  C   UNL     1      -3.013  12.651  20.201  0.00  0.00    +0.000 A 
ATOM     23  C   UNL     1      -3.436  12.900  21.504  0.00  0.00    +0.000 A 
ATOM     24  C   UNL     1      -2.661  12.449  22.561  0.00  0.00    +0.000 A 
ATOM     25  C   UNL     1      -1.477  11.747  22.335  0.00  0.00    +0.000 A 
BRANCH  24  26
ATOM     26  O   UNL     1      -3.019  12.661  23.858  0.00  0.00    +0.000 OA
ATOM     27  H   UNL     1      -2.577  11.991  24.408  0.00  0.00    +0.000 HD
ENDBRANCH  24  26
ENDBRANCH  11  20
TORSDOF 3
ENDMDL
MODEL 9
REMARK VINA RESULT:      -6.1      3.542      8.485
REMARK  Name = 
REMARK  5 active torsions:
REMARK  status: ('A' for Active; 'I' for Inactive)
REMARK    1  A    between atoms: C_1  and  C_2
REMARK    2  A    between atoms: C_6  and  C_7
REMARK    3  A    between atoms: C_17  and  C_18
REMARK    4  A    between atoms: C_17  and  C_19
REMARK    5  A    between atoms: C_23  and  O_24
REMARK                            x       y       z     vdW  Elec       q    Type
REMARK                         _______ _______ _______ _____ _____    ______ ____
ROOT
ATOM      1  C   UNL     1      -1.732  10.321  18.508  0.00  0.00    +0.000 C 
ATOM      2  C   UNL     1      -0.747  11.438  18.903  0.00  0.00    +0.000 C 
ATOM      3  C   UNL     1      -1.563  12.621  19.457  0.00  0.00    +0.000 C 
ATOM      4  N   UNL     1      -2.212  12.245  20.718  0.00  0.00    +0.000 NA
ATOM      5  C   UNL     1      -3.182  13.265  21.131  0.00  0.00    +0.000 C 
ATOM      6  C   UNL     1      -3.534  13.422  22.657  0.00  0.00    +0.000 C 
ATOM      7  N   UNL     1      -2.631  12.761  23.621  0.00  0.00    +0.000 NA
ATOM      8  C   UNL     1      -1.937  11.601  23.070  0.00  0.00    +0.000 C 
ATOM      9  C   UNL     1      -1.217  11.964  21.759  0.00  0.00    +0.000 C 
ATOM     10  C   UNL     1      -0.331  10.788  21.321  0.00  0.00    +0.000 C 
ATOM     11  C   UNL     1       0.348  10.987  19.933  0.00  0.00    +0.000 C 
ATOM     12  C   UNL     1       1.431  12.098  20.084  0.00  0.00    +0.000 C 
ATOM     13  H   UNL     1      -3.168  12.470  24.435  0.00  0.00    +0.000 HD
ENDROOT
BRANCH   6  14
ATOM     14  C   UNL     1      -3.585  14.949  22.993  0.00  0.00    +0.000 C 
ATOM     15  C   UNL     1      -3.240  15.252  24.468  0.00  0.00    +0.000 C 
ATOM     16  C   UNL     1      -1.751  15.108  24.773  0.00  0.00    +0.000 C 
ATOM     17  C   UNL     1      -0.893  15.942  23.826  0.00  0.00    +0.000 C 
ATOM     18  C   UNL     1      -1.227  15.686  22.360  0.00  0.00    +0.000 C 
ATOM     19  C   UNL     1      -2.716  15.844  22.091  0.00  0.00    +0.000 C 
ENDBRANCH   6  14
BRANCH  11  20
ATOM     20  C   UNL     1       1.099   9.725  19.447  0.00  0.00    +0.000 A 
ATOM     21  C   UNL     1       1.639   9.661  18.149  0.00  0.00    +0.000 A 
ATOM     22  C   UNL     1       2.357   8.542  17.709  0.00  0.00    +0.000 A 
ATOM     23  C   UNL     1       2.547   7.453  18.556  0.00  0.00    +0.000 A 
ATOM     24  C   UNL     1       2.014   7.493  19.835  0.00  0.00    +0.000 A 
ATOM     25  C   UNL     1       1.303   8.608  20.281  0.00  0.00    +0.000 A 
BRANCH  24  26
ATOM     26  O   UNL     1       2.163   6.460  20.710  0.00  0.00    +0.000 OA
ATOM     27  H   UNL     1       2.197   5.632  20.198  0.00  0.00    +0.000 HD
ENDBRANCH  24  26
ENDBRANCH  11  20
TORSDOF 3
ENDMDL
