MODEL 1
REMARK VINA RESULT:      -8.8      0.000      0.000
REMARK  Name = 
REMARK  6 active torsions:
REMARK  status: ('A' for Active; 'I' for Inactive)
REMARK    1  A    between atoms: C_1  and  O_2
REMARK    2  A    between atoms: O_2  and  C_3
REMARK    3  A    between atoms: C_3  and  C_4
REMARK    4  A    between atoms: C_4  and  N_5
REMARK    5  A    between atoms: C_6  and  C_8
REMARK    6  A    between atoms: C_12  and  C_13
REMARK                            x       y       z     vdW  Elec       q    Type
REMARK                         _______ _______ _______ _____ _____    ______ ____
ROOT
ATOM      1  C   UNL     1       5.244   5.711  16.427  0.00  0.00    +0.000 A 
ATOM      2  C   UNL     1       4.851   7.039  16.428  0.00  0.00    +0.000 A 
ATOM      3  N   UNL     1       3.840   7.126  17.339  0.00  0.00    +0.000 N 
ATOM      4  C   UNL     1       3.062   8.187  17.742  0.00  0.00    +0.000 A 
ATOM      5  C   UNL     1       2.096   7.972  18.659  0.00  0.00    +0.000 A 
ATOM      6  N   UNL     1       1.879   6.719  19.221  0.00  0.00    +0.000 NA
ATOM      7  C   UNL     1       2.645   5.693  18.898  0.00  0.00    +0.000 A 
ATOM      8  N   UNL     1       2.442   4.487  19.549  0.00  0.00    +0.000 N 
ATOM      9  C   UNL     1       3.505   3.508  19.791  0.00  0.00    +0.000 C 
ATOM     10  C   UNL     1       3.117   2.162  19.176  0.00  0.00    +0.000 C 
ATOM     11  O   UNL     1       1.844   1.712  19.675  0.00  0.00    +0.000 OA
ATOM     12  C   UNL     1       0.818   2.674  19.370  0.00  0.00    +0.000 C 
ATOM     13  C   UNL     1       1.120   4.047  19.996  0.00  0.00    +0.000 C 
ATOM     14  C   UNL     1       3.669   5.881  17.875  0.00  0.00    +0.000 A 
ATOM     15  N   UNL     1       4.476   4.987  17.329  0.00  0.00    +0.000 NA
ENDROOT
BRANCH   5  16
ATOM     16  C   UNL     1       1.261   9.111  19.122  0.00  0.00    +0.000 A 
ATOM     17  C   UNL     1       0.642  10.019  18.232  0.00  0.00    +0.000 A 
ATOM     18  C   UNL     1      -0.126  11.092  18.688  0.00  0.00    +0.000 A 
ATOM     19  C   UNL     1      -0.325  11.305  20.051  0.00  0.00    +0.000 A 
ATOM     20  C   UNL     1       0.278  10.401  20.929  0.00  0.00    +0.000 A 
ATOM     21  N   UNL     1       0.269  10.337  22.298  0.00  0.00    +0.000 N 
ATOM     22  N   UNL     1       0.972   9.316  22.808  0.00  0.00    +0.000 NA
ATOM     23  C   UNL     1       1.446   8.699  21.721  0.00  0.00    +0.000 A 
ATOM     24  C   UNL     1       1.052   9.319  20.507  0.00  0.00    +0.000 A 
ATOM     25  H   UNL     1      -0.200  10.964  22.942  0.00  0.00    +0.000 HD
ENDBRANCH   5  16
BRANCH   1  27
ATOM     26  N   UNL     1       5.878   4.621  14.399  0.00  0.00    +0.000 N 
ATOM     27  C   UNL     1       6.304   5.143  15.594  0.00  0.00    +0.000 C 
ATOM     28  O   UNL     1       7.485   5.140  15.938  0.00  0.00    +0.000 OA
ATOM     29  H   UNL     1       4.877   4.556  14.242  0.00  0.00    +0.000 HD
BRANCH  26  30
ATOM     30  C   UNL     1       6.799   4.010  13.456  0.00  0.00    +0.000 C 
BRANCH  30  31
ATOM     31  C   UNL     1       6.099   3.297  12.297  0.00  0.00    +0.000 C 
BRANCH  31  33
ATOM     32  C   UNL     1       4.047   3.225  11.136  0.00  0.00    +0.000 C 
ATOM     33  O   UNL     1       4.688   3.535  12.368  0.00  0.00    +0.000 OA
ENDBRANCH  31  33
ENDBRANCH  30  31
ENDBRANCH  26  30
ENDBRANCH   1  27
TORSDOF 5
ENDMDL
MODEL 2
REMARK VINA RESULT:      -8.5      1.195      1.782
REMARK  Name = 
REMARK  6 active torsions:
REMARK  status: ('A' for Active; 'I' for Inactive)
REMARK    1  A    between atoms: C_1  and  O_2
REMARK    2  A    between atoms: O_2  and  C_3
REMARK    3  A    between atoms: C_3  and  C_4
REMARK    4  A    between atoms: C_4  and  N_5
REMARK    5  A    between atoms: C_6  and  C_8
REMARK    6  A    between atoms: C_12  and  C_13
REMARK                            x       y       z     vdW  Elec       q    Type
REMARK                         _______ _______ _______ _____ _____    ______ ____
ROOT
ATOM      1  C   UNL     1       5.206   5.772  16.419  0.00  0.00    +0.000 A 
ATOM      2  C   UNL     1       4.837   7.066  16.745  0.00  0.00    +0.000 A 
ATOM      3  N   UNL     1       3.887   6.945  17.716  0.00  0.00    +0.000 N 
ATOM      4  C   UNL     1       3.154   7.889  18.399  0.00  0.00    +0.000 A 
ATOM      5  C   UNL     1       2.245   7.473  19.305  0.00  0.00    +0.000 A 
ATOM      6  N   UNL     1       2.043   6.126  19.582  0.00  0.00    +0.000 NA
ATOM      7  C   UNL     1       2.769   5.198  18.986  0.00  0.00    +0.000 A 
ATOM      8  N   UNL     1       2.589   3.876  19.359  0.00  0.00    +0.000 N 
ATOM      9  C   UNL     1       3.648   2.866  19.303  0.00  0.00    +0.000 C 
ATOM     10  C   UNL     1       3.200   1.695  18.426  0.00  0.00    +0.000 C 
ATOM     11  O   UNL     1       1.954   1.146  18.893  0.00  0.00    +0.000 OA
ATOM     12  C   UNL     1       0.926   2.154  18.881  0.00  0.00    +0.000 C 
ATOM     13  C   UNL     1       1.290   3.348  19.781  0.00  0.00    +0.000 C 
ATOM     14  C   UNL     1       3.730   5.612  17.967  0.00  0.00    +0.000 A 
ATOM     15  N   UNL     1       4.485   4.863  17.182  0.00  0.00    +0.000 NA
ENDROOT
BRANCH   5  16
ATOM     16  C   UNL     1       1.459   8.479  20.067  0.00  0.00    +0.000 A 
ATOM     17  C   UNL     1       1.487   8.565  21.478  0.00  0.00    +0.000 A 
ATOM     18  C   UNL     1       0.729   9.508  22.176  0.00  0.00    +0.000 A 
ATOM     19  C   UNL     1      -0.083  10.418  21.501  0.00  0.00    +0.000 A 
ATOM     20  C   UNL     1      -0.100  10.339  20.106  0.00  0.00    +0.000 A 
ATOM     21  N   UNL     1      -0.779  11.080  19.173  0.00  0.00    +0.000 N 
ATOM     22  N   UNL     1      -0.552  10.713  17.904  0.00  0.00    +0.000 NA
ATOM     23  C   UNL     1       0.312   9.701  18.030  0.00  0.00    +0.000 A 
ATOM     24  C   UNL     1       0.643   9.409  19.378  0.00  0.00    +0.000 A 
ATOM     25  H   UNL     1      -1.416  11.850  19.342  0.00  0.00    +0.000 HD
ENDBRANCH   5  16
BRANCH   1  27
ATOM     26  N   UNL     1       5.769   4.496  14.479  0.00  0.00    +0.000 N 
ATOM     27  C   UNL     1       6.203   5.406  15.411  0.00  0.00    +0.000 C 
ATOM     28  O   UNL     1       7.336   5.882  15.399  0.00  0.00    +0.000 OA
ATOM     29  H   UNL     1       4.863   4.064  14.627  0.00  0.00    +0.000 HD
BRANCH  26  30
ATOM     30  C   UNL     1       6.634   4.018  13.415  0.00  0.00    +0.000 C 
BRANCH  30  31
ATOM     31  C   UNL     1       5.889   3.230  12.334  0.00  0.00    +0.000 C 
BRANCH  31  33
ATOM     32  C   UNL     1       3.888   3.203  11.086  0.00  0.00    +0.000 C 
ATOM     33  O   UNL     1       4.530   3.678  12.264  0.00  0.00    +0.000 OA
ENDBRANCH  31  33
ENDBRANCH  30  31
ENDBRANCH  26  30
ENDBRANCH   1  27
TORSDOF 5
ENDMDL
MODEL 3
REMARK VINA RESULT:      -8.0      1.402      1.918
REMARK  Name = 
REMARK  6 active torsions:
REMARK  status: ('A' for Active; 'I' for Inactive)
REMARK    1  A    between atoms: C_1  and  O_2
REMARK    2  A    between atoms: O_2  and  C_3
REMARK    3  A    between atoms: C_3  and  C_4
REMARK    4  A    between atoms: C_4  and  N_5
REMARK    5  A    between atoms: C_6  and  C_8
REMARK    6  A    between atoms: C_12  and  C_13
REMARK                            x       y       z     vdW  Elec       q    Type
REMARK                         _______ _______ _______ _____ _____    ______ ____
ROOT
ATOM      1  C   UNL     1       5.130   5.549  16.100  0.00  0.00    +0.000 A 
ATOM      2  C   UNL     1       4.802   6.868  16.368  0.00  0.00    +0.000 A 
ATOM      3  N   UNL     1       3.910   6.825  17.398  0.00  0.00    +0.000 N 
ATOM      4  C   UNL     1       3.234   7.823  18.063  0.00  0.00    +0.000 A 
ATOM      5  C   UNL     1       2.372   7.481  19.044  0.00  0.00    +0.000 A 
ATOM      6  N   UNL     1       2.165   6.156  19.413  0.00  0.00    +0.000 NA
ATOM      7  C   UNL     1       2.839   5.180  18.835  0.00  0.00    +0.000 A 
ATOM      8  N   UNL     1       2.659   3.887  19.297  0.00  0.00    +0.000 N 
ATOM      9  C   UNL     1       3.696   2.855  19.243  0.00  0.00    +0.000 C 
ATOM     10  C   UNL     1       3.178   1.642  18.466  0.00  0.00    +0.000 C 
ATOM     11  O   UNL     1       1.952   1.148  19.037  0.00  0.00    +0.000 OA
ATOM     12  C   UNL     1       0.943   2.174  19.023  0.00  0.00    +0.000 C 
ATOM     13  C   UNL     1       1.379   3.412  19.825  0.00  0.00    +0.000 C 
ATOM     14  C   UNL     1       3.745   5.512  17.738  0.00  0.00    +0.000 A 
ATOM     15  N   UNL     1       4.440   4.703  16.958  0.00  0.00    +0.000 NA
ENDROOT
BRANCH   5  16
ATOM     16  C   UNL     1       1.650   8.546  19.787  0.00  0.00    +0.000 A 
ATOM     17  C   UNL     1       1.014   8.319  21.028  0.00  0.00    +0.000 A 
ATOM     18  C   UNL     1       0.327   9.330  21.702  0.00  0.00    +0.000 A 
ATOM     19  C   UNL     1       0.252  10.620  21.178  0.00  0.00    +0.000 A 
ATOM     20  C   UNL     1       0.892  10.846  19.957  0.00  0.00    +0.000 A 
ATOM     21  N   UNL     1       1.003  11.983  19.199  0.00  0.00    +0.000 N 
ATOM     22  N   UNL     1       1.699  11.825  18.064  0.00  0.00    +0.000 NA
ATOM     23  C   UNL     1       2.052  10.536  18.102  0.00  0.00    +0.000 A 
ATOM     24  C   UNL     1       1.585   9.858  19.257  0.00  0.00    +0.000 A 
ATOM     25  H   UNL     1       0.622  12.900  19.402  0.00  0.00    +0.000 HD
ENDBRANCH   5  16
BRANCH   1  27
ATOM     26  N   UNL     1       5.497   4.311  14.091  0.00  0.00    +0.000 N 
ATOM     27  C   UNL     1       6.059   5.103  15.061  0.00  0.00    +0.000 C 
ATOM     28  O   UNL     1       7.247   5.420  15.056  0.00  0.00    +0.000 OA
ATOM     29  H   UNL     1       4.541   4.000  14.230  0.00  0.00    +0.000 HD
BRANCH  26  30
ATOM     30  C   UNL     1       6.280   3.774  12.991  0.00  0.00    +0.000 C 
BRANCH  30  31
ATOM     31  C   UNL     1       5.424   3.222  11.848  0.00  0.00    +0.000 C 
BRANCH  31  33
ATOM     32  C   UNL     1       7.178   1.802  11.164  0.00  0.00    +0.000 C 
ATOM     33  O   UNL     1       5.815   1.873  11.564  0.00  0.00    +0.000 OA
ENDBRANCH  31  33
ENDBRANCH  30  31
ENDBRANCH  26  30
ENDBRANCH   1  27
TORSDOF 5
ENDMDL
MODEL 4
REMARK VINA RESULT:      -7.9      1.571      2.303
REMARK  Name = 
REMARK  6 active torsions:
REMARK  status: ('A' for Active; 'I' for Inactive)
REMARK    1  A    between atoms: C_1  and  O_2
REMARK    2  A    between atoms: O_2  and  C_3
REMARK    3  A    between atoms: C_3  and  C_4
REMARK    4  A    between atoms: C_4  and  N_5
REMARK    5  A    between atoms: C_6  and  C_8
REMARK    6  A    between atoms: C_12  and  C_13
REMARK                            x       y       z     vdW  Elec       q    Type
REMARK                         _______ _______ _______ _____ _____    ______ ____
ROOT
ATOM      1  C   UNL     1       4.296   6.541  16.960  0.00  0.00    +0.000 A 
ATOM      2  C   UNL     1       3.826   7.796  17.314  0.00  0.00    +0.000 A 
ATOM      3  N   UNL     1       3.021   7.597  18.395  0.00  0.00    +0.000 N 
ATOM      4  C   UNL     1       2.274   8.472  19.152  0.00  0.00    +0.000 A 
ATOM      5  C   UNL     1       1.533   7.982  20.167  0.00  0.00    +0.000 A 
ATOM      6  N   UNL     1       1.518   6.628  20.482  0.00  0.00    +0.000 NA
ATOM      7  C   UNL     1       2.266   5.770  19.813  0.00  0.00    +0.000 A 
ATOM      8  N   UNL     1       2.280   4.447  20.221  0.00  0.00    +0.000 N 
ATOM      9  C   UNL     1       3.431   3.557  20.048  0.00  0.00    +0.000 C 
ATOM     10  C   UNL     1       3.015   2.322  19.246  0.00  0.00    +0.000 C 
ATOM     11  O   UNL     1       1.903   1.653  19.869  0.00  0.00    +0.000 OA
ATOM     12  C   UNL     1       0.775   2.541  19.971  0.00  0.00    +0.000 C 
ATOM     13  C   UNL     1       1.109   3.791  20.805  0.00  0.00    +0.000 C 
ATOM     14  C   UNL     1       3.044   6.261  18.679  0.00  0.00    +0.000 A 
ATOM     15  N   UNL     1       3.778   5.579  17.816  0.00  0.00    +0.000 NA
ENDROOT
BRANCH   5  16
ATOM     16  C   UNL     1       0.738   8.915  21.008  0.00  0.00    +0.000 A 
ATOM     17  C   UNL     1       0.738   8.863  22.420  0.00  0.00    +0.000 A 
ATOM     18  C   UNL     1      -0.029   9.740  23.191  0.00  0.00    +0.000 A 
ATOM     19  C   UNL     1      -0.823  10.717  22.592  0.00  0.00    +0.000 A 
ATOM     20  C   UNL     1      -0.812  10.774  21.196  0.00  0.00    +0.000 A 
ATOM     21  N   UNL     1      -1.469  11.607  20.327  0.00  0.00    +0.000 N 
ATOM     22  N   UNL     1      -1.217  11.363  19.032  0.00  0.00    +0.000 NA
ATOM     23  C   UNL     1      -0.362  10.337  19.077  0.00  0.00    +0.000 A 
ATOM     24  C   UNL     1      -0.059   9.913  20.397  0.00  0.00    +0.000 A 
ATOM     25  H   UNL     1      -2.104  12.361  20.557  0.00  0.00    +0.000 HD
ENDBRANCH   5  16
BRANCH   1  27
ATOM     26  N   UNL     1       6.010   5.169  16.019  0.00  0.00    +0.000 N 
ATOM     27  C   UNL     1       5.198   6.261  15.842  0.00  0.00    +0.000 C 
ATOM     28  O   UNL     1       5.220   6.949  14.822  0.00  0.00    +0.000 OA
ATOM     29  H   UNL     1       6.014   4.727  16.933  0.00  0.00    +0.000 HD
BRANCH  26  30
ATOM     30  C   UNL     1       6.971   4.757  15.011  0.00  0.00    +0.000 C 
BRANCH  30  31
ATOM     31  C   UNL     1       6.388   3.794  13.972  0.00  0.00    +0.000 C 
BRANCH  31  33
ATOM     32  C   UNL     1       7.822   5.164  12.695  0.00  0.00    +0.000 C 
ATOM     33  O   UNL     1       6.745   4.234  12.657  0.00  0.00    +0.000 OA
ENDBRANCH  31  33
ENDBRANCH  30  31
ENDBRANCH  26  30
ENDBRANCH   1  27
TORSDOF 5
ENDMDL
MODEL 5
REMARK VINA RESULT:      -7.7      1.113      1.290
REMARK  Name = 
REMARK  6 active torsions:
REMARK  status: ('A' for Active; 'I' for Inactive)
REMARK    1  A    between atoms: C_1  and  O_2
REMARK    2  A    between atoms: O_2  and  C_3
REMARK    3  A    between atoms: C_3  and  C_4
REMARK    4  A    between atoms: C_4  and  N_5
REMARK    5  A    between atoms: C_6  and  C_8
REMARK    6  A    between atoms: C_12  and  C_13
REMARK                            x       y       z     vdW  Elec       q    Type
REMARK                         _______ _______ _______ _____ _____    ______ ____
ROOT
ATOM      1  C   UNL     1       5.055   6.045  16.785  0.00  0.00    +0.000 A 
ATOM      2  C   UNL     1       4.597   7.351  16.740  0.00  0.00    +0.000 A 
ATOM      3  N   UNL     1       3.596   7.424  17.662  0.00  0.00    +0.000 N 
ATOM      4  C   UNL     1       2.772   8.461  18.036  0.00  0.00    +0.000 A 
ATOM      5  C   UNL     1       1.830   8.235  18.977  0.00  0.00    +0.000 A 
ATOM      6  N   UNL     1       1.684   6.996  19.590  0.00  0.00    +0.000 NA
ATOM      7  C   UNL     1       2.495   5.996  19.295  0.00  0.00    +0.000 A 
ATOM      8  N   UNL     1       2.362   4.809  19.995  0.00  0.00    +0.000 N 
ATOM      9  C   UNL     1       3.475   3.894  20.258  0.00  0.00    +0.000 C 
ATOM     10  C   UNL     1       3.146   2.507  19.702  0.00  0.00    +0.000 C 
ATOM     11  O   UNL     1       1.904   2.015  20.238  0.00  0.00    +0.000 OA
ATOM     12  C   UNL     1       0.827   2.913  19.912  0.00  0.00    +0.000 C 
ATOM     13  C   UNL     1       1.069   4.322  20.480  0.00  0.00    +0.000 C 
ATOM     14  C   UNL     1       3.494   6.194  18.249  0.00  0.00    +0.000 A 
ATOM     15  N   UNL     1       4.337   5.320  17.726  0.00  0.00    +0.000 NA
ENDROOT
BRANCH   5  16
ATOM     16  C   UNL     1       0.946   9.349  19.408  0.00  0.00    +0.000 A 
ATOM     17  C   UNL     1       0.272  10.190  18.494  0.00  0.00    +0.000 A 
ATOM     18  C   UNL     1      -0.543  11.242  18.920  0.00  0.00    +0.000 A 
ATOM     19  C   UNL     1      -0.734  11.498  20.276  0.00  0.00    +0.000 A 
ATOM     20  C   UNL     1      -0.076  10.658  21.179  0.00  0.00    +0.000 A 
ATOM     21  N   UNL     1      -0.065  10.646  22.550  0.00  0.00    +0.000 N 
ATOM     22  N   UNL     1       0.695   9.681  23.088  0.00  0.00    +0.000 NA
ATOM     23  C   UNL     1       1.184   9.047  22.018  0.00  0.00    +0.000 A 
ATOM     24  C   UNL     1       0.745   9.600  20.787  0.00  0.00    +0.000 A 
ATOM     25  H   UNL     1      -0.555  11.274  23.176  0.00  0.00    +0.000 HD
ENDBRANCH   5  16
BRANCH   1  27
ATOM     26  N   UNL     1       5.732   4.543  15.055  0.00  0.00    +0.000 N 
ATOM     27  C   UNL     1       6.131   5.497  15.957  0.00  0.00    +0.000 C 
ATOM     28  O   UNL     1       7.298   5.869  16.061  0.00  0.00    +0.000 OA
ATOM     29  H   UNL     1       4.776   4.208  15.113  0.00  0.00    +0.000 HD
BRANCH  26  30
ATOM     30  C   UNL     1       6.675   3.890  14.163  0.00  0.00    +0.000 C 
BRANCH  30  31
ATOM     31  C   UNL     1       6.834   4.604  12.818  0.00  0.00    +0.000 C 
BRANCH  31  33
ATOM     32  C   UNL     1       8.080   6.247  11.673  0.00  0.00    +0.000 C 
ATOM     33  O   UNL     1       7.927   5.527  12.891  0.00  0.00    +0.000 OA
ENDBRANCH  31  33
ENDBRANCH  30  31
ENDBRANCH  26  30
ENDBRANCH   1  27
TORSDOF 5
ENDMDL
MODEL 6
REMARK VINA RESULT:      -7.4      4.816      9.930
REMARK  Name = 
REMARK  6 active torsions:
REMARK  status: ('A' for Active; 'I' for Inactive)
REMARK    1  A    between atoms: C_1  and  O_2
REMARK    2  A    between atoms: O_2  and  C_3
REMARK    3  A    between atoms: C_3  and  C_4
REMARK    4  A    between atoms: C_4  and  N_5
REMARK    5  A    between atoms: C_6  and  C_8
REMARK    6  A    between atoms: C_12  and  C_13
REMARK                            x       y       z     vdW  Elec       q    Type
REMARK                         _______ _______ _______ _____ _____    ______ ____
ROOT
ATOM      1  C   UNL     1      -1.079  11.455  22.069  0.00  0.00    +0.000 A 
ATOM      2  C   UNL     1       0.032  10.649  22.255  0.00  0.00    +0.000 A 
ATOM      3  N   UNL     1       0.280  10.076  21.043  0.00  0.00    +0.000 N 
ATOM      4  C   UNL     1       1.240   9.177  20.637  0.00  0.00    +0.000 A 
ATOM      5  C   UNL     1       1.230   8.751  19.357  0.00  0.00    +0.000 A 
ATOM      6  N   UNL     1       0.294   9.208  18.436  0.00  0.00    +0.000 NA
ATOM      7  C   UNL     1      -0.604  10.113  18.778  0.00  0.00    +0.000 A 
ATOM      8  N   UNL     1      -1.458  10.598  17.802  0.00  0.00    +0.000 N 
ATOM      9  C   UNL     1      -2.028  11.947  17.821  0.00  0.00    +0.000 C 
ATOM     10  C   UNL     1      -3.556  11.864  17.783  0.00  0.00    +0.000 C 
ATOM     11  O   UNL     1      -4.004  11.104  16.645  0.00  0.00    +0.000 OA
ATOM     12  C   UNL     1      -3.468   9.769  16.692  0.00  0.00    +0.000 C 
ATOM     13  C   UNL     1      -1.929   9.773  16.687  0.00  0.00    +0.000 C 
ATOM     14  C   UNL     1      -0.649  10.561  20.167  0.00  0.00    +0.000 A 
ATOM     15  N   UNL     1      -1.512  11.374  20.752  0.00  0.00    +0.000 NA
ENDROOT
BRANCH   5  16
ATOM     16  C   UNL     1       2.272   7.797  18.896  0.00  0.00    +0.000 A 
ATOM     17  C   UNL     1       3.136   8.070  17.811  0.00  0.00    +0.000 A 
ATOM     18  C   UNL     1       4.098   7.152  17.384  0.00  0.00    +0.000 A 
ATOM     19  C   UNL     1       4.255   5.924  18.025  0.00  0.00    +0.000 A 
ATOM     20  C   UNL     1       3.408   5.661  19.105  0.00  0.00    +0.000 A 
ATOM     21  N   UNL     1       3.317   4.568  19.929  0.00  0.00    +0.000 N 
ATOM     22  N   UNL     1       2.368   4.665  20.872  0.00  0.00    +0.000 NA
ATOM     23  C   UNL     1       1.836   5.870  20.645  0.00  0.00    +0.000 A 
ATOM     24  C   UNL     1       2.436   6.554  19.556  0.00  0.00    +0.000 A 
ATOM     25  H   UNL     1       3.874   3.723  19.895  0.00  0.00    +0.000 HD
ENDBRANCH   5  16
BRANCH   1  27
ATOM     26  N   UNL     1      -3.015  11.927  23.385  0.00  0.00    +0.000 N 
ATOM     27  C   UNL     1      -1.716  12.269  23.105  0.00  0.00    +0.000 C 
ATOM     28  O   UNL     1      -1.129  13.183  23.682  0.00  0.00    +0.000 OA
ATOM     29  H   UNL     1      -3.463  11.241  22.785  0.00  0.00    +0.000 HD
BRANCH  26  30
ATOM     30  C   UNL     1      -3.798  12.639  24.381  0.00  0.00    +0.000 C 
BRANCH  30  31
ATOM     31  C   UNL     1      -5.277  12.772  24.010  0.00  0.00    +0.000 C 
BRANCH  31  33
ATOM     32  C   UNL     1      -6.806  12.643  22.218  0.00  0.00    +0.000 C 
ATOM     33  O   UNL     1      -5.455  12.455  22.624  0.00  0.00    +0.000 OA
ENDBRANCH  31  33
ENDBRANCH  30  31
ENDBRANCH  26  30
ENDBRANCH   1  27
TORSDOF 5
ENDMDL
MODEL 7
REMARK VINA RESULT:      -7.2      1.515      1.894
REMARK  Name = 
REMARK  6 active torsions:
REMARK  status: ('A' for Active; 'I' for Inactive)
REMARK    1  A    between atoms: C_1  and  O_2
REMARK    2  A    between atoms: O_2  and  C_3
REMARK    3  A    between atoms: C_3  and  C_4
REMARK    4  A    between atoms: C_4  and  N_5
REMARK    5  A    between atoms: C_6  and  C_8
REMARK    6  A    between atoms: C_12  and  C_13
REMARK                            x       y       z     vdW  Elec       q    Type
REMARK                         _______ _______ _______ _____ _____    ______ ____
ROOT
ATOM      1  C   UNL     1       5.152   5.829  16.685  0.00  0.00    +0.000 A 
ATOM      2  C   UNL     1       4.750   7.151  16.584  0.00  0.00    +0.000 A 
ATOM      3  N   UNL     1       3.770   7.312  17.518  0.00  0.00    +0.000 N 
ATOM      4  C   UNL     1       2.999   8.401  17.854  0.00  0.00    +0.000 A 
ATOM      5  C   UNL     1       2.066   8.262  18.820  0.00  0.00    +0.000 A 
ATOM      6  N   UNL     1       1.877   7.062  19.495  0.00  0.00    +0.000 NA
ATOM      7  C   UNL     1       2.638   6.015  19.236  0.00  0.00    +0.000 A 
ATOM      8  N   UNL     1       2.467   4.869  19.995  0.00  0.00    +0.000 N 
ATOM      9  C   UNL     1       3.544   3.919  20.284  0.00  0.00    +0.000 C 
ATOM     10  C   UNL     1       3.146   2.523  19.802  0.00  0.00    +0.000 C 
ATOM     11  O   UNL     1       1.893   2.113  20.382  0.00  0.00    +0.000 OA
ATOM     12  C   UNL     1       0.850   3.041  20.030  0.00  0.00    +0.000 C 
ATOM     13  C   UNL     1       1.163   4.464  20.525  0.00  0.00    +0.000 C 
ATOM     14  C   UNL     1       3.626   6.118  18.165  0.00  0.00    +0.000 A 
ATOM     15  N   UNL     1       4.420   5.183  17.672  0.00  0.00    +0.000 NA
ENDROOT
BRANCH   5  16
ATOM     16  C   UNL     1       1.239   9.434  19.210  0.00  0.00    +0.000 A 
ATOM     17  C   UNL     1       0.137   9.335  20.090  0.00  0.00    +0.000 A 
ATOM     18  C   UNL     1      -0.638  10.446  20.432  0.00  0.00    +0.000 A 
ATOM     19  C   UNL     1      -0.343  11.710  19.923  0.00  0.00    +0.000 A 
ATOM     20  C   UNL     1       0.753  11.808  19.063  0.00  0.00    +0.000 A 
ATOM     21  N   UNL     1       1.292  12.890  18.415  0.00  0.00    +0.000 N 
ATOM     22  N   UNL     1       2.360  12.603  17.656  0.00  0.00    +0.000 NA
ATOM     23  C   UNL     1       2.513  11.287  17.831  0.00  0.00    +0.000 A 
ATOM     24  C   UNL     1       1.546  10.719  18.700  0.00  0.00    +0.000 A 
ATOM     25  H   UNL     1       0.972  13.851  18.449  0.00  0.00    +0.000 HD
ENDBRANCH   5  16
BRANCH   1  27
ATOM     26  N   UNL     1       5.892   5.111  14.531  0.00  0.00    +0.000 N 
ATOM     27  C   UNL     1       6.188   5.195  15.868  0.00  0.00    +0.000 C 
ATOM     28  O   UNL     1       7.241   4.778  16.345  0.00  0.00    +0.000 OA
ATOM     29  H   UNL     1       4.956   5.371  14.236  0.00  0.00    +0.000 HD
BRANCH  26  30
ATOM     30  C   UNL     1       6.807   4.502  13.580  0.00  0.00    +0.000 C 
BRANCH  30  31
ATOM     31  C   UNL     1       6.213   3.291  12.856  0.00  0.00    +0.000 C 
BRANCH  31  33
ATOM     32  C   UNL     1       4.304   3.166  11.476  0.00  0.00    +0.000 C 
ATOM     33  O   UNL     1       5.609   3.714  11.628  0.00  0.00    +0.000 OA
ENDBRANCH  31  33
ENDBRANCH  30  31
ENDBRANCH  26  30
ENDBRANCH   1  27
TORSDOF 5
ENDMDL
MODEL 8
REMARK VINA RESULT:      -7.1      4.721      8.624
REMARK  Name = 
REMARK  6 active torsions:
REMARK  status: ('A' for Active; 'I' for Inactive)
REMARK    1  A    between atoms: C_1  and  O_2
REMARK    2  A    between atoms: O_2  and  C_3
REMARK    3  A    between atoms: C_3  and  C_4
REMARK    4  A    between atoms: C_4  and  N_5
REMARK    5  A    between atoms: C_6  and  C_8
REMARK    6  A    between atoms: C_12  and  C_13
REMARK                            x       y       z     vdW  Elec       q    Type
REMARK                         _______ _______ _______ _____ _____    ______ ____
ROOT
ATOM      1  C   UNL     1       2.019  12.537  18.427  0.00  0.00    +0.000 A 
ATOM      2  C   UNL     1       2.661  11.595  17.640  0.00  0.00    +0.000 A 
ATOM      3  N   UNL     1       2.306  10.383  18.151  0.00  0.00    +0.000 N 
ATOM      4  C   UNL     1       2.654   9.101  17.789  0.00  0.00    +0.000 A 
ATOM      5  C   UNL     1       2.164   8.068  18.506  0.00  0.00    +0.000 A 
ATOM      6  N   UNL     1       1.305   8.260  19.583  0.00  0.00    +0.000 NA
ATOM      7  C   UNL     1       0.907   9.473  19.921  0.00  0.00    +0.000 A 
ATOM      8  N   UNL     1      -0.015   9.604  20.946  0.00  0.00    +0.000 N 
ATOM      9  C   UNL     1      -0.987  10.696  21.027  0.00  0.00    +0.000 C 
ATOM     10  C   UNL     1      -0.819  11.441  22.354  0.00  0.00    +0.000 C 
ATOM     11  O   UNL     1      -0.925  10.538  23.470  0.00  0.00    +0.000 OA
ATOM     12  C   UNL     1       0.081   9.512  23.383  0.00  0.00    +0.000 C 
ATOM     13  C   UNL     1      -0.055   8.690  22.090  0.00  0.00    +0.000 C 
ATOM     14  C   UNL     1       1.454  10.615  19.194  0.00  0.00    +0.000 A 
ATOM     15  N   UNL     1       1.278  11.906  19.417  0.00  0.00    +0.000 NA
ENDROOT
BRANCH   5  16
ATOM     16  C   UNL     1       2.512   6.677  18.116  0.00  0.00    +0.000 A 
ATOM     17  C   UNL     1       1.592   5.607  18.190  0.00  0.00    +0.000 A 
ATOM     18  C   UNL     1       1.945   4.303  17.833  0.00  0.00    +0.000 A 
ATOM     19  C   UNL     1       3.227   4.007  17.374  0.00  0.00    +0.000 A 
ATOM     20  C   UNL     1       4.132   5.068  17.290  0.00  0.00    +0.000 A 
ATOM     21  N   UNL     1       5.440   5.102  16.881  0.00  0.00    +0.000 N 
ATOM     22  N   UNL     1       6.005   6.317  16.938  0.00  0.00    +0.000 NA
ATOM     23  C   UNL     1       5.017   7.090  17.398  0.00  0.00    +0.000 A 
ATOM     24  C   UNL     1       3.813   6.381  17.640  0.00  0.00    +0.000 A 
ATOM     25  H   UNL     1       6.003   4.327  16.552  0.00  0.00    +0.000 HD
ENDBRANCH   5  16
BRANCH   1  27
ATOM     26  N   UNL     1       3.245  14.418  17.614  0.00  0.00    +0.000 N 
ATOM     27  C   UNL     1       2.111  13.988  18.255  0.00  0.00    +0.000 C 
ATOM     28  O   UNL     1       1.236  14.757  18.649  0.00  0.00    +0.000 OA
ATOM     29  H   UNL     1       3.971  13.734  17.426  0.00  0.00    +0.000 HD
BRANCH  26  30
ATOM     30  C   UNL     1       3.500  15.828  17.369  0.00  0.00    +0.000 C 
BRANCH  30  31
ATOM     31  C   UNL     1       4.282  16.509  18.496  0.00  0.00    +0.000 C 
BRANCH  31  33
ATOM     32  C   UNL     1       3.236  17.100  20.525  0.00  0.00    +0.000 C 
ATOM     33  O   UNL     1       3.437  17.455  19.162  0.00  0.00    +0.000 OA
ENDBRANCH  31  33
ENDBRANCH  30  31
ENDBRANCH  26  30
ENDBRANCH   1  27
TORSDOF 5
ENDMDL
MODEL 9
REMARK VINA RESULT:      -6.9      2.277      5.445
REMARK  Name = 
REMARK  6 active torsions:
REMARK  status: ('A' for Active; 'I' for Inactive)
REMARK    1  A    between atoms: C_1  and  O_2
REMARK    2  A    between atoms: O_2  and  C_3
REMARK    3  A    between atoms: C_3  and  C_4
REMARK    4  A    between atoms: C_4  and  N_5
REMARK    5  A    between atoms: C_6  and  C_8
REMARK    6  A    between atoms: C_12  and  C_13
REMARK                            x       y       z     vdW  Elec       q    Type
REMARK                         _______ _______ _______ _____ _____    ______ ____
ROOT
ATOM      1  C   UNL     1       3.692   3.346  19.247  0.00  0.00    +0.000 A 
ATOM      2  C   UNL     1       2.594   3.998  19.785  0.00  0.00    +0.000 A 
ATOM      3  N   UNL     1       2.686   5.290  19.359  0.00  0.00    +0.000 N 
ATOM      4  C   UNL     1       1.891   6.388  19.596  0.00  0.00    +0.000 A 
ATOM      5  C   UNL     1       2.246   7.574  19.058  0.00  0.00    +0.000 A 
ATOM      6  N   UNL     1       3.376   7.712  18.259  0.00  0.00    +0.000 NA
ATOM      7  C   UNL     1       4.128   6.668  17.967  0.00  0.00    +0.000 A 
ATOM      8  N   UNL     1       5.193   6.842  17.098  0.00  0.00    +0.000 N 
ATOM      9  C   UNL     1       5.699   5.790  16.215  0.00  0.00    +0.000 C 
ATOM     10  C   UNL     1       7.186   5.554  16.491  0.00  0.00    +0.000 C 
ATOM     11  O   UNL     1       7.936   6.776  16.362  0.00  0.00    +0.000 OA
ATOM     12  C   UNL     1       7.444   7.766  17.283  0.00  0.00    +0.000 C 
ATOM     13  C   UNL     1       5.960   8.088  17.035  0.00  0.00    +0.000 C 
ATOM     14  C   UNL     1       3.797   5.379  18.570  0.00  0.00    +0.000 A 
ATOM     15  N   UNL     1       4.455   4.234  18.500  0.00  0.00    +0.000 NA
ENDROOT
BRANCH   5  16
ATOM     16  C   UNL     1       1.387   8.766  19.285  0.00  0.00    +0.000 A 
ATOM     17  C   UNL     1       0.841   9.530  18.229  0.00  0.00    +0.000 A 
ATOM     18  C   UNL     1       0.049  10.656  18.464  0.00  0.00    +0.000 A 
ATOM     19  C   UNL     1      -0.247  11.067  19.763  0.00  0.00    +0.000 A 
ATOM     20  C   UNL     1       0.284  10.303  20.806  0.00  0.00    +0.000 A 
ATOM     21  N   UNL     1       0.174  10.442  22.166  0.00  0.00    +0.000 N 
ATOM     22  N   UNL     1       0.831   9.510  22.871  0.00  0.00    +0.000 NA
ATOM     23  C   UNL     1       1.379   8.742  21.923  0.00  0.00    +0.000 A 
ATOM     24  C   UNL     1       1.079   9.175  20.606  0.00  0.00    +0.000 A 
ATOM     25  H   UNL     1      -0.336  11.155  22.673  0.00  0.00    +0.000 HD
ENDBRANCH   5  16
BRANCH   1  27
ATOM     26  N   UNL     1       5.030   1.692  20.332  0.00  0.00    +0.000 N 
ATOM     27  C   UNL     1       4.015   1.932  19.441  0.00  0.00    +0.000 C 
ATOM     28  O   UNL     1       3.417   1.032  18.854  0.00  0.00    +0.000 OA
ATOM     29  H   UNL     1       5.550   2.491  20.682  0.00  0.00    +0.000 HD
BRANCH  26  30
ATOM     30  C   UNL     1       5.483   0.345  20.633  0.00  0.00    +0.000 C 
BRANCH  30  31
ATOM     31  C   UNL     1       5.780   0.122  22.119  0.00  0.00    +0.000 C 
BRANCH  31  33
ATOM     32  C   UNL     1       7.290  -1.619  22.619  0.00  0.00    +0.000 C 
ATOM     33  O   UNL     1       7.155  -0.243  22.285  0.00  0.00    +0.000 OA
ENDBRANCH  31  33
ENDBRANCH  30  31
ENDBRANCH  26  30
ENDBRANCH   1  27
TORSDOF 5
ENDMDL
