MODEL 1
REMARK VINA RESULT:      -7.6      0.000      0.000
REMARK  Name = 
REMARK  3 active torsions:
REMARK  status: ('A' for Active; 'I' for Inactive)
REMARK    1  A    between atoms: C_1  and  C_2
REMARK    2  A    between atoms: C_7  and  O_8
REMARK    3  A    between atoms: C_11  and  C_12
REMARK                            x       y       z     vdW  Elec       q    Type
REMARK                         _______ _______ _______ _____ _____    ______ ____
ROOT
ATOM      1  C   UNL     1       1.247   2.494  22.210  0.00  0.00    +0.000 C 
ATOM      2  C   UNL     1       1.702   3.437  21.122  0.00  0.00    +0.000 C 
ATOM      3  O   UNL     1       1.088   4.469  20.924  0.00  0.00    +0.000 OA
ATOM      4  N   UNL     1       2.792   2.985  20.401  0.00  0.00    +0.000 N 
ATOM      5  C   UNL     1       3.341   3.716  19.342  0.00  0.00    +0.000 A 
ATOM      6  N   UNL     1       3.044   5.028  19.246  0.00  0.00    +0.000 NA
ATOM      7  C   UNL     1       3.517   5.722  18.206  0.00  0.00    +0.000 A 
ATOM      8  C   UNL     1       4.275   5.106  17.228  0.00  0.00    +0.000 A 
ATOM      9  N   UNL     1       4.856   5.539  16.062  0.00  0.00    +0.000 NA
ATOM     10  C   UNL     1       5.446   4.478  15.541  0.00  0.00    +0.000 A 
ATOM     11  N   UNL     1       5.251   3.376  16.347  0.00  0.00    +0.000 N 
ATOM     12  C   UNL     1       4.527   3.763  17.443  0.00  0.00    +0.000 A 
ATOM     13  N   UNL     1       4.126   3.013  18.491  0.00  0.00    +0.000 NA
ATOM     14  H   UNL     1       3.067   2.019  20.440  0.00  0.00    +0.000 HD
ATOM     15  H   UNL     1       5.594   2.445  16.166  0.00  0.00    +0.000 HD
ENDROOT
BRANCH  10  16
ATOM     16  C   UNL     1       6.218   4.465  14.298  0.00  0.00    +0.000 A 
ATOM     17  C   UNL     1       7.329   5.295  14.112  0.00  0.00    +0.000 A 
ATOM     18  C   UNL     1       8.006   5.307  12.888  0.00  0.00    +0.000 A 
ATOM     19  C   UNL     1       7.596   4.469  11.853  0.00  0.00    +0.000 A 
ATOM     20  C   UNL     1       6.516   3.610  12.040  0.00  0.00    +0.000 A 
ATOM     21  C   UNL     1       5.829   3.612  13.254  0.00  0.00    +0.000 A 
ENDBRANCH  10  16
BRANCH   7  22
ATOM     22  O   UNL     1       3.194   7.049  18.197  0.00  0.00    +0.000 OA
ATOM     23  H   UNL     1       4.050   7.446  17.955  0.00  0.00    +0.000 HD
ENDBRANCH   7  22
TORSDOF 2
ENDMDL
MODEL 2
REMARK VINA RESULT:      -7.3      0.170      1.091
REMARK  Name = 
REMARK  3 active torsions:
REMARK  status: ('A' for Active; 'I' for Inactive)
REMARK    1  A    between atoms: C_1  and  C_2
REMARK    2  A    between atoms: C_7  and  O_8
REMARK    3  A    between atoms: C_11  and  C_12
REMARK                            x       y       z     vdW  Elec       q    Type
REMARK                         _______ _______ _______ _____ _____    ______ ____
ROOT
ATOM      1  C   UNL     1       1.456   2.472  22.323  0.00  0.00    +0.000 C 
ATOM      2  C   UNL     1       1.900   3.418  21.233  0.00  0.00    +0.000 C 
ATOM      3  O   UNL     1       1.327   4.483  21.089  0.00  0.00    +0.000 OA
ATOM      4  N   UNL     1       2.929   2.933  20.447  0.00  0.00    +0.000 N 
ATOM      5  C   UNL     1       3.458   3.662  19.377  0.00  0.00    +0.000 A 
ATOM      6  N   UNL     1       3.220   4.988  19.324  0.00  0.00    +0.000 NA
ATOM      7  C   UNL     1       3.672   5.683  18.276  0.00  0.00    +0.000 A 
ATOM      8  C   UNL     1       4.349   5.056  17.247  0.00  0.00    +0.000 A 
ATOM      9  N   UNL     1       4.890   5.489  16.062  0.00  0.00    +0.000 NA
ATOM     10  C   UNL     1       5.400   4.414  15.489  0.00  0.00    +0.000 A 
ATOM     11  N   UNL     1       5.194   3.303  16.280  0.00  0.00    +0.000 N 
ATOM     12  C   UNL     1       4.546   3.698  17.420  0.00  0.00    +0.000 A 
ATOM     13  N   UNL     1       4.164   2.943  18.471  0.00  0.00    +0.000 NA
ATOM     14  H   UNL     1       3.159   1.954  20.451  0.00  0.00    +0.000 HD
ATOM     15  H   UNL     1       5.482   2.362  16.062  0.00  0.00    +0.000 HD
ENDROOT
BRANCH  10  16
ATOM     16  C   UNL     1       6.107   4.394  14.207  0.00  0.00    +0.000 A 
ATOM     17  C   UNL     1       5.674   3.598  13.139  0.00  0.00    +0.000 A 
ATOM     18  C   UNL     1       6.408   3.551  11.950  0.00  0.00    +0.000 A 
ATOM     19  C   UNL     1       7.562   4.320  11.808  0.00  0.00    +0.000 A 
ATOM     20  C   UNL     1       7.980   5.145  12.849  0.00  0.00    +0.000 A 
ATOM     21  C   UNL     1       7.259   5.177  14.043  0.00  0.00    +0.000 A 
ENDBRANCH  10  16
BRANCH   7  22
ATOM     22  O   UNL     1       3.413   7.024  18.311  0.00  0.00    +0.000 OA
ATOM     23  H   UNL     1       4.303   7.379  18.492  0.00  0.00    +0.000 HD
ENDBRANCH   7  22
TORSDOF 2
ENDMDL
MODEL 3
REMARK VINA RESULT:      -7.2      5.580      6.769
REMARK  Name = 
REMARK  3 active torsions:
REMARK  status: ('A' for Active; 'I' for Inactive)
REMARK    1  A    between atoms: C_1  and  C_2
REMARK    2  A    between atoms: C_7  and  O_8
REMARK    3  A    between atoms: C_11  and  C_12
REMARK                            x       y       z     vdW  Elec       q    Type
REMARK                         _______ _______ _______ _____ _____    ______ ____
ROOT
ATOM      1  C   UNL     1       3.316   3.239  17.032  0.00  0.00    +0.000 C 
ATOM      2  C   UNL     1       4.468   3.933  17.716  0.00  0.00    +0.000 C 
ATOM      3  O   UNL     1       4.856   3.533  18.798  0.00  0.00    +0.000 OA
ATOM      4  N   UNL     1       4.956   5.031  17.030  0.00  0.00    +0.000 N 
ATOM      5  C   UNL     1       6.010   5.809  17.520  0.00  0.00    +0.000 A 
ATOM      6  N   UNL     1       6.798   5.290  18.483  0.00  0.00    +0.000 NA
ATOM      7  C   UNL     1       7.772   6.046  18.998  0.00  0.00    +0.000 A 
ATOM      8  C   UNL     1       7.957   7.349  18.576  0.00  0.00    +0.000 A 
ATOM      9  N   UNL     1       8.826   8.349  18.931  0.00  0.00    +0.000 NA
ATOM     10  C   UNL     1       8.506   9.386  18.178  0.00  0.00    +0.000 A 
ATOM     11  N   UNL     1       7.446   9.071  17.353  0.00  0.00    +0.000 N 
ATOM     12  C   UNL     1       7.099   7.765  17.574  0.00  0.00    +0.000 A 
ATOM     13  N   UNL     1       6.129   7.043  16.974  0.00  0.00    +0.000 NA
ATOM     14  H   UNL     1       4.417   5.457  16.296  0.00  0.00    +0.000 HD
ATOM     15  H   UNL     1       7.011   9.693  16.690  0.00  0.00    +0.000 HD
ENDROOT
BRANCH  10  16
ATOM     16  C   UNL     1       9.183  10.683  18.193  0.00  0.00    +0.000 A 
ATOM     17  C   UNL     1       8.594  11.829  17.644  0.00  0.00    +0.000 A 
ATOM     18  C   UNL     1       9.295  13.038  17.614  0.00  0.00    +0.000 A 
ATOM     19  C   UNL     1      10.576  13.120  18.158  0.00  0.00    +0.000 A 
ATOM     20  C   UNL     1      11.156  11.997  18.742  0.00  0.00    +0.000 A 
ATOM     21  C   UNL     1      10.465  10.785  18.755  0.00  0.00    +0.000 A 
ENDBRANCH  10  16
BRANCH   7  22
ATOM     22  O   UNL     1       8.541   5.437  19.948  0.00  0.00    +0.000 OA
ATOM     23  H   UNL     1       8.796   4.619  19.483  0.00  0.00    +0.000 HD
ENDBRANCH   7  22
TORSDOF 2
ENDMDL
MODEL 4
REMARK VINA RESULT:      -7.2      5.548      6.710
REMARK  Name = 
REMARK  3 active torsions:
REMARK  status: ('A' for Active; 'I' for Inactive)
REMARK    1  A    between atoms: C_1  and  C_2
REMARK    2  A    between atoms: C_7  and  O_8
REMARK    3  A    between atoms: C_11  and  C_12
REMARK                            x       y       z     vdW  Elec       q    Type
REMARK                         _______ _______ _______ _____ _____    ______ ____
ROOT
ATOM      1  C   UNL     1       3.225   3.248  17.001  0.00  0.00    +0.000 C 
ATOM      2  C   UNL     1       4.386   3.928  17.686  0.00  0.00    +0.000 C 
ATOM      3  O   UNL     1       4.771   3.519  18.766  0.00  0.00    +0.000 OA
ATOM      4  N   UNL     1       4.884   5.022  17.003  0.00  0.00    +0.000 N 
ATOM      5  C   UNL     1       5.948   5.787  17.495  0.00  0.00    +0.000 A 
ATOM      6  N   UNL     1       6.732   5.256  18.454  0.00  0.00    +0.000 NA
ATOM      7  C   UNL     1       7.714   6.000  18.971  0.00  0.00    +0.000 A 
ATOM      8  C   UNL     1       7.913   7.302  18.553  0.00  0.00    +0.000 A 
ATOM      9  N   UNL     1       8.793   8.291  18.911  0.00  0.00    +0.000 NA
ATOM     10  C   UNL     1       8.483   9.335  18.162  0.00  0.00    +0.000 A 
ATOM     11  N   UNL     1       7.419   9.034  17.337  0.00  0.00    +0.000 N 
ATOM     12  C   UNL     1       7.057   7.731  17.554  0.00  0.00    +0.000 A 
ATOM     13  N   UNL     1       6.080   7.022  16.953  0.00  0.00    +0.000 NA
ATOM     14  H   UNL     1       4.349   5.456  16.272  0.00  0.00    +0.000 HD
ATOM     15  H   UNL     1       6.989   9.663  16.677  0.00  0.00    +0.000 HD
ENDROOT
BRANCH  10  16
ATOM     16  C   UNL     1       9.174  10.624  18.180  0.00  0.00    +0.000 A 
ATOM     17  C   UNL     1      10.464  10.762  18.707  0.00  0.00    +0.000 A 
ATOM     18  C   UNL     1      11.071  12.020  18.770  0.00  0.00    +0.000 A 
ATOM     19  C   UNL     1      10.408  13.144  18.281  0.00  0.00    +0.000 A 
ATOM     20  C   UNL     1       9.141  13.013  17.719  0.00  0.00    +0.000 A 
ATOM     21  C   UNL     1       8.526  11.761  17.674  0.00  0.00    +0.000 A 
ENDBRANCH  10  16
BRANCH   7  22
ATOM     22  O   UNL     1       8.478   5.379  19.917  0.00  0.00    +0.000 OA
ATOM     23  H   UNL     1       7.968   5.574  20.724  0.00  0.00    +0.000 HD
ENDBRANCH   7  22
TORSDOF 2
ENDMDL
MODEL 5
REMARK VINA RESULT:      -7.1      4.391      8.362
REMARK  Name = 
REMARK  3 active torsions:
REMARK  status: ('A' for Active; 'I' for Inactive)
REMARK    1  A    between atoms: C_1  and  C_2
REMARK    2  A    between atoms: C_7  and  O_8
REMARK    3  A    between atoms: C_11  and  C_12
REMARK                            x       y       z     vdW  Elec       q    Type
REMARK                         _______ _______ _______ _____ _____    ______ ____
ROOT
ATOM      1  C   UNL     1       5.602   4.102  15.193  0.00  0.00    +0.000 C 
ATOM      2  C   UNL     1       4.779   4.278  16.446  0.00  0.00    +0.000 C 
ATOM      3  O   UNL     1       4.341   3.298  17.022  0.00  0.00    +0.000 OA
ATOM      4  N   UNL     1       4.560   5.596  16.800  0.00  0.00    +0.000 N 
ATOM      5  C   UNL     1       3.803   5.953  17.921  0.00  0.00    +0.000 A 
ATOM      6  N   UNL     1       3.583   5.020  18.870  0.00  0.00    +0.000 NA
ATOM      7  C   UNL     1       2.814   5.334  19.916  0.00  0.00    +0.000 A 
ATOM      8  C   UNL     1       2.228   6.582  20.018  0.00  0.00    +0.000 A 
ATOM      9  N   UNL     1       1.388   7.166  20.933  0.00  0.00    +0.000 NA
ATOM     10  C   UNL     1       1.158   8.385  20.479  0.00  0.00    +0.000 A 
ATOM     11  N   UNL     1       1.828   8.590  19.292  0.00  0.00    +0.000 N 
ATOM     12  C   UNL     1       2.538   7.457  18.994  0.00  0.00    +0.000 A 
ATOM     13  N   UNL     1       3.344   7.228  17.936  0.00  0.00    +0.000 NA
ATOM     14  H   UNL     1       4.715   6.337  16.137  0.00  0.00    +0.000 HD
ATOM     15  H   UNL     1       1.809   9.435  18.743  0.00  0.00    +0.000 HD
ENDROOT
BRANCH  10  16
ATOM     16  C   UNL     1       0.329   9.391  21.143  0.00  0.00    +0.000 A 
ATOM     17  C   UNL     1      -0.116  10.539  20.475  0.00  0.00    +0.000 A 
ATOM     18  C   UNL     1      -0.851  11.513  21.156  0.00  0.00    +0.000 A 
ATOM     19  C   UNL     1      -1.173  11.337  22.501  0.00  0.00    +0.000 A 
ATOM     20  C   UNL     1      -0.769  10.182  23.165  0.00  0.00    +0.000 A 
ATOM     21  C   UNL     1      -0.019   9.217  22.492  0.00  0.00    +0.000 A 
ENDBRANCH  10  16
BRANCH   7  22
ATOM     22  O   UNL     1       2.663   4.343  20.845  0.00  0.00    +0.000 OA
ATOM     23  H   UNL     1       1.752   4.050  20.657  0.00  0.00    +0.000 HD
ENDBRANCH   7  22
TORSDOF 2
ENDMDL
MODEL 6
REMARK VINA RESULT:      -7.1      1.289      1.289
REMARK  Name = 
REMARK  3 active torsions:
REMARK  status: ('A' for Active; 'I' for Inactive)
REMARK    1  A    between atoms: C_1  and  C_2
REMARK    2  A    between atoms: C_7  and  O_8
REMARK    3  A    between atoms: C_11  and  C_12
REMARK                            x       y       z     vdW  Elec       q    Type
REMARK                         _______ _______ _______ _____ _____    ______ ____
ROOT
ATOM      1  C   UNL     1       1.085   2.513  21.902  0.00  0.00    +0.000 C 
ATOM      2  C   UNL     1       2.209   3.245  21.210  0.00  0.00    +0.000 C 
ATOM      3  O   UNL     1       2.651   4.270  21.698  0.00  0.00    +0.000 OA
ATOM      4  N   UNL     1       2.606   2.674  20.015  0.00  0.00    +0.000 N 
ATOM      5  C   UNL     1       3.622   3.225  19.225  0.00  0.00    +0.000 A 
ATOM      6  N   UNL     1       4.467   4.109  19.792  0.00  0.00    +0.000 NA
ATOM      7  C   UNL     1       5.404   4.684  19.032  0.00  0.00    +0.000 A 
ATOM      8  C   UNL     1       5.494   4.402  17.681  0.00  0.00    +0.000 A 
ATOM      9  N   UNL     1       6.307   4.847  16.670  0.00  0.00    +0.000 NA
ATOM     10  C   UNL     1       5.900   4.218  15.581  0.00  0.00    +0.000 A 
ATOM     11  N   UNL     1       4.841   3.385  15.876  0.00  0.00    +0.000 N 
ATOM     12  C   UNL     1       4.584   3.470  17.218  0.00  0.00    +0.000 A 
ATOM     13  N   UNL     1       3.647   2.814  17.934  0.00  0.00    +0.000 NA
ATOM     14  H   UNL     1       2.021   2.002  19.549  0.00  0.00    +0.000 HD
ATOM     15  H   UNL     1       4.348   2.803  15.216  0.00  0.00    +0.000 HD
ENDROOT
BRANCH  10  16
ATOM     16  C   UNL     1       6.493   4.361  14.251  0.00  0.00    +0.000 A 
ATOM     17  C   UNL     1       7.490   5.307  13.986  0.00  0.00    +0.000 A 
ATOM     18  C   UNL     1       7.990   5.462  12.689  0.00  0.00    +0.000 A 
ATOM     19  C   UNL     1       7.519   4.656  11.655  0.00  0.00    +0.000 A 
ATOM     20  C   UNL     1       6.555   3.685  11.915  0.00  0.00    +0.000 A 
ATOM     21  C   UNL     1       6.042   3.542  13.204  0.00  0.00    +0.000 A 
ENDBRANCH  10  16
BRANCH   7  22
ATOM     22  O   UNL     1       6.237   5.546  19.687  0.00  0.00    +0.000 OA
ATOM     23  H   UNL     1       6.220   6.312  19.085  0.00  0.00    +0.000 HD
ENDBRANCH   7  22
TORSDOF 2
ENDMDL
MODEL 7
REMARK VINA RESULT:      -7.1      3.319      7.652
REMARK  Name = 
REMARK  3 active torsions:
REMARK  status: ('A' for Active; 'I' for Inactive)
REMARK    1  A    between atoms: C_1  and  C_2
REMARK    2  A    between atoms: C_7  and  O_8
REMARK    3  A    between atoms: C_11  and  C_12
REMARK                            x       y       z     vdW  Elec       q    Type
REMARK                         _______ _______ _______ _____ _____    ______ ____
ROOT
ATOM      1  C   UNL     1       7.718   4.803  12.810  0.00  0.00    +0.000 C 
ATOM      2  C   UNL     1       6.705   4.603  13.912  0.00  0.00    +0.000 C 
ATOM      3  O   UNL     1       6.135   3.533  14.018  0.00  0.00    +0.000 OA
ATOM      4  N   UNL     1       6.488   5.724  14.691  0.00  0.00    +0.000 N 
ATOM      5  C   UNL     1       5.570   5.732  15.747  0.00  0.00    +0.000 A 
ATOM      6  N   UNL     1       5.153   4.551  16.245  0.00  0.00    +0.000 NA
ATOM      7  C   UNL     1       4.234   4.547  17.214  0.00  0.00    +0.000 A 
ATOM      8  C   UNL     1       3.694   5.729  17.685  0.00  0.00    +0.000 A 
ATOM      9  N   UNL     1       2.739   6.031  18.623  0.00  0.00    +0.000 NA
ATOM     10  C   UNL     1       2.642   7.349  18.623  0.00  0.00    +0.000 A 
ATOM     11  N   UNL     1       3.510   7.894  17.701  0.00  0.00    +0.000 N 
ATOM     12  C   UNL     1       4.210   6.876  17.109  0.00  0.00    +0.000 A 
ATOM     13  N   UNL     1       5.171   6.958  16.166  0.00  0.00    +0.000 NA
ATOM     14  H   UNL     1       6.784   6.632  14.376  0.00  0.00    +0.000 HD
ATOM     15  H   UNL     1       3.620   8.877  17.505  0.00  0.00    +0.000 HD
ENDROOT
BRANCH  10  16
ATOM     16  C   UNL     1       1.758   8.131  19.487  0.00  0.00    +0.000 A 
ATOM     17  C   UNL     1       1.171   9.327  19.054  0.00  0.00    +0.000 A 
ATOM     18  C   UNL     1       0.385  10.084  19.927  0.00  0.00    +0.000 A 
ATOM     19  C   UNL     1       0.153   9.640  21.227  0.00  0.00    +0.000 A 
ATOM     20  C   UNL     1       0.699   8.434  21.657  0.00  0.00    +0.000 A 
ATOM     21  C   UNL     1       1.500   7.686  20.793  0.00  0.00    +0.000 A 
ENDBRANCH  10  16
BRANCH   7  22
ATOM     22  O   UNL     1       3.886   3.311  17.682  0.00  0.00    +0.000 OA
ATOM     23  H   UNL     1       4.219   3.360  18.596  0.00  0.00    +0.000 HD
ENDBRANCH   7  22
TORSDOF 2
ENDMDL
MODEL 8
REMARK VINA RESULT:      -7.1      4.763      6.687
REMARK  Name = 
REMARK  3 active torsions:
REMARK  status: ('A' for Active; 'I' for Inactive)
REMARK    1  A    between atoms: C_1  and  C_2
REMARK    2  A    between atoms: C_7  and  O_8
REMARK    3  A    between atoms: C_11  and  C_12
REMARK                            x       y       z     vdW  Elec       q    Type
REMARK                         _______ _______ _______ _____ _____    ______ ____
ROOT
ATOM      1  C   UNL     1      -0.987  12.657  22.548  0.00  0.00    +0.000 C 
ATOM      2  C   UNL     1      -0.401  11.875  21.397  0.00  0.00    +0.000 C 
ATOM      3  O   UNL     1      -0.583  12.256  20.255  0.00  0.00    +0.000 OA
ATOM      4  N   UNL     1       0.273  10.729  21.777  0.00  0.00    +0.000 N 
ATOM      5  C   UNL     1       0.866   9.869  20.845  0.00  0.00    +0.000 A 
ATOM      6  N   UNL     1       1.098  10.331  19.601  0.00  0.00    +0.000 NA
ATOM      7  C   UNL     1       1.610   9.501  18.688  0.00  0.00    +0.000 A 
ATOM      8  C   UNL     1       1.875   8.180  19.000  0.00  0.00    +0.000 A 
ATOM      9  N   UNL     1       2.358   7.113  18.286  0.00  0.00    +0.000 NA
ATOM     10  C   UNL     1       2.378   6.097  19.130  0.00  0.00    +0.000 A 
ATOM     11  N   UNL     1       1.912   6.491  20.367  0.00  0.00    +0.000 N 
ATOM     12  C   UNL     1       1.610   7.826  20.311  0.00  0.00    +0.000 A 
ATOM     13  N   UNL     1       1.142   8.621  21.295  0.00  0.00    +0.000 NA
ATOM     14  H   UNL     1       0.147  10.341  22.695  0.00  0.00    +0.000 HD
ATOM     15  H   UNL     1       1.823   5.900  21.178  0.00  0.00    +0.000 HD
ENDROOT
BRANCH  10  16
ATOM     16  C   UNL     1       2.845   4.746  18.815  0.00  0.00    +0.000 A 
ATOM     17  C   UNL     1       2.163   3.922  17.912  0.00  0.00    +0.000 A 
ATOM     18  C   UNL     1       2.597   2.613  17.683  0.00  0.00    +0.000 A 
ATOM     19  C   UNL     1       3.731   2.127  18.332  0.00  0.00    +0.000 A 
ATOM     20  C   UNL     1       4.439   2.950  19.203  0.00  0.00    +0.000 A 
ATOM     21  C   UNL     1       3.996   4.250  19.447  0.00  0.00    +0.000 A 
ENDBRANCH  10  16
BRANCH   7  22
ATOM     22  O   UNL     1       1.841  10.054  17.461  0.00  0.00    +0.000 OA
ATOM     23  H   UNL     1       0.963   9.962  17.049  0.00  0.00    +0.000 HD
ENDBRANCH   7  22
TORSDOF 2
ENDMDL
MODEL 9
REMARK VINA RESULT:      -7.1      3.299      7.639
REMARK  Name = 
REMARK  3 active torsions:
REMARK  status: ('A' for Active; 'I' for Inactive)
REMARK    1  A    between atoms: C_1  and  C_2
REMARK    2  A    between atoms: C_7  and  O_8
REMARK    3  A    between atoms: C_11  and  C_12
REMARK                            x       y       z     vdW  Elec       q    Type
REMARK                         _______ _______ _______ _____ _____    ______ ____
ROOT
ATOM      1  C   UNL     1       7.526   4.660  12.677  0.00  0.00    +0.000 C 
ATOM      2  C   UNL     1       6.678   4.488  13.915  0.00  0.00    +0.000 C 
ATOM      3  O   UNL     1       6.300   3.375  14.235  0.00  0.00    +0.000 OA
ATOM      4  N   UNL     1       6.368   5.671  14.558  0.00  0.00    +0.000 N 
ATOM      5  C   UNL     1       5.576   5.709  15.711  0.00  0.00    +0.000 A 
ATOM      6  N   UNL     1       5.407   4.570  16.411  0.00  0.00    +0.000 NA
ATOM      7  C   UNL     1       4.607   4.583  17.481  0.00  0.00    +0.000 A 
ATOM      8  C   UNL     1       3.938   5.734  17.853  0.00  0.00    +0.000 A 
ATOM      9  N   UNL     1       3.051   6.036  18.856  0.00  0.00    +0.000 NA
ATOM     10  C   UNL     1       2.746   7.311  18.690  0.00  0.00    +0.000 A 
ATOM     11  N   UNL     1       3.415   7.828  17.601  0.00  0.00    +0.000 N 
ATOM     12  C   UNL     1       4.202   6.842  17.068  0.00  0.00    +0.000 A 
ATOM     13  N   UNL     1       5.034   6.915  16.008  0.00  0.00    +0.000 NA
ATOM     14  H   UNL     1       6.481   6.554  14.089  0.00  0.00    +0.000 HD
ATOM     15  H   UNL     1       3.347   8.775  17.263  0.00  0.00    +0.000 HD
ENDROOT
BRANCH  10  16
ATOM     16  C   UNL     1       1.844   8.082  19.547  0.00  0.00    +0.000 A 
ATOM     17  C   UNL     1       1.538   7.675  20.852  0.00  0.00    +0.000 A 
ATOM     18  C   UNL     1       0.622   8.398  21.621  0.00  0.00    +0.000 A 
ATOM     19  C   UNL     1       0.027   9.548  21.105  0.00  0.00    +0.000 A 
ATOM     20  C   UNL     1       0.353   9.984  19.824  0.00  0.00    +0.000 A 
ATOM     21  C   UNL     1       1.253   9.253  19.048  0.00  0.00    +0.000 A 
ENDBRANCH  10  16
BRANCH   7  22
ATOM     22  O   UNL     1       4.511   3.396  18.151  0.00  0.00    +0.000 OA
ATOM     23  H   UNL     1       5.419   3.056  18.054  0.00  0.00    +0.000 HD
ENDBRANCH   7  22
TORSDOF 2
ENDMDL
