MODEL 1
REMARK VINA RESULT:      -7.1      0.000      0.000
REMARK  Name = 
REMARK  6 active torsions:
REMARK  status: ('A' for Active; 'I' for Inactive)
REMARK    1  A    between atoms: C_1  and  O_2
REMARK    2  A    between atoms: O_2  and  C_3
REMARK    3  A    between atoms: C_7  and  N_8
REMARK    4  A    between atoms: N_8  and  C_9
REMARK    5  A    between atoms: C_9  and  N_10
REMARK    6  A    between atoms: C_16  and  C_17
REMARK                            x       y       z     vdW  Elec       q    Type
REMARK                         _______ _______ _______ _____ _____    ______ ____
ROOT
ATOM      1  N   UNL     1       3.527   4.508  17.706  0.00  0.00    +0.000 N 
ATOM      2  C   UNL     1       2.747   5.620  17.974  0.00  0.00    +0.000 C 
ATOM      3  C   UNL     1       3.371   6.993  17.877  0.00  0.00    +0.000 C 
ATOM      4  O   UNL     1       1.569   5.529  18.330  0.00  0.00    +0.000 OA
ENDROOT
BRANCH   1   9
ATOM      5  C   UNL     1       6.559   4.518  15.561  0.00  0.00    +0.000 A 
ATOM      6  C   UNL     1       7.556   4.642  16.530  0.00  0.00    +0.000 A 
ATOM      7  C   UNL     1       7.224   4.686  17.884  0.00  0.00    +0.000 A 
ATOM      8  C   UNL     1       5.886   4.634  18.274  0.00  0.00    +0.000 A 
ATOM      9  C   UNL     1       4.880   4.560  17.306  0.00  0.00    +0.000 A 
ATOM     10  C   UNL     1       5.215   4.498  15.944  0.00  0.00    +0.000 A 
BRANCH   5  12
ATOM     11  C   UNL     1       6.145   3.774  13.365  0.00  0.00    +0.000 C 
ATOM     12  O   UNL     1       7.005   4.462  14.269  0.00  0.00    +0.000 OA
ENDBRANCH   5  12
ENDBRANCH   1   9
BRANCH   1  13
ATOM     13  C   UNL     1       2.934   3.183  17.826  0.00  0.00    +0.000 C 
BRANCH  13  14
ATOM     14  N   UNL     1       2.584   2.814  19.180  0.00  0.00    +0.000 N 
ATOM     15  C   UNL     1       3.443   3.092  20.299  0.00  0.00    +0.000 C 
ATOM     16  C   UNL     1       2.504   2.885  21.438  0.00  0.00    +0.000 C 
ATOM     17  C   UNL     1       1.268   2.570  21.037  0.00  0.00    +0.000 C 
ATOM     18  C   UNL     1       1.285   2.572  19.567  0.00  0.00    +0.000 C 
ATOM     19  O   UNL     1       0.301   2.419  18.869  0.00  0.00    +0.000 OA
ENDBRANCH  13  14
ENDBRANCH   1  13
TORSDOF 4
ENDMDL
MODEL 2
REMARK VINA RESULT:      -7.1      1.144      2.171
REMARK  Name = 
REMARK  6 active torsions:
REMARK  status: ('A' for Active; 'I' for Inactive)
REMARK    1  A    between atoms: C_1  and  O_2
REMARK    2  A    between atoms: O_2  and  C_3
REMARK    3  A    between atoms: C_7  and  N_8
REMARK    4  A    between atoms: N_8  and  C_9
REMARK    5  A    between atoms: C_9  and  N_10
REMARK    6  A    between atoms: C_16  and  C_17
REMARK                            x       y       z     vdW  Elec       q    Type
REMARK                         _______ _______ _______ _____ _____    ______ ____
ROOT
ATOM      1  N   UNL     1       3.395   4.437  17.657  0.00  0.00    +0.000 N 
ATOM      2  C   UNL     1       2.670   5.585  17.928  0.00  0.00    +0.000 C 
ATOM      3  C   UNL     1       3.349   6.928  17.800  0.00  0.00    +0.000 C 
ATOM      4  O   UNL     1       1.498   5.548  18.312  0.00  0.00    +0.000 OA
ENDROOT
BRANCH   1   9
ATOM      5  C   UNL     1       7.105   4.603  17.718  0.00  0.00    +0.000 A 
ATOM      6  C   UNL     1       7.390   4.428  16.361  0.00  0.00    +0.000 A 
ATOM      7  C   UNL     1       6.357   4.293  15.434  0.00  0.00    +0.000 A 
ATOM      8  C   UNL     1       5.030   4.303  15.865  0.00  0.00    +0.000 A 
ATOM      9  C   UNL     1       4.740   4.427  17.226  0.00  0.00    +0.000 A 
ATOM     10  C   UNL     1       5.779   4.583  18.158  0.00  0.00    +0.000 A 
BRANCH   5  12
ATOM     11  C   UNL     1       8.052   5.716  19.565  0.00  0.00    +0.000 C 
ATOM     12  O   UNL     1       8.197   4.749  18.528  0.00  0.00    +0.000 OA
ENDBRANCH   5  12
ENDBRANCH   1   9
BRANCH   1  13
ATOM     13  C   UNL     1       2.750   3.140  17.808  0.00  0.00    +0.000 C 
BRANCH  13  14
ATOM     14  N   UNL     1       2.471   2.776  19.179  0.00  0.00    +0.000 N 
ATOM     15  C   UNL     1       3.424   2.978  20.237  0.00  0.00    +0.000 C 
ATOM     16  C   UNL     1       2.555   2.818  21.438  0.00  0.00    +0.000 C 
ATOM     17  C   UNL     1       1.275   2.593  21.122  0.00  0.00    +0.000 C 
ATOM     18  C   UNL     1       1.189   2.617  19.655  0.00  0.00    +0.000 C 
ATOM     19  O   UNL     1       0.150   2.542  19.028  0.00  0.00    +0.000 OA
ENDBRANCH  13  14
ENDBRANCH   1  13
TORSDOF 4
ENDMDL
MODEL 3
REMARK VINA RESULT:      -7.1      1.770      2.137
REMARK  Name = 
REMARK  6 active torsions:
REMARK  status: ('A' for Active; 'I' for Inactive)
REMARK    1  A    between atoms: C_1  and  O_2
REMARK    2  A    between atoms: O_2  and  C_3
REMARK    3  A    between atoms: C_7  and  N_8
REMARK    4  A    between atoms: N_8  and  C_9
REMARK    5  A    between atoms: C_9  and  N_10
REMARK    6  A    between atoms: C_16  and  C_17
REMARK                            x       y       z     vdW  Elec       q    Type
REMARK                         _______ _______ _______ _____ _____    ______ ____
ROOT
ATOM      1  N   UNL     1       3.724   5.811  18.926  0.00  0.00    +0.000 N 
ATOM      2  C   UNL     1       2.952   6.950  18.769  0.00  0.00    +0.000 C 
ATOM      3  C   UNL     1       3.318   7.943  17.692  0.00  0.00    +0.000 C 
ATOM      4  O   UNL     1       1.996   7.203  19.509  0.00  0.00    +0.000 OA
ENDROOT
BRANCH   1   9
ATOM      5  C   UNL     1       5.734   4.660  16.022  0.00  0.00    +0.000 A 
ATOM      6  C   UNL     1       7.026   4.815  16.529  0.00  0.00    +0.000 A 
ATOM      7  C   UNL     1       7.223   5.264  17.835  0.00  0.00    +0.000 A 
ATOM      8  C   UNL     1       6.126   5.587  18.633  0.00  0.00    +0.000 A 
ATOM      9  C   UNL     1       4.832   5.483  18.114  0.00  0.00    +0.000 A 
ATOM     10  C   UNL     1       4.632   5.013  16.806  0.00  0.00    +0.000 A 
BRANCH   5  12
ATOM     11  C   UNL     1       6.789   4.505  13.922  0.00  0.00    +0.000 C 
ATOM     12  O   UNL     1       5.664   4.192  14.739  0.00  0.00    +0.000 OA
ENDBRANCH   5  12
ENDBRANCH   1   9
BRANCH   1  13
ATOM     13  C   UNL     1       3.388   4.868  19.983  0.00  0.00    +0.000 C 
BRANCH  13  14
ATOM     14  N   UNL     1       3.018   3.554  19.505  0.00  0.00    +0.000 N 
ATOM     15  C   UNL     1       1.901   3.342  18.625  0.00  0.00    +0.000 C 
ATOM     16  C   UNL     1       2.175   1.958  18.144  0.00  0.00    +0.000 C 
ATOM     17  C   UNL     1       3.308   1.453  18.644  0.00  0.00    +0.000 C 
ATOM     18  C   UNL     1       3.901   2.498  19.491  0.00  0.00    +0.000 C 
ATOM     19  O   UNL     1       4.989   2.410  20.026  0.00  0.00    +0.000 OA
ENDBRANCH  13  14
ENDBRANCH   1  13
TORSDOF 4
ENDMDL
MODEL 4
REMARK VINA RESULT:      -7.1      2.029      2.782
REMARK  Name = 
REMARK  6 active torsions:
REMARK  status: ('A' for Active; 'I' for Inactive)
REMARK    1  A    between atoms: C_1  and  O_2
REMARK    2  A    between atoms: O_2  and  C_3
REMARK    3  A    between atoms: C_7  and  N_8
REMARK    4  A    between atoms: N_8  and  C_9
REMARK    5  A    between atoms: C_9  and  N_10
REMARK    6  A    between atoms: C_16  and  C_17
REMARK                            x       y       z     vdW  Elec       q    Type
REMARK                         _______ _______ _______ _____ _____    ______ ____
ROOT
ATOM      1  N   UNL     1       3.457   5.969  18.977  0.00  0.00    +0.000 N 
ATOM      2  C   UNL     1       2.588   7.046  19.013  0.00  0.00    +0.000 C 
ATOM      3  C   UNL     1       2.641   8.069  17.903  0.00  0.00    +0.000 C 
ATOM      4  O   UNL     1       1.797   7.223  19.944  0.00  0.00    +0.000 OA
ENDROOT
BRANCH   1   9
ATOM      5  C   UNL     1       6.489   6.228  16.847  0.00  0.00    +0.000 A 
ATOM      6  C   UNL     1       6.202   5.263  15.878  0.00  0.00    +0.000 A 
ATOM      7  C   UNL     1       4.997   4.562  15.914  0.00  0.00    +0.000 A 
ATOM      8  C   UNL     1       4.083   4.802  16.940  0.00  0.00    +0.000 A 
ATOM      9  C   UNL     1       4.386   5.729  17.941  0.00  0.00    +0.000 A 
ATOM     10  C   UNL     1       5.590   6.449  17.894  0.00  0.00    +0.000 A 
BRANCH   5  12
ATOM     11  C   UNL     1       7.870   8.009  17.528  0.00  0.00    +0.000 C 
ATOM     12  O   UNL     1       7.688   6.867  16.695  0.00  0.00    +0.000 OA
ENDBRANCH   5  12
ENDBRANCH   1   9
BRANCH   1  13
ATOM     13  C   UNL     1       3.426   4.998  20.062  0.00  0.00    +0.000 C 
BRANCH  13  14
ATOM     14  N   UNL     1       2.626   3.827  19.782  0.00  0.00    +0.000 N 
ATOM     15  C   UNL     1       1.268   3.916  19.316  0.00  0.00    +0.000 C 
ATOM     16  C   UNL     1       1.041   2.526  18.830  0.00  0.00    +0.000 C 
ATOM     17  C   UNL     1       2.122   1.751  18.959  0.00  0.00    +0.000 C 
ATOM     18  C   UNL     1       3.184   2.595  19.527  0.00  0.00    +0.000 C 
ATOM     19  O   UNL     1       4.334   2.234  19.687  0.00  0.00    +0.000 OA
ENDBRANCH  13  14
ENDBRANCH   1  13
TORSDOF 4
ENDMDL
MODEL 5
REMARK VINA RESULT:      -7.0      1.637      3.248
REMARK  Name = 
REMARK  6 active torsions:
REMARK  status: ('A' for Active; 'I' for Inactive)
REMARK    1  A    between atoms: C_1  and  O_2
REMARK    2  A    between atoms: O_2  and  C_3
REMARK    3  A    between atoms: C_7  and  N_8
REMARK    4  A    between atoms: N_8  and  C_9
REMARK    5  A    between atoms: C_9  and  N_10
REMARK    6  A    between atoms: C_16  and  C_17
REMARK                            x       y       z     vdW  Elec       q    Type
REMARK                         _______ _______ _______ _____ _____    ______ ____
ROOT
ATOM      1  N   UNL     1       3.611   4.084  18.567  0.00  0.00    +0.000 N 
ATOM      2  C   UNL     1       3.301   2.906  19.226  0.00  0.00    +0.000 C 
ATOM      3  C   UNL     1       4.424   2.009  19.690  0.00  0.00    +0.000 C 
ATOM      4  O   UNL     1       2.137   2.542  19.411  0.00  0.00    +0.000 OA
ENDROOT
BRANCH   1   9
ATOM      5  C   UNL     1       6.809   4.807  16.823  0.00  0.00    +0.000 A 
ATOM      6  C   UNL     1       7.528   5.418  17.853  0.00  0.00    +0.000 A 
ATOM      7  C   UNL     1       6.966   5.553  19.123  0.00  0.00    +0.000 A 
ATOM      8  C   UNL     1       5.668   5.104  19.361  0.00  0.00    +0.000 A 
ATOM      9  C   UNL     1       4.925   4.538  18.321  0.00  0.00    +0.000 A 
ATOM     10  C   UNL     1       5.496   4.384  17.048  0.00  0.00    +0.000 A 
BRANCH   5  12
ATOM     11  C   UNL     1       6.647   4.390  14.511  0.00  0.00    +0.000 C 
ATOM     12  O   UNL     1       7.470   4.709  15.630  0.00  0.00    +0.000 OA
ENDBRANCH   5  12
ENDBRANCH   1   9
BRANCH   1  13
ATOM     13  C   UNL     1       2.528   4.935  18.094  0.00  0.00    +0.000 C 
BRANCH  13  14
ATOM     14  N   UNL     1       2.464   6.224  18.746  0.00  0.00    +0.000 N 
ATOM     15  C   UNL     1       2.439   7.459  18.009  0.00  0.00    +0.000 C 
ATOM     16  C   UNL     1       1.995   8.413  19.065  0.00  0.00    +0.000 C 
ATOM     17  C   UNL     1       1.759   7.813  20.236  0.00  0.00    +0.000 C 
ATOM     18  C   UNL     1       2.006   6.378  20.035  0.00  0.00    +0.000 C 
ATOM     19  O   UNL     1       1.794   5.522  20.873  0.00  0.00    +0.000 OA
ENDBRANCH  13  14
ENDBRANCH   1  13
TORSDOF 4
ENDMDL
MODEL 6
REMARK VINA RESULT:      -7.0      2.069      6.363
REMARK  Name = 
REMARK  6 active torsions:
REMARK  status: ('A' for Active; 'I' for Inactive)
REMARK    1  A    between atoms: C_1  and  O_2
REMARK    2  A    between atoms: O_2  and  C_3
REMARK    3  A    between atoms: C_7  and  N_8
REMARK    4  A    between atoms: N_8  and  C_9
REMARK    5  A    between atoms: C_9  and  N_10
REMARK    6  A    between atoms: C_16  and  C_17
REMARK                            x       y       z     vdW  Elec       q    Type
REMARK                         _______ _______ _______ _____ _____    ______ ____
ROOT
ATOM      1  N   UNL     1       5.585   5.288  16.578  0.00  0.00    +0.000 N 
ATOM      2  C   UNL     1       6.766   5.046  17.259  0.00  0.00    +0.000 C 
ATOM      3  C   UNL     1       6.703   4.563  18.688  0.00  0.00    +0.000 C 
ATOM      4  O   UNL     1       7.872   5.252  16.751  0.00  0.00    +0.000 OA
ENDROOT
BRANCH   1   9
ATOM      5  C   UNL     1       2.449   3.601  17.634  0.00  0.00    +0.000 A 
ATOM      6  C   UNL     1       1.745   4.683  18.168  0.00  0.00    +0.000 A 
ATOM      7  C   UNL     1       2.294   5.965  18.142  0.00  0.00    +0.000 A 
ATOM      8  C   UNL     1       3.566   6.167  17.607  0.00  0.00    +0.000 A 
ATOM      9  C   UNL     1       4.297   5.080  17.119  0.00  0.00    +0.000 A 
ATOM     10  C   UNL     1       3.737   3.792  17.127  0.00  0.00    +0.000 A 
BRANCH   5  12
ATOM     11  C   UNL     1       0.842   2.283  18.742  0.00  0.00    +0.000 C 
ATOM     12  O   UNL     1       1.801   2.399  17.694  0.00  0.00    +0.000 OA
ENDBRANCH   5  12
ENDBRANCH   1   9
BRANCH   1  13
ATOM     13  C   UNL     1       5.645   5.782  15.210  0.00  0.00    +0.000 C 
BRANCH  13  14
ATOM     14  N   UNL     1       6.041   4.785  14.240  0.00  0.00    +0.000 N 
ATOM     15  C   UNL     1       5.109   3.843  13.681  0.00  0.00    +0.000 C 
ATOM     16  C   UNL     1       5.884   3.332  12.515  0.00  0.00    +0.000 C 
ATOM     17  C   UNL     1       7.078   3.920  12.391  0.00  0.00    +0.000 C 
ATOM     18  C   UNL     1       7.177   4.910  13.474  0.00  0.00    +0.000 C 
ATOM     19  O   UNL     1       8.098   5.695  13.603  0.00  0.00    +0.000 OA
ENDBRANCH  13  14
ENDBRANCH   1  13
TORSDOF 4
ENDMDL
MODEL 7
REMARK VINA RESULT:      -6.9      2.014      3.614
REMARK  Name = 
REMARK  6 active torsions:
REMARK  status: ('A' for Active; 'I' for Inactive)
REMARK    1  A    between atoms: C_1  and  O_2
REMARK    2  A    between atoms: O_2  and  C_3
REMARK    3  A    between atoms: C_7  and  N_8
REMARK    4  A    between atoms: N_8  and  C_9
REMARK    5  A    between atoms: C_9  and  N_10
REMARK    6  A    between atoms: C_16  and  C_17
REMARK                            x       y       z     vdW  Elec       q    Type
REMARK                         _______ _______ _______ _____ _____    ______ ____
ROOT
ATOM      1  N   UNL     1       3.057   3.528  17.970  0.00  0.00    +0.000 N 
ATOM      2  C   UNL     1       2.691   2.267  18.407  0.00  0.00    +0.000 C 
ATOM      3  C   UNL     1       3.740   1.183  18.486  0.00  0.00    +0.000 C 
ATOM      4  O   UNL     1       1.524   1.983  18.696  0.00  0.00    +0.000 OA
ENDROOT
BRANCH   1   9
ATOM      5  C   UNL     1       6.565   4.717  18.244  0.00  0.00    +0.000 A 
ATOM      6  C   UNL     1       6.964   4.645  16.907  0.00  0.00    +0.000 A 
ATOM      7  C   UNL     1       6.062   4.241  15.922  0.00  0.00    +0.000 A 
ATOM      8  C   UNL     1       4.763   3.877  16.275  0.00  0.00    +0.000 A 
ATOM      9  C   UNL     1       4.374   3.897  17.617  0.00  0.00    +0.000 A 
ATOM     10  C   UNL     1       5.275   4.323  18.606  0.00  0.00    +0.000 A 
BRANCH   5  12
ATOM     11  C   UNL     1       8.043   6.450  18.845  0.00  0.00    +0.000 C 
ATOM     12  O   UNL     1       7.526   5.149  19.115  0.00  0.00    +0.000 OA
ENDBRANCH   5  12
ENDBRANCH   1   9
BRANCH   1  13
ATOM     13  C   UNL     1       2.040   4.565  17.866  0.00  0.00    +0.000 C 
BRANCH  13  14
ATOM     14  N   UNL     1       2.209   5.652  18.804  0.00  0.00    +0.000 N 
ATOM     15  C   UNL     1       2.416   7.010  18.379  0.00  0.00    +0.000 C 
ATOM     16  C   UNL     1       2.147   7.750  19.644  0.00  0.00    +0.000 C 
ATOM     17  C   UNL     1       1.797   6.942  20.650  0.00  0.00    +0.000 C 
ATOM     18  C   UNL     1       1.778   5.575  20.109  0.00  0.00    +0.000 C 
ATOM     19  O   UNL     1       1.406   4.597  20.730  0.00  0.00    +0.000 OA
ENDBRANCH  13  14
ENDBRANCH   1  13
TORSDOF 4
ENDMDL
MODEL 8
REMARK VINA RESULT:      -6.9      1.118      1.375
REMARK  Name = 
REMARK  6 active torsions:
REMARK  status: ('A' for Active; 'I' for Inactive)
REMARK    1  A    between atoms: C_1  and  O_2
REMARK    2  A    between atoms: O_2  and  C_3
REMARK    3  A    between atoms: C_7  and  N_8
REMARK    4  A    between atoms: N_8  and  C_9
REMARK    5  A    between atoms: C_9  and  N_10
REMARK    6  A    between atoms: C_16  and  C_17
REMARK                            x       y       z     vdW  Elec       q    Type
REMARK                         _______ _______ _______ _____ _____    ______ ____
ROOT
ATOM      1  N   UNL     1       3.562   4.931  17.810  0.00  0.00    +0.000 N 
ATOM      2  C   UNL     1       2.869   6.120  17.962  0.00  0.00    +0.000 C 
ATOM      3  C   UNL     1       3.586   7.425  17.711  0.00  0.00    +0.000 C 
ATOM      4  O   UNL     1       1.693   6.153  18.338  0.00  0.00    +0.000 OA
ENDROOT
BRANCH   1   9
ATOM      5  C   UNL     1       6.553   4.624  15.630  0.00  0.00    +0.000 A 
ATOM      6  C   UNL     1       7.570   4.644  16.588  0.00  0.00    +0.000 A 
ATOM      7  C   UNL     1       7.259   4.722  17.946  0.00  0.00    +0.000 A 
ATOM      8  C   UNL     1       5.928   4.810  18.351  0.00  0.00    +0.000 A 
ATOM      9  C   UNL     1       4.909   4.842  17.395  0.00  0.00    +0.000 A 
ATOM     10  C   UNL     1       5.220   4.744  16.029  0.00  0.00    +0.000 A 
BRANCH   5  12
ATOM     11  C   UNL     1       6.118   3.770  13.479  0.00  0.00    +0.000 C 
ATOM     12  O   UNL     1       6.977   4.521  14.334  0.00  0.00    +0.000 OA
ENDBRANCH   5  12
ENDBRANCH   1   9
BRANCH   1  13
ATOM     13  C   UNL     1       2.879   3.674  18.080  0.00  0.00    +0.000 C 
BRANCH  13  14
ATOM     14  N   UNL     1       2.582   3.452  19.477  0.00  0.00    +0.000 N 
ATOM     15  C   UNL     1       1.243   3.511  19.999  0.00  0.00    +0.000 C 
ATOM     16  C   UNL     1       1.425   2.857  21.326  0.00  0.00    +0.000 C 
ATOM     17  C   UNL     1       2.679   2.443  21.530  0.00  0.00    +0.000 C 
ATOM     18  C   UNL     1       3.438   2.772  20.315  0.00  0.00    +0.000 C 
ATOM     19  O   UNL     1       4.594   2.449  20.120  0.00  0.00    +0.000 OA
ENDBRANCH  13  14
ENDBRANCH   1  13
TORSDOF 4
ENDMDL
MODEL 9
REMARK VINA RESULT:      -6.9      2.052      5.334
REMARK  Name = 
REMARK  6 active torsions:
REMARK  status: ('A' for Active; 'I' for Inactive)
REMARK    1  A    between atoms: C_1  and  O_2
REMARK    2  A    between atoms: O_2  and  C_3
REMARK    3  A    between atoms: C_7  and  N_8
REMARK    4  A    between atoms: N_8  and  C_9
REMARK    5  A    between atoms: C_9  and  N_10
REMARK    6  A    between atoms: C_16  and  C_17
REMARK                            x       y       z     vdW  Elec       q    Type
REMARK                         _______ _______ _______ _____ _____    ______ ____
ROOT
ATOM      1  N   UNL     1       3.395   3.961  18.941  0.00  0.00    +0.000 N 
ATOM      2  C   UNL     1       2.644   2.896  18.471  0.00  0.00    +0.000 C 
ATOM      3  C   UNL     1       1.173   3.101  18.198  0.00  0.00    +0.000 C 
ATOM      4  O   UNL     1       3.126   1.772  18.307  0.00  0.00    +0.000 OA
ENDROOT
BRANCH   1   9
ATOM      5  C   UNL     1       2.474   7.512  18.364  0.00  0.00    +0.000 A 
ATOM      6  C   UNL     1       1.902   7.831  19.598  0.00  0.00    +0.000 A 
ATOM      7  C   UNL     1       1.858   6.884  20.622  0.00  0.00    +0.000 A 
ATOM      8  C   UNL     1       2.360   5.601  20.405  0.00  0.00    +0.000 A 
ATOM      9  C   UNL     1       2.887   5.260  19.156  0.00  0.00    +0.000 A 
ATOM     10  C   UNL     1       2.950   6.219  18.132  0.00  0.00    +0.000 A 
BRANCH   5  12
ATOM     11  C   UNL     1       1.882   9.741  17.888  0.00  0.00    +0.000 C 
ATOM     12  O   UNL     1       2.482   8.526  17.447  0.00  0.00    +0.000 OA
ENDBRANCH   5  12
ENDBRANCH   1   9
BRANCH   1  13
ATOM     13  C   UNL     1       4.807   3.756  19.232  0.00  0.00    +0.000 C 
BRANCH  13  14
ATOM     14  N   UNL     1       5.689   4.671  18.543  0.00  0.00    +0.000 N 
ATOM     15  C   UNL     1       6.621   5.515  19.242  0.00  0.00    +0.000 C 
ATOM     16  C   UNL     1       7.512   5.942  18.125  0.00  0.00    +0.000 C 
ATOM     17  C   UNL     1       7.170   5.396  16.954  0.00  0.00    +0.000 C 
ATOM     18  C   UNL     1       6.017   4.520  17.215  0.00  0.00    +0.000 C 
ATOM     19  O   UNL     1       5.509   3.791  16.384  0.00  0.00    +0.000 OA
ENDBRANCH  13  14
ENDBRANCH   1  13
TORSDOF 4
ENDMDL
