MODEL 1
REMARK VINA RESULT:      -8.7      0.000      0.000
REMARK  Name = 
REMARK  4 active torsions:
REMARK  status: ('A' for Active; 'I' for Inactive)
REMARK    1  A    between atoms: C_5  and  C_6
REMARK    2  A    between atoms: C_9  and  C_10
REMARK    3  A    between atoms: C_15  and  S_16
REMARK    4  A    between atoms: S_16  and  C_19
REMARK                            x       y       z     vdW  Elec       q    Type
REMARK                         _______ _______ _______ _____ _____    ______ ____
ROOT
ATOM      1  C   UNL     1       1.340   9.285  19.131  0.00  0.00    +0.000 A 
ATOM      2  C   UNL     1       1.838   8.989  17.853  0.00  0.00    +0.000 A 
ATOM      3  C   UNL     1       2.407   7.735  17.529  0.00  0.00    +0.000 A 
ATOM      4  C   UNL     1       2.549   6.712  18.465  0.00  0.00    +0.000 A 
ATOM      5  C   UNL     1       2.191   7.084  19.787  0.00  0.00    +0.000 A 
ATOM      6  C   UNL     1       1.574   8.309  20.098  0.00  0.00    +0.000 A 
ATOM      7  F   UNL     1       1.125   8.472  21.353  0.00  0.00    +0.000 F 
ENDROOT
BRANCH   1  12
ATOM      8  N   UNL     1      -1.513  14.062  19.682  0.00  0.00    +0.000 N 
ATOM      9  C   UNL     1      -0.846  12.841  19.641  0.00  0.00    +0.000 A 
ATOM     10  C   UNL     1       0.506  12.727  19.951  0.00  0.00    +0.000 A 
ATOM     11  N   UNL     1       1.203  11.566  19.848  0.00  0.00    +0.000 NA
ATOM     12  C   UNL     1       0.523  10.489  19.377  0.00  0.00    +0.000 A 
ATOM     13  C   UNL     1      -0.835  10.613  19.086  0.00  0.00    +0.000 A 
ATOM     14  N   UNL     1      -1.541  11.774  19.216  0.00  0.00    +0.000 NA
ATOM     15  H   UNL     1      -1.391  14.551  20.561  0.00  0.00    +0.000 HD
ATOM     16  H   UNL     1      -2.492  13.888  19.467  0.00  0.00    +0.000 HD
ENDBRANCH   1  12
BRANCH   4  17
ATOM     17  C   UNL     1       2.835   5.263  18.136  0.00  0.00    +0.000 A 
ATOM     18  C   UNL     1       1.750   4.370  18.425  0.00  0.00    +0.000 A 
ATOM     19  C   UNL     1       1.758   2.993  18.184  0.00  0.00    +0.000 A 
ATOM     20  C   UNL     1       2.867   2.418  17.613  0.00  0.00    +0.000 A 
ATOM     21  C   UNL     1       3.945   3.231  17.284  0.00  0.00    +0.000 A 
ATOM     22  C   UNL     1       3.956   4.639  17.520  0.00  0.00    +0.000 A 
BRANCH  22  23
ATOM     23  S   UNL     1       5.403   5.416  16.795  0.00  0.00    +0.000 S 
ATOM     24  O   UNL     1       6.313   4.353  16.405  0.00  0.00    +0.000 OA
ATOM     25  O   UNL     1       4.964   6.351  15.784  0.00  0.00    +0.000 OA
BRANCH  23  26
ATOM     26  C   UNL     1       6.349   6.310  18.073  0.00  0.00    +0.000 C 
ATOM     27  C   UNL     1       6.462   5.444  19.326  0.00  0.00    +0.000 C 
ATOM     28  C   UNL     1       7.670   5.715  18.485  0.00  0.00    +0.000 C 
ENDBRANCH  23  26
ENDBRANCH  22  23
ENDBRANCH   4  17
TORSDOF 4
ENDMDL
MODEL 2
REMARK VINA RESULT:      -8.6      1.184      1.519
REMARK  Name = 
REMARK  4 active torsions:
REMARK  status: ('A' for Active; 'I' for Inactive)
REMARK    1  A    between atoms: C_5  and  C_6
REMARK    2  A    between atoms: C_9  and  C_10
REMARK    3  A    between atoms: C_15  and  S_16
REMARK    4  A    between atoms: S_16  and  C_19
REMARK                            x       y       z     vdW  Elec       q    Type
REMARK                         _______ _______ _______ _____ _____    ______ ____
ROOT
ATOM      1  C   UNL     1       1.313   9.115  19.338  0.00  0.00    +0.000 A 
ATOM      2  C   UNL     1       1.859   8.793  18.085  0.00  0.00    +0.000 A 
ATOM      3  C   UNL     1       2.459   7.541  17.816  0.00  0.00    +0.000 A 
ATOM      4  C   UNL     1       2.586   6.547  18.785  0.00  0.00    +0.000 A 
ATOM      5  C   UNL     1       2.177   6.949  20.083  0.00  0.00    +0.000 A 
ATOM      6  C   UNL     1       1.529   8.171  20.338  0.00  0.00    +0.000 A 
ATOM      7  F   UNL     1       1.036   8.361  21.573  0.00  0.00    +0.000 F 
ENDROOT
BRANCH   1  12
ATOM      8  N   UNL     1      -1.586  13.881  19.716  0.00  0.00    +0.000 N 
ATOM      9  C   UNL     1      -0.923  12.658  19.707  0.00  0.00    +0.000 A 
ATOM     10  C   UNL     1       0.359  12.508  20.229  0.00  0.00    +0.000 A 
ATOM     11  N   UNL     1       1.062  11.348  20.168  0.00  0.00    +0.000 NA
ATOM     12  C   UNL     1       0.468  10.311  19.521  0.00  0.00    +0.000 A 
ATOM     13  C   UNL     1      -0.823  10.470  19.018  0.00  0.00    +0.000 A 
ATOM     14  N   UNL     1      -1.539  11.629  19.104  0.00  0.00    +0.000 NA
ATOM     15  H   UNL     1      -1.611  14.313  20.632  0.00  0.00    +0.000 HD
ATOM     16  H   UNL     1      -2.515  13.734  19.330  0.00  0.00    +0.000 HD
ENDBRANCH   1  12
BRANCH   4  17
ATOM     17  C   UNL     1       2.908   5.094  18.507  0.00  0.00    +0.000 A 
ATOM     18  C   UNL     1       1.760   4.287  18.205  0.00  0.00    +0.000 A 
ATOM     19  C   UNL     1       1.799   2.926  17.885  0.00  0.00    +0.000 A 
ATOM     20  C   UNL     1       3.011   2.283  17.830  0.00  0.00    +0.000 A 
ATOM     21  C   UNL     1       4.165   3.013  18.088  0.00  0.00    +0.000 A 
ATOM     22  C   UNL     1       4.147   4.403  18.414  0.00  0.00    +0.000 A 
BRANCH  22  23
ATOM     23  S   UNL     1       5.808   5.083  18.483  0.00  0.00    +0.000 S 
ATOM     24  O   UNL     1       5.902   5.872  19.698  0.00  0.00    +0.000 OA
ATOM     25  O   UNL     1       6.753   4.005  18.289  0.00  0.00    +0.000 OA
BRANCH  23  26
ATOM     26  C   UNL     1       6.038   6.329  17.172  0.00  0.00    +0.000 C 
ATOM     27  C   UNL     1       6.616   5.662  15.926  0.00  0.00    +0.000 C 
ATOM     28  C   UNL     1       5.209   6.169  15.925  0.00  0.00    +0.000 C 
ENDBRANCH  23  26
ENDBRANCH  22  23
ENDBRANCH   4  17
TORSDOF 4
ENDMDL
MODEL 3
REMARK VINA RESULT:      -8.6      0.840      1.137
REMARK  Name = 
REMARK  4 active torsions:
REMARK  status: ('A' for Active; 'I' for Inactive)
REMARK    1  A    between atoms: C_5  and  C_6
REMARK    2  A    between atoms: C_9  and  C_10
REMARK    3  A    between atoms: C_15  and  S_16
REMARK    4  A    between atoms: S_16  and  C_19
REMARK                            x       y       z     vdW  Elec       q    Type
REMARK                         _______ _______ _______ _____ _____    ______ ____
ROOT
ATOM      1  C   UNL     1       1.369   9.593  19.052  0.00  0.00    +0.000 A 
ATOM      2  C   UNL     1       2.013   9.381  17.823  0.00  0.00    +0.000 A 
ATOM      3  C   UNL     1       2.624   8.151  17.487  0.00  0.00    +0.000 A 
ATOM      4  C   UNL     1       2.665   7.069  18.365  0.00  0.00    +0.000 A 
ATOM      5  C   UNL     1       2.154   7.355  19.658  0.00  0.00    +0.000 A 
ATOM      6  C   UNL     1       1.497   8.557  19.974  0.00  0.00    +0.000 A 
ATOM      7  F   UNL     1       0.906   8.638  21.178  0.00  0.00    +0.000 F 
ENDROOT
BRANCH   1  12
ATOM      8  N   UNL     1      -2.201  13.773  20.074  0.00  0.00    +0.000 N 
ATOM      9  C   UNL     1      -1.249  12.806  19.766  0.00  0.00    +0.000 A 
ATOM     10  C   UNL     1      -1.439  11.881  18.744  0.00  0.00    +0.000 A 
ATOM     11  N   UNL     1      -0.566  10.878  18.469  0.00  0.00    +0.000 NA
ATOM     12  C   UNL     1       0.520  10.779  19.279  0.00  0.00    +0.000 A 
ATOM     13  C   UNL     1       0.707  11.723  20.288  0.00  0.00    +0.000 A 
ATOM     14  N   UNL     1      -0.159  12.746  20.547  0.00  0.00    +0.000 NA
ATOM     15  H   UNL     1      -2.494  14.312  19.267  0.00  0.00    +0.000 HD
ATOM     16  H   UNL     1      -1.821  14.357  20.815  0.00  0.00    +0.000 HD
ENDBRANCH   1  12
BRANCH   4  17
ATOM     17  C   UNL     1       2.997   5.644  17.978  0.00  0.00    +0.000 A 
ATOM     18  C   UNL     1       1.946   4.704  18.241  0.00  0.00    +0.000 A 
ATOM     19  C   UNL     1       1.999   3.338  17.947  0.00  0.00    +0.000 A 
ATOM     20  C   UNL     1       3.121   2.824  17.345  0.00  0.00    +0.000 A 
ATOM     21  C   UNL     1       4.167   3.685  17.040  0.00  0.00    +0.000 A 
ATOM     22  C   UNL     1       4.132   5.083  17.330  0.00  0.00    +0.000 A 
BRANCH  22  23
ATOM     23  S   UNL     1       5.546   5.936  16.623  0.00  0.00    +0.000 S 
ATOM     24  O   UNL     1       6.572   4.940  16.377  0.00  0.00    +0.000 OA
ATOM     25  O   UNL     1       5.088   6.741  15.513  0.00  0.00    +0.000 OA
BRANCH  23  26
ATOM     26  C   UNL     1       6.322   7.017  17.871  0.00  0.00    +0.000 C 
ATOM     27  C   UNL     1       7.608   6.369  18.380  0.00  0.00    +0.000 C 
ATOM     28  C   UNL     1       7.668   7.598  17.528  0.00  0.00    +0.000 C 
ENDBRANCH  23  26
ENDBRANCH  22  23
ENDBRANCH   4  17
TORSDOF 4
ENDMDL
MODEL 4
REMARK VINA RESULT:      -8.5      1.372      1.819
REMARK  Name = 
REMARK  4 active torsions:
REMARK  status: ('A' for Active; 'I' for Inactive)
REMARK    1  A    between atoms: C_5  and  C_6
REMARK    2  A    between atoms: C_9  and  C_10
REMARK    3  A    between atoms: C_15  and  S_16
REMARK    4  A    between atoms: S_16  and  C_19
REMARK                            x       y       z     vdW  Elec       q    Type
REMARK                         _______ _______ _______ _____ _____    ______ ____
ROOT
ATOM      1  C   UNL     1       1.318   9.346  19.090  0.00  0.00    +0.000 A 
ATOM      2  C   UNL     1       1.873   9.037  17.838  0.00  0.00    +0.000 A 
ATOM      3  C   UNL     1       2.446   7.776  17.551  0.00  0.00    +0.000 A 
ATOM      4  C   UNL     1       2.536   6.759  18.501  0.00  0.00    +0.000 A 
ATOM      5  C   UNL     1       2.119   7.145  19.801  0.00  0.00    +0.000 A 
ATOM      6  C   UNL     1       1.498   8.377  20.073  0.00  0.00    +0.000 A 
ATOM      7  F   UNL     1       0.992   8.553  21.305  0.00  0.00    +0.000 F 
ENDROOT
BRANCH   1  12
ATOM      8  N   UNL     1      -2.109  13.651  20.084  0.00  0.00    +0.000 N 
ATOM      9  C   UNL     1      -1.202  12.645  19.767  0.00  0.00    +0.000 A 
ATOM     10  C   UNL     1      -1.524  11.605  18.900  0.00  0.00    +0.000 A 
ATOM     11  N   UNL     1      -0.689  10.569  18.629  0.00  0.00    +0.000 NA
ATOM     12  C   UNL     1       0.499  10.558  19.287  0.00  0.00    +0.000 A 
ATOM     13  C   UNL     1       0.816  11.615  20.140  0.00  0.00    +0.000 A 
ATOM     14  N   UNL     1      -0.013  12.669  20.390  0.00  0.00    +0.000 NA
ATOM     15  H   UNL     1      -2.515  14.091  19.266  0.00  0.00    +0.000 HD
ATOM     16  H   UNL     1      -1.636  14.316  20.689  0.00  0.00    +0.000 HD
ENDBRANCH   1  12
BRANCH   4  17
ATOM     17  C   UNL     1       2.826   5.306  18.196  0.00  0.00    +0.000 A 
ATOM     18  C   UNL     1       1.729   4.420  18.463  0.00  0.00    +0.000 A 
ATOM     19  C   UNL     1       1.738   3.040  18.238  0.00  0.00    +0.000 A 
ATOM     20  C   UNL     1       2.861   2.455  17.706  0.00  0.00    +0.000 A 
ATOM     21  C   UNL     1       3.951   3.260  17.401  0.00  0.00    +0.000 A 
ATOM     22  C   UNL     1       3.961   4.670  17.621  0.00  0.00    +0.000 A 
BRANCH  22  23
ATOM     23  S   UNL     1       5.433   5.433  16.930  0.00  0.00    +0.000 S 
ATOM     24  O   UNL     1       4.992   6.430  15.971  0.00  0.00    +0.000 OA
ATOM     25  O   UNL     1       6.284   5.857  18.019  0.00  0.00    +0.000 OA
BRANCH  23  26
ATOM     26  C   UNL     1       6.335   4.240  15.888  0.00  0.00    +0.000 C 
ATOM     27  C   UNL     1       5.731   4.225  14.485  0.00  0.00    +0.000 C 
ATOM     28  C   UNL     1       7.094   4.797  14.712  0.00  0.00    +0.000 C 
ENDBRANCH  23  26
ENDBRANCH  22  23
ENDBRANCH   4  17
TORSDOF 4
ENDMDL
MODEL 5
REMARK VINA RESULT:      -8.4      2.264      3.657
REMARK  Name = 
REMARK  4 active torsions:
REMARK  status: ('A' for Active; 'I' for Inactive)
REMARK    1  A    between atoms: C_5  and  C_6
REMARK    2  A    between atoms: C_9  and  C_10
REMARK    3  A    between atoms: C_15  and  S_16
REMARK    4  A    between atoms: S_16  and  C_19
REMARK                            x       y       z     vdW  Elec       q    Type
REMARK                         _______ _______ _______ _____ _____    ______ ____
ROOT
ATOM      1  C   UNL     1       1.201   8.879  20.065  0.00  0.00    +0.000 A 
ATOM      2  C   UNL     1       1.670   7.668  20.597  0.00  0.00    +0.000 A 
ATOM      3  C   UNL     1       2.403   6.733  19.829  0.00  0.00    +0.000 A 
ATOM      4  C   UNL     1       2.683   6.928  18.477  0.00  0.00    +0.000 A 
ATOM      5  C   UNL     1       2.063   8.076  17.919  0.00  0.00    +0.000 A 
ATOM      6  C   UNL     1       1.384   9.034  18.693  0.00  0.00    +0.000 A 
ATOM      7  F   UNL     1       0.994  10.161  18.076  0.00  0.00    +0.000 F 
ENDROOT
BRANCH   1  12
ATOM      8  N   UNL     1      -1.204  12.927  23.081  0.00  0.00    +0.000 N 
ATOM      9  C   UNL     1      -0.512  11.940  22.385  0.00  0.00    +0.000 A 
ATOM     10  C   UNL     1      -0.054  12.135  21.085  0.00  0.00    +0.000 A 
ATOM     11  N   UNL     1       0.556  11.168  20.353  0.00  0.00    +0.000 NA
ATOM     12  C   UNL     1       0.674   9.947  20.937  0.00  0.00    +0.000 A 
ATOM     13  C   UNL     1       0.226   9.771  22.246  0.00  0.00    +0.000 A 
ATOM     14  N   UNL     1      -0.363  10.751  22.990  0.00  0.00    +0.000 NA
ATOM     15  H   UNL     1      -0.720  13.818  23.091  0.00  0.00    +0.000 HD
ATOM     16  H   UNL     1      -1.389  12.575  24.016  0.00  0.00    +0.000 HD
ENDBRANCH   1  12
BRANCH   4  17
ATOM     17  C   UNL     1       3.714   6.159  17.681  0.00  0.00    +0.000 A 
ATOM     18  C   UNL     1       4.634   6.988  16.956  0.00  0.00    +0.000 A 
ATOM     19  C   UNL     1       5.692   6.518  16.172  0.00  0.00    +0.000 A 
ATOM     20  C   UNL     1       5.909   5.166  16.079  0.00  0.00    +0.000 A 
ATOM     21  C   UNL     1       5.070   4.306  16.777  0.00  0.00    +0.000 A 
ATOM     22  C   UNL     1       3.985   4.766  17.584  0.00  0.00    +0.000 A 
BRANCH  22  23
ATOM     23  S   UNL     1       3.236   3.419  18.507  0.00  0.00    +0.000 S 
ATOM     24  O   UNL     1       3.466   2.200  17.753  0.00  0.00    +0.000 OA
ATOM     25  O   UNL     1       3.705   3.483  19.873  0.00  0.00    +0.000 OA
BRANCH  23  26
ATOM     26  C   UNL     1       1.419   3.571  18.485  0.00  0.00    +0.000 C 
ATOM     27  C   UNL     1       0.791   2.275  18.994  0.00  0.00    +0.000 C 
ATOM     28  C   UNL     1       0.714   3.524  19.816  0.00  0.00    +0.000 C 
ENDBRANCH  23  26
ENDBRANCH  22  23
ENDBRANCH   4  17
TORSDOF 4
ENDMDL
MODEL 6
REMARK VINA RESULT:      -8.4      2.301      3.633
REMARK  Name = 
REMARK  4 active torsions:
REMARK  status: ('A' for Active; 'I' for Inactive)
REMARK    1  A    between atoms: C_5  and  C_6
REMARK    2  A    between atoms: C_9  and  C_10
REMARK    3  A    between atoms: C_15  and  S_16
REMARK    4  A    between atoms: S_16  and  C_19
REMARK                            x       y       z     vdW  Elec       q    Type
REMARK                         _______ _______ _______ _____ _____    ______ ____
ROOT
ATOM      1  C   UNL     1       1.052   9.359  19.837  0.00  0.00    +0.000 A 
ATOM      2  C   UNL     1       1.494   8.202  20.496  0.00  0.00    +0.000 A 
ATOM      3  C   UNL     1       2.227   7.186  19.840  0.00  0.00    +0.000 A 
ATOM      4  C   UNL     1       2.536   7.241  18.482  0.00  0.00    +0.000 A 
ATOM      5  C   UNL     1       1.944   8.336  17.799  0.00  0.00    +0.000 A 
ATOM      6  C   UNL     1       1.264   9.374  18.460  0.00  0.00    +0.000 A 
ATOM      7  F   UNL     1       0.901  10.439  17.726  0.00  0.00    +0.000 F 
ENDROOT
BRANCH   1  12
ATOM      8  N   UNL     1      -0.811  13.501  23.098  0.00  0.00    +0.000 N 
ATOM      9  C   UNL     1      -0.399  12.519  22.203  0.00  0.00    +0.000 A 
ATOM     10  C   UNL     1      -1.004  11.267  22.150  0.00  0.00    +0.000 A 
ATOM     11  N   UNL     1      -0.578  10.262  21.342  0.00  0.00    +0.000 NA
ATOM     12  C   UNL     1       0.524  10.515  20.588  0.00  0.00    +0.000 A 
ATOM     13  C   UNL     1       1.110  11.779  20.638  0.00  0.00    +0.000 A 
ATOM     14  N   UNL     1       0.664  12.797  21.431  0.00  0.00    +0.000 NA
ATOM     15  H   UNL     1      -1.808  13.680  23.061  0.00  0.00    +0.000 HD
ATOM     16  H   UNL     1      -0.259  14.337  22.918  0.00  0.00    +0.000 HD
ENDBRANCH   1  12
BRANCH   4  17
ATOM     17  C   UNL     1       3.572   6.384  17.788  0.00  0.00    +0.000 A 
ATOM     18  C   UNL     1       4.779   7.082  17.448  0.00  0.00    +0.000 A 
ATOM     19  C   UNL     1       5.892   6.505  16.830  0.00  0.00    +0.000 A 
ATOM     20  C   UNL     1       5.871   5.167  16.523  0.00  0.00    +0.000 A 
ATOM     21  C   UNL     1       4.741   4.426  16.847  0.00  0.00    +0.000 A 
ATOM     22  C   UNL     1       3.595   4.995  17.481  0.00  0.00    +0.000 A 
BRANCH  22  23
ATOM     23  S   UNL     1       2.405   3.733  17.944  0.00  0.00    +0.000 S 
ATOM     24  O   UNL     1       1.115   4.143  17.420  0.00  0.00    +0.000 OA
ATOM     25  O   UNL     1       2.928   2.443  17.551  0.00  0.00    +0.000 OA
BRANCH  23  26
ATOM     26  C   UNL     1       2.134   3.749  19.748  0.00  0.00    +0.000 C 
ATOM     27  C   UNL     1       0.768   3.145  20.065  0.00  0.00    +0.000 C 
ATOM     28  C   UNL     1       2.020   2.413  20.433  0.00  0.00    +0.000 C 
ENDBRANCH  23  26
ENDBRANCH  22  23
ENDBRANCH   4  17
TORSDOF 4
ENDMDL
MODEL 7
REMARK VINA RESULT:      -8.3      4.714      8.105
REMARK  Name = 
REMARK  4 active torsions:
REMARK  status: ('A' for Active; 'I' for Inactive)
REMARK    1  A    between atoms: C_5  and  C_6
REMARK    2  A    between atoms: C_9  and  C_10
REMARK    3  A    between atoms: C_15  and  S_16
REMARK    4  A    between atoms: S_16  and  C_19
REMARK                            x       y       z     vdW  Elec       q    Type
REMARK                         _______ _______ _______ _____ _____    ______ ____
ROOT
ATOM      1  C   UNL     1       2.770   6.894  19.382  0.00  0.00    +0.000 A 
ATOM      2  C   UNL     1       1.994   7.467  20.402  0.00  0.00    +0.000 A 
ATOM      3  C   UNL     1       1.183   8.606  20.191  0.00  0.00    +0.000 A 
ATOM      4  C   UNL     1       1.121   9.266  18.964  0.00  0.00    +0.000 A 
ATOM      5  C   UNL     1       2.032   8.771  17.995  0.00  0.00    +0.000 A 
ATOM      6  C   UNL     1       2.796   7.606  18.186  0.00  0.00    +0.000 A 
ATOM      7  F   UNL     1       3.488   7.144  17.132  0.00  0.00    +0.000 F 
ENDROOT
BRANCH   1  12
ATOM      8  N   UNL     1       4.886   1.724  19.615  0.00  0.00    +0.000 N 
ATOM      9  C   UNL     1       4.403   3.028  19.657  0.00  0.00    +0.000 A 
ATOM     10  C   UNL     1       3.071   3.314  19.939  0.00  0.00    +0.000 A 
ATOM     11  N   UNL     1       2.551   4.568  19.913  0.00  0.00    +0.000 NA
ATOM     12  C   UNL     1       3.397   5.568  19.549  0.00  0.00    +0.000 A 
ATOM     13  C   UNL     1       4.733   5.269  19.285  0.00  0.00    +0.000 A 
ATOM     14  N   UNL     1       5.259   4.012  19.338  0.00  0.00    +0.000 NA
ATOM     15  H   UNL     1       4.662   1.191  20.447  0.00  0.00    +0.000 HD
ATOM     16  H   UNL     1       5.887   1.769  19.441  0.00  0.00    +0.000 HD
ENDBRANCH   1  12
BRANCH   4  17
ATOM     17  C   UNL     1       0.057  10.266  18.565  0.00  0.00    +0.000 A 
ATOM     18  C   UNL     1      -0.951   9.735  17.694  0.00  0.00    +0.000 A 
ATOM     19  C   UNL     1      -2.051  10.449  17.210  0.00  0.00    +0.000 A 
ATOM     20  C   UNL     1      -2.222  11.758  17.590  0.00  0.00    +0.000 A 
ATOM     21  C   UNL     1      -1.294  12.327  18.454  0.00  0.00    +0.000 A 
ATOM     22  C   UNL     1      -0.165  11.615  18.960  0.00  0.00    +0.000 A 
BRANCH  22  23
ATOM     23  S   UNL     1       0.711  12.570  20.203  0.00  0.00    +0.000 S 
ATOM     24  O   UNL     1       0.008  13.831  20.353  0.00  0.00    +0.000 OA
ATOM     25  O   UNL     1       0.893  11.741  21.374  0.00  0.00    +0.000 OA
BRANCH  23  26
ATOM     26  C   UNL     1       2.342  13.088  19.572  0.00  0.00    +0.000 C 
ATOM     27  C   UNL     1       2.452  12.735  18.090  0.00  0.00    +0.000 C 
ATOM     28  C   UNL     1       2.355  14.165  18.519  0.00  0.00    +0.000 C 
ENDBRANCH  23  26
ENDBRANCH  22  23
ENDBRANCH   4  17
TORSDOF 4
ENDMDL
MODEL 8
REMARK VINA RESULT:      -8.2      4.628      8.189
REMARK  Name = 
REMARK  4 active torsions:
REMARK  status: ('A' for Active; 'I' for Inactive)
REMARK    1  A    between atoms: C_5  and  C_6
REMARK    2  A    between atoms: C_9  and  C_10
REMARK    3  A    between atoms: C_15  and  S_16
REMARK    4  A    between atoms: S_16  and  C_19
REMARK                            x       y       z     vdW  Elec       q    Type
REMARK                         _______ _______ _______ _____ _____    ______ ____
ROOT
ATOM      1  C   UNL     1       2.747   6.940  19.312  0.00  0.00    +0.000 A 
ATOM      2  C   UNL     1       1.952   7.522  20.312  0.00  0.00    +0.000 A 
ATOM      3  C   UNL     1       1.115   8.635  20.066  0.00  0.00    +0.000 A 
ATOM      4  C   UNL     1       1.043   9.259  18.821  0.00  0.00    +0.000 A 
ATOM      5  C   UNL     1       1.971   8.761  17.870  0.00  0.00    +0.000 A 
ATOM      6  C   UNL     1       2.762   7.620  18.096  0.00  0.00    +0.000 A 
ATOM      7  F   UNL     1       3.470   7.146  17.058  0.00  0.00    +0.000 F 
ENDROOT
BRANCH   1  12
ATOM      8  N   UNL     1       4.980   1.828  19.700  0.00  0.00    +0.000 N 
ATOM      9  C   UNL     1       4.468   3.122  19.702  0.00  0.00    +0.000 A 
ATOM     10  C   UNL     1       3.132   3.389  19.988  0.00  0.00    +0.000 A 
ATOM     11  N   UNL     1       2.585   4.630  19.924  0.00  0.00    +0.000 NA
ATOM     12  C   UNL     1       3.404   5.635  19.518  0.00  0.00    +0.000 A 
ATOM     13  C   UNL     1       4.744   5.357  19.251  0.00  0.00    +0.000 A 
ATOM     14  N   UNL     1       5.299   4.113  19.342  0.00  0.00    +0.000 NA
ATOM     15  H   UNL     1       4.775   1.320  20.553  0.00  0.00    +0.000 HD
ATOM     16  H   UNL     1       5.977   1.890  19.515  0.00  0.00    +0.000 HD
ENDBRANCH   1  12
BRANCH   4  17
ATOM     17  C   UNL     1      -0.042  10.223  18.391  0.00  0.00    +0.000 A 
ATOM     18  C   UNL     1      -1.052   9.635  17.558  0.00  0.00    +0.000 A 
ATOM     19  C   UNL     1      -2.170  10.308  17.057  0.00  0.00    +0.000 A 
ATOM     20  C   UNL     1      -2.358  11.629  17.377  0.00  0.00    +0.000 A 
ATOM     21  C   UNL     1      -1.429  12.254  18.201  0.00  0.00    +0.000 A 
ATOM     22  C   UNL     1      -0.282  11.584  18.725  0.00  0.00    +0.000 A 
BRANCH  22  23
ATOM     23  S   UNL     1       0.593  12.610  19.911  0.00  0.00    +0.000 S 
ATOM     24  O   UNL     1       2.012  12.349  19.743  0.00  0.00    +0.000 OA
ATOM     25  O   UNL     1       0.124  13.971  19.774  0.00  0.00    +0.000 OA
BRANCH  23  26
ATOM     26  C   UNL     1       0.273  12.029  21.610  0.00  0.00    +0.000 C 
ATOM     27  C   UNL     1      -1.067  12.578  22.094  0.00  0.00    +0.000 C 
ATOM     28  C   UNL     1      -0.909  11.117  21.808  0.00  0.00    +0.000 C 
ENDBRANCH  23  26
ENDBRANCH  22  23
ENDBRANCH   4  17
TORSDOF 4
ENDMDL
MODEL 9
REMARK VINA RESULT:      -8.1      4.590      8.122
REMARK  Name = 
REMARK  4 active torsions:
REMARK  status: ('A' for Active; 'I' for Inactive)
REMARK    1  A    between atoms: C_5  and  C_6
REMARK    2  A    between atoms: C_9  and  C_10
REMARK    3  A    between atoms: C_15  and  S_16
REMARK    4  A    between atoms: S_16  and  C_19
REMARK                            x       y       z     vdW  Elec       q    Type
REMARK                         _______ _______ _______ _____ _____    ______ ____
ROOT
ATOM      1  C   UNL     1       3.169   6.598  18.820  0.00  0.00    +0.000 A 
ATOM      2  C   UNL     1       2.796   7.826  18.253  0.00  0.00    +0.000 A 
ATOM      3  C   UNL     1       1.823   8.670  18.839  0.00  0.00    +0.000 A 
ATOM      4  C   UNL     1       1.138   8.328  20.004  0.00  0.00    +0.000 A 
ATOM      5  C   UNL     1       1.411   7.016  20.471  0.00  0.00    +0.000 A 
ATOM      6  C   UNL     1       2.417   6.201  19.922  0.00  0.00    +0.000 A 
ATOM      7  F   UNL     1       2.696   5.052  20.561  0.00  0.00    +0.000 F 
ENDROOT
BRANCH   1  12
ATOM      8  N   UNL     1       7.863   4.257  16.881  0.00  0.00    +0.000 N 
ATOM      9  C   UNL     1       6.652   4.738  17.370  0.00  0.00    +0.000 A 
ATOM     10  C   UNL     1       5.704   5.332  16.542  0.00  0.00    +0.000 A 
ATOM     11  N   UNL     1       4.548   5.879  16.998  0.00  0.00    +0.000 NA
ATOM     12  C   UNL     1       4.358   5.863  18.343  0.00  0.00    +0.000 A 
ATOM     13  C   UNL     1       5.308   5.250  19.159  0.00  0.00    +0.000 A 
ATOM     14  N   UNL     1       6.456   4.677  18.697  0.00  0.00    +0.000 NA
ATOM     15  H   UNL     1       7.751   3.626  16.096  0.00  0.00    +0.000 HD
ATOM     16  H   UNL     1       8.362   3.828  17.656  0.00  0.00    +0.000 HD
ENDBRANCH   1  12
BRANCH   4  17
ATOM     17  C   UNL     1       0.343   9.289  20.861  0.00  0.00    +0.000 A 
ATOM     18  C   UNL     1       0.418   9.020  22.269  0.00  0.00    +0.000 A 
ATOM     19  C   UNL     1      -0.204   9.780  23.265  0.00  0.00    +0.000 A 
ATOM     20  C   UNL     1      -0.937  10.883  22.907  0.00  0.00    +0.000 A 
ATOM     21  C   UNL     1      -1.031  11.215  21.561  0.00  0.00    +0.000 A 
ATOM     22  C   UNL     1      -0.402  10.454  20.529  0.00  0.00    +0.000 A 
BRANCH  22  23
ATOM     23  S   UNL     1      -0.547  11.265  18.933  0.00  0.00    +0.000 S 
ATOM     24  O   UNL     1      -1.609  12.250  19.045  0.00  0.00    +0.000 OA
ATOM     25  O   UNL     1       0.766  11.713  18.525  0.00  0.00    +0.000 OA
BRANCH  23  26
ATOM     26  C   UNL     1      -1.202  10.104  17.689  0.00  0.00    +0.000 C 
ATOM     27  C   UNL     1      -2.689   9.867  17.942  0.00  0.00    +0.000 C 
ATOM     28  C   UNL     1      -2.242  10.636  16.739  0.00  0.00    +0.000 C 
ENDBRANCH  23  26
ENDBRANCH  22  23
ENDBRANCH   4  17
TORSDOF 4
ENDMDL
