MODEL 1
REMARK VINA RESULT:      -8.1      0.000      0.000
REMARK  Name = 
REMARK  10 active torsions:
REMARK  status: ('A' for Active; 'I' for Inactive)
REMARK    1  A    between atoms: C_1  and  C_2
REMARK    2  A    between atoms: C_2  and  O_3
REMARK    3  A    between atoms: O_3  and  C_4
REMARK    4  A    between atoms: C_4  and  C_6
REMARK    5  A    between atoms: C_10  and  O_11
REMARK    6  A    between atoms: O_11  and  C_12
REMARK    7  A    between atoms: C_13  and  O_14
REMARK    8  A    between atoms: O_14  and  C_15
REMARK    9  A    between atoms: C_19  and  C_20
REMARK   10  A    between atoms: C_19  and  C_21
REMARK                            x       y       z     vdW  Elec       q    Type
REMARK                         _______ _______ _______ _____ _____    ______ ____
ROOT
ATOM      1  C   UNL     1       4.521   5.462  17.094  0.00  0.00    +0.000 C 
ATOM      2  C   UNL     1       3.594   5.441  18.077  0.00  0.00    +0.000 C 
ATOM      3  C   UNL     1       2.824   6.558  18.678  0.00  0.00    +0.000 A 
ATOM      4  C   UNL     1       2.535   7.739  17.989  0.00  0.00    +0.000 A 
ATOM      5  C   UNL     1       1.796   8.776  18.575  0.00  0.00    +0.000 A 
ATOM      6  C   UNL     1       1.304   8.627  19.882  0.00  0.00    +0.000 A 
ATOM      7  C   UNL     1       1.530   7.425  20.557  0.00  0.00    +0.000 A 
ATOM      8  C   UNL     1       2.255   6.388  19.949  0.00  0.00    +0.000 A 
ATOM      9  C   UNL     1       2.412   5.064  20.656  0.00  0.00    +0.000 C 
ATOM     10  C   UNL     1       2.387   3.881  19.648  0.00  0.00    +0.000 C 
ATOM     11  C   UNL     1       0.976   3.697  19.053  0.00  0.00    +0.000 C 
ATOM     12  C   UNL     1       2.739   2.611  20.451  0.00  0.00    +0.000 C 
ATOM     13  N   UNL     1       3.358   4.154  18.565  0.00  0.00    +0.000 N 
ATOM     14  C   UNL     1       4.021   3.215  17.810  0.00  0.00    +0.000 C 
ATOM     15  O   UNL     1       3.997   2.005  17.839  0.00  0.00    +0.000 OA
ATOM     16  C   UNL     1       4.871   4.053  16.849  0.00  0.00    +0.000 C 
ATOM     17  O   UNL     1       5.689   3.604  16.077  0.00  0.00    +0.000 OA
ENDROOT
BRANCH   1  18
ATOM     18  C   UNL     1       5.126   6.600  16.399  0.00  0.00    +0.000 C 
ATOM     19  O   UNL     1       4.887   6.898  15.239  0.00  0.00    +0.000 OA
BRANCH  18  20
ATOM     20  O   UNL     1       6.003   7.248  17.202  0.00  0.00    +0.000 OA
BRANCH  20  22
ATOM     21  C   UNL     1       7.765   6.376  18.655  0.00  0.00    +0.000 C 
ATOM     22  C   UNL     1       7.336   6.711  17.237  0.00  0.00    +0.000 C 
ENDBRANCH  20  22
ENDBRANCH  18  20
ENDBRANCH   1  18
BRANCH   5  23
ATOM     23  O   UNL     1       1.535   9.966  17.936  0.00  0.00    +0.000 OA
ATOM     24  C   UNL     1       2.541  10.970  18.029  0.00  0.00    +0.000 C 
ENDBRANCH   5  23
BRANCH   6  25
ATOM     25  O   UNL     1       0.592   9.680  20.399  0.00  0.00    +0.000 OA
ATOM     26  C   UNL     1      -0.144   9.452  21.592  0.00  0.00    +0.000 C 
ENDBRANCH   6  25
TORSDOF 5
ENDMDL
MODEL 2
REMARK VINA RESULT:      -7.0      1.802      4.457
REMARK  Name = 
REMARK  10 active torsions:
REMARK  status: ('A' for Active; 'I' for Inactive)
REMARK    1  A    between atoms: C_1  and  C_2
REMARK    2  A    between atoms: C_2  and  O_3
REMARK    3  A    between atoms: O_3  and  C_4
REMARK    4  A    between atoms: C_4  and  C_6
REMARK    5  A    between atoms: C_10  and  O_11
REMARK    6  A    between atoms: O_11  and  C_12
REMARK    7  A    between atoms: C_13  and  O_14
REMARK    8  A    between atoms: O_14  and  C_15
REMARK    9  A    between atoms: C_19  and  C_20
REMARK   10  A    between atoms: C_19  and  C_21
REMARK                            x       y       z     vdW  Elec       q    Type
REMARK                         _______ _______ _______ _____ _____    ______ ____
ROOT
ATOM      1  C   UNL     1       3.417   4.523  19.807  0.00  0.00    +0.000 C 
ATOM      2  C   UNL     1       3.605   5.610  19.024  0.00  0.00    +0.000 C 
ATOM      3  C   UNL     1       2.835   6.876  18.959  0.00  0.00    +0.000 A 
ATOM      4  C   UNL     1       2.110   7.382  20.042  0.00  0.00    +0.000 A 
ATOM      5  C   UNL     1       1.399   8.586  19.959  0.00  0.00    +0.000 A 
ATOM      6  C   UNL     1       1.426   9.330  18.767  0.00  0.00    +0.000 A 
ATOM      7  C   UNL     1       2.199   8.868  17.700  0.00  0.00    +0.000 A 
ATOM      8  C   UNL     1       2.923   7.670  17.806  0.00  0.00    +0.000 A 
ATOM      9  C   UNL     1       3.824   7.232  16.678  0.00  0.00    +0.000 C 
ATOM     10  C   UNL     1       5.103   6.532  17.217  0.00  0.00    +0.000 C 
ATOM     11  C   UNL     1       6.030   7.545  17.918  0.00  0.00    +0.000 C 
ATOM     12  C   UNL     1       5.848   5.968  15.989  0.00  0.00    +0.000 C 
ATOM     13  N   UNL     1       4.701   5.473  18.171  0.00  0.00    +0.000 N 
ATOM     14  C   UNL     1       5.404   4.325  18.456  0.00  0.00    +0.000 C 
ATOM     15  O   UNL     1       6.452   3.901  18.023  0.00  0.00    +0.000 OA
ATOM     16  C   UNL     1       4.539   3.619  19.506  0.00  0.00    +0.000 C 
ATOM     17  O   UNL     1       4.753   2.512  19.948  0.00  0.00    +0.000 OA
ENDROOT
BRANCH   1  18
ATOM     18  C   UNL     1       2.336   4.221  20.747  0.00  0.00    +0.000 C 
ATOM     19  O   UNL     1       2.500   4.055  21.946  0.00  0.00    +0.000 OA
BRANCH  18  20
ATOM     20  O   UNL     1       1.149   4.117  20.104  0.00  0.00    +0.000 OA
BRANCH  20  22
ATOM     21  C   UNL     1       1.095   2.241  18.538  0.00  0.00    +0.000 C 
ATOM     22  C   UNL     1       0.665   2.780  19.892  0.00  0.00    +0.000 C 
ENDBRANCH  20  22
ENDBRANCH  18  20
ENDBRANCH   1  18
BRANCH   5  23
ATOM     23  O   UNL     1       0.642   9.085  20.993  0.00  0.00    +0.000 OA
ATOM     24  C   UNL     1       1.299   9.229  22.249  0.00  0.00    +0.000 C 
ENDBRANCH   5  23
BRANCH   6  25
ATOM     25  O   UNL     1       0.705  10.497  18.749  0.00  0.00    +0.000 OA
ATOM     26  C   UNL     1       1.428  11.717  18.821  0.00  0.00    +0.000 C 
ENDBRANCH   6  25
TORSDOF 5
ENDMDL
MODEL 3
REMARK VINA RESULT:      -6.9      1.835      5.555
REMARK  Name = 
REMARK  10 active torsions:
REMARK  status: ('A' for Active; 'I' for Inactive)
REMARK    1  A    between atoms: C_1  and  C_2
REMARK    2  A    between atoms: C_2  and  O_3
REMARK    3  A    between atoms: O_3  and  C_4
REMARK    4  A    between atoms: C_4  and  C_6
REMARK    5  A    between atoms: C_10  and  O_11
REMARK    6  A    between atoms: O_11  and  C_12
REMARK    7  A    between atoms: C_13  and  O_14
REMARK    8  A    between atoms: O_14  and  C_15
REMARK    9  A    between atoms: C_19  and  C_20
REMARK   10  A    between atoms: C_19  and  C_21
REMARK                            x       y       z     vdW  Elec       q    Type
REMARK                         _______ _______ _______ _____ _____    ______ ____
ROOT
ATOM      1  C   UNL     1       2.271   6.298  19.364  0.00  0.00    +0.000 C 
ATOM      2  C   UNL     1       3.014   5.283  18.869  0.00  0.00    +0.000 C 
ATOM      3  C   UNL     1       4.149   5.317  17.914  0.00  0.00    +0.000 A 
ATOM      4  C   UNL     1       4.982   6.429  17.762  0.00  0.00    +0.000 A 
ATOM      5  C   UNL     1       6.055   6.432  16.861  0.00  0.00    +0.000 A 
ATOM      6  C   UNL     1       6.327   5.284  16.099  0.00  0.00    +0.000 A 
ATOM      7  C   UNL     1       5.542   4.145  16.288  0.00  0.00    +0.000 A 
ATOM      8  C   UNL     1       4.483   4.150  17.210  0.00  0.00    +0.000 A 
ATOM      9  C   UNL     1       3.702   2.885  17.468  0.00  0.00    +0.000 C 
ATOM     10  C   UNL     1       3.281   2.777  18.960  0.00  0.00    +0.000 C 
ATOM     11  C   UNL     1       4.507   2.519  19.860  0.00  0.00    +0.000 C 
ATOM     12  C   UNL     1       2.342   1.557  19.066  0.00  0.00    +0.000 C 
ATOM     13  N   UNL     1       2.618   4.039  19.362  0.00  0.00    +0.000 N 
ATOM     14  C   UNL     1       1.669   4.181  20.348  0.00  0.00    +0.000 C 
ATOM     15  O   UNL     1       1.154   3.370  21.084  0.00  0.00    +0.000 OA
ATOM     16  C   UNL     1       1.355   5.681  20.337  0.00  0.00    +0.000 C 
ATOM     17  O   UNL     1       0.485   6.211  20.993  0.00  0.00    +0.000 OA
ENDROOT
BRANCH   1  18
ATOM     18  C   UNL     1       2.287   7.723  19.028  0.00  0.00    +0.000 C 
ATOM     19  O   UNL     1       2.481   8.157  17.902  0.00  0.00    +0.000 OA
BRANCH  18  20
ATOM     20  O   UNL     1       2.094   8.485  20.131  0.00  0.00    +0.000 OA
BRANCH  20  22
ATOM     21  C   UNL     1       0.341   9.663  21.361  0.00  0.00    +0.000 C 
ATOM     22  C   UNL     1       1.057   9.476  20.034  0.00  0.00    +0.000 C 
ENDBRANCH  20  22
ENDBRANCH  18  20
ENDBRANCH   1  18
BRANCH   5  23
ATOM     23  O   UNL     1       6.864   7.526  16.660  0.00  0.00    +0.000 OA
ATOM     24  C   UNL     1       7.755   7.861  17.720  0.00  0.00    +0.000 C 
ENDBRANCH   5  23
BRANCH   6  25
ATOM     25  O   UNL     1       7.388   5.354  15.231  0.00  0.00    +0.000 OA
ATOM     26  C   UNL     1       7.183   4.890  13.905  0.00  0.00    +0.000 C 
ENDBRANCH   6  25
TORSDOF 5
ENDMDL
MODEL 4
REMARK VINA RESULT:      -6.7      1.041      1.552
REMARK  Name = 
REMARK  10 active torsions:
REMARK  status: ('A' for Active; 'I' for Inactive)
REMARK    1  A    between atoms: C_1  and  C_2
REMARK    2  A    between atoms: C_2  and  O_3
REMARK    3  A    between atoms: O_3  and  C_4
REMARK    4  A    between atoms: C_4  and  C_6
REMARK    5  A    between atoms: C_10  and  O_11
REMARK    6  A    between atoms: O_11  and  C_12
REMARK    7  A    between atoms: C_13  and  O_14
REMARK    8  A    between atoms: O_14  and  C_15
REMARK    9  A    between atoms: C_19  and  C_20
REMARK   10  A    between atoms: C_19  and  C_21
REMARK                            x       y       z     vdW  Elec       q    Type
REMARK                         _______ _______ _______ _____ _____    ______ ____
ROOT
ATOM      1  C   UNL     1       4.423   4.971  17.489  0.00  0.00    +0.000 C 
ATOM      2  C   UNL     1       3.494   5.175  18.450  0.00  0.00    +0.000 C 
ATOM      3  C   UNL     1       2.805   6.427  18.851  0.00  0.00    +0.000 A 
ATOM      4  C   UNL     1       2.606   7.499  17.977  0.00  0.00    +0.000 A 
ATOM      5  C   UNL     1       1.942   8.666  18.377  0.00  0.00    +0.000 A 
ATOM      6  C   UNL     1       1.437   8.767  19.684  0.00  0.00    +0.000 A 
ATOM      7  C   UNL     1       1.573   7.677  20.548  0.00  0.00    +0.000 A 
ATOM      8  C   UNL     1       2.222   6.506  20.125  0.00  0.00    +0.000 A 
ATOM      9  C   UNL     1       2.281   5.306  21.038  0.00  0.00    +0.000 C 
ATOM     10  C   UNL     1       2.172   3.981  20.234  0.00  0.00    +0.000 C 
ATOM     11  C   UNL     1       0.753   3.804  19.657  0.00  0.00    +0.000 C 
ATOM     12  C   UNL     1       2.430   2.835  21.236  0.00  0.00    +0.000 C 
ATOM     13  N   UNL     1       3.164   4.005  19.135  0.00  0.00    +0.000 N 
ATOM     14  C   UNL     1       3.759   2.911  18.552  0.00  0.00    +0.000 C 
ATOM     15  O   UNL     1       3.647   1.726  18.774  0.00  0.00    +0.000 OA
ATOM     16  C   UNL     1       4.670   3.519  17.480  0.00  0.00    +0.000 C 
ATOM     17  O   UNL     1       5.456   2.894  16.803  0.00  0.00    +0.000 OA
ENDROOT
BRANCH   1  18
ATOM     18  C   UNL     1       5.111   5.935  16.629  0.00  0.00    +0.000 C 
ATOM     19  O   UNL     1       5.671   6.940  17.041  0.00  0.00    +0.000 OA
BRANCH  18  20
ATOM     20  O   UNL     1       5.012   5.581  15.326  0.00  0.00    +0.000 OA
BRANCH  20  22
ATOM     21  C   UNL     1       6.060   4.044  13.740  0.00  0.00    +0.000 C 
ATOM     22  C   UNL     1       6.245   5.225  14.678  0.00  0.00    +0.000 C 
ENDBRANCH  20  22
ENDBRANCH  18  20
ENDBRANCH   1  18
BRANCH   5  23
ATOM     23  O   UNL     1       1.770   9.753  17.552  0.00  0.00    +0.000 OA
ATOM     24  C   UNL     1       2.499  10.929  17.890  0.00  0.00    +0.000 C 
ENDBRANCH   5  23
BRANCH   6  25
ATOM     25  O   UNL     1       0.803   9.938  20.015  0.00  0.00    +0.000 OA
ATOM     26  C   UNL     1      -0.475   9.842  20.627  0.00  0.00    +0.000 C 
ENDBRANCH   6  25
TORSDOF 5
ENDMDL
MODEL 5
REMARK VINA RESULT:      -6.6      1.908      5.495
REMARK  Name = 
REMARK  10 active torsions:
REMARK  status: ('A' for Active; 'I' for Inactive)
REMARK    1  A    between atoms: C_1  and  C_2
REMARK    2  A    between atoms: C_2  and  O_3
REMARK    3  A    between atoms: O_3  and  C_4
REMARK    4  A    between atoms: C_4  and  C_6
REMARK    5  A    between atoms: C_10  and  O_11
REMARK    6  A    between atoms: O_11  and  C_12
REMARK    7  A    between atoms: C_13  and  O_14
REMARK    8  A    between atoms: O_14  and  C_15
REMARK    9  A    between atoms: C_19  and  C_20
REMARK   10  A    between atoms: C_19  and  C_21
REMARK                            x       y       z     vdW  Elec       q    Type
REMARK                         _______ _______ _______ _____ _____    ______ ____
ROOT
ATOM      1  C   UNL     1       2.263   6.170  19.455  0.00  0.00    +0.000 C 
ATOM      2  C   UNL     1       2.987   5.189  18.870  0.00  0.00    +0.000 C 
ATOM      3  C   UNL     1       4.110   5.286  17.905  0.00  0.00    +0.000 A 
ATOM      4  C   UNL     1       4.954   6.396  17.830  0.00  0.00    +0.000 A 
ATOM      5  C   UNL     1       6.015   6.459  16.917  0.00  0.00    +0.000 A 
ATOM      6  C   UNL     1       6.263   5.372  16.062  0.00  0.00    +0.000 A 
ATOM      7  C   UNL     1       5.466   4.230  16.171  0.00  0.00    +0.000 A 
ATOM      8  C   UNL     1       4.420   4.175  17.106  0.00  0.00    +0.000 A 
ATOM      9  C   UNL     1       3.627   2.902  17.275  0.00  0.00    +0.000 C 
ATOM     10  C   UNL     1       3.225   2.681  18.759  0.00  0.00    +0.000 C 
ATOM     11  C   UNL     1       4.459   2.339  19.618  0.00  0.00    +0.000 C 
ATOM     12  C   UNL     1       2.272   1.467  18.782  0.00  0.00    +0.000 C 
ATOM     13  N   UNL     1       2.582   3.914  19.269  0.00  0.00    +0.000 N 
ATOM     14  C   UNL     1       1.649   3.988  20.276  0.00  0.00    +0.000 C 
ATOM     15  O   UNL     1       1.133   3.128  20.954  0.00  0.00    +0.000 OA
ATOM     16  C   UNL     1       1.353   5.488  20.389  0.00  0.00    +0.000 C 
ATOM     17  O   UNL     1       0.499   5.974  21.097  0.00  0.00    +0.000 OA
ENDROOT
BRANCH   1  18
ATOM     18  C   UNL     1       2.293   7.616  19.232  0.00  0.00    +0.000 C 
ATOM     19  O   UNL     1       2.529   8.438  20.104  0.00  0.00    +0.000 OA
BRANCH  18  20
ATOM     20  O   UNL     1       1.992   7.915  17.946  0.00  0.00    +0.000 OA
BRANCH  20  22
ATOM     21  C   UNL     1       0.367   9.742  17.959  0.00  0.00    +0.000 C 
ATOM     22  C   UNL     1       1.792   9.310  17.657  0.00  0.00    +0.000 C 
ENDBRANCH  20  22
ENDBRANCH  18  20
ENDBRANCH   1  18
BRANCH   5  23
ATOM     23  O   UNL     1       6.835   7.556  16.791  0.00  0.00    +0.000 OA
ATOM     24  C   UNL     1       7.787   7.760  17.831  0.00  0.00    +0.000 C 
ENDBRANCH   5  23
BRANCH   6  25
ATOM     25  O   UNL     1       7.313   5.499  15.187  0.00  0.00    +0.000 OA
ATOM     26  C   UNL     1       7.193   4.866  13.922  0.00  0.00    +0.000 C 
ENDBRANCH   6  25
TORSDOF 5
ENDMDL
MODEL 6
REMARK VINA RESULT:      -6.2      1.591      4.248
REMARK  Name = 
REMARK  10 active torsions:
REMARK  status: ('A' for Active; 'I' for Inactive)
REMARK    1  A    between atoms: C_1  and  C_2
REMARK    2  A    between atoms: C_2  and  O_3
REMARK    3  A    between atoms: O_3  and  C_4
REMARK    4  A    between atoms: C_4  and  C_6
REMARK    5  A    between atoms: C_10  and  O_11
REMARK    6  A    between atoms: O_11  and  C_12
REMARK    7  A    between atoms: C_13  and  O_14
REMARK    8  A    between atoms: O_14  and  C_15
REMARK    9  A    between atoms: C_19  and  C_20
REMARK   10  A    between atoms: C_19  and  C_21
REMARK                            x       y       z     vdW  Elec       q    Type
REMARK                         _______ _______ _______ _____ _____    ______ ____
ROOT
ATOM      1  C   UNL     1       2.576   3.985  18.513  0.00  0.00    +0.000 C 
ATOM      2  C   UNL     1       3.031   5.202  18.138  0.00  0.00    +0.000 C 
ATOM      3  C   UNL     1       2.539   6.553  18.506  0.00  0.00    +0.000 A 
ATOM      4  C   UNL     1       1.864   6.817  19.701  0.00  0.00    +0.000 A 
ATOM      5  C   UNL     1       1.420   8.104  20.031  0.00  0.00    +0.000 A 
ATOM      6  C   UNL     1       1.673   9.174  19.157  0.00  0.00    +0.000 A 
ATOM      7  C   UNL     1       2.403   8.935  17.990  0.00  0.00    +0.000 A 
ATOM      8  C   UNL     1       2.860   7.643  17.684  0.00  0.00    +0.000 A 
ATOM      9  C   UNL     1       3.724   7.419  16.467  0.00  0.00    +0.000 C 
ATOM     10  C   UNL     1       4.796   6.325  16.731  0.00  0.00    +0.000 C 
ATOM     11  C   UNL     1       5.864   6.831  17.723  0.00  0.00    +0.000 C 
ATOM     12  C   UNL     1       5.489   6.051  15.379  0.00  0.00    +0.000 C 
ATOM     13  N   UNL     1       4.128   5.123  17.279  0.00  0.00    +0.000 N 
ATOM     14  C   UNL     1       4.563   3.824  17.158  0.00  0.00    +0.000 C 
ATOM     15  O   UNL     1       5.529   3.353  16.600  0.00  0.00    +0.000 OA
ATOM     16  C   UNL     1       3.508   3.013  17.918  0.00  0.00    +0.000 C 
ATOM     17  O   UNL     1       3.464   1.804  17.963  0.00  0.00    +0.000 OA
ENDROOT
BRANCH   1  18
ATOM     18  C   UNL     1       1.399   3.628  19.307  0.00  0.00    +0.000 C 
ATOM     19  O   UNL     1       0.407   3.081  18.849  0.00  0.00    +0.000 OA
BRANCH  18  20
ATOM     20  O   UNL     1       1.547   4.015  20.596  0.00  0.00    +0.000 OA
BRANCH  20  22
ATOM     21  C   UNL     1       2.904   2.234  21.578  0.00  0.00    +0.000 C 
ATOM     22  C   UNL     1       1.567   2.956  21.569  0.00  0.00    +0.000 C 
ENDBRANCH  20  22
ENDBRANCH  18  20
ENDBRANCH   1  18
BRANCH   5  23
ATOM     23  O   UNL     1       0.715   8.384  21.179  0.00  0.00    +0.000 OA
ATOM     24  C   UNL     1       1.445   8.996  22.239  0.00  0.00    +0.000 C 
ENDBRANCH   5  23
BRANCH   6  25
ATOM     25  O   UNL     1       1.207  10.407  19.536  0.00  0.00    +0.000 OA
ATOM     26  C   UNL     1       0.138  10.963  18.785  0.00  0.00    +0.000 C 
ENDBRANCH   6  25
TORSDOF 5
ENDMDL
MODEL 7
REMARK VINA RESULT:      -5.9      8.621     10.563
REMARK  Name = 
REMARK  10 active torsions:
REMARK  status: ('A' for Active; 'I' for Inactive)
REMARK    1  A    between atoms: C_1  and  C_2
REMARK    2  A    between atoms: C_2  and  O_3
REMARK    3  A    between atoms: O_3  and  C_4
REMARK    4  A    between atoms: C_4  and  C_6
REMARK    5  A    between atoms: C_10  and  O_11
REMARK    6  A    between atoms: O_11  and  C_12
REMARK    7  A    between atoms: C_13  and  O_14
REMARK    8  A    between atoms: O_14  and  C_15
REMARK    9  A    between atoms: C_19  and  C_20
REMARK   10  A    between atoms: C_19  and  C_21
REMARK                            x       y       z     vdW  Elec       q    Type
REMARK                         _______ _______ _______ _____ _____    ______ ____
ROOT
ATOM      1  C   UNL     1       9.294  15.562  18.887  0.00  0.00    +0.000 C 
ATOM      2  C   UNL     1       9.373  14.331  19.441  0.00  0.00    +0.000 C 
ATOM      3  C   UNL     1       8.698  13.788  20.645  0.00  0.00    +0.000 A 
ATOM      4  C   UNL     1       7.475  14.273  21.115  0.00  0.00    +0.000 A 
ATOM      5  C   UNL     1       6.851  13.736  22.249  0.00  0.00    +0.000 A 
ATOM      6  C   UNL     1       7.450  12.662  22.929  0.00  0.00    +0.000 A 
ATOM      7  C   UNL     1       8.640  12.126  22.432  0.00  0.00    +0.000 A 
ATOM      8  C   UNL     1       9.241  12.662  21.282  0.00  0.00    +0.000 A 
ATOM      9  C   UNL     1      10.476  12.013  20.706  0.00  0.00    +0.000 C 
ATOM     10  C   UNL     1      10.475  12.081  19.153  0.00  0.00    +0.000 C 
ATOM     11  C   UNL     1       9.392  11.156  18.563  0.00  0.00    +0.000 C 
ATOM     12  C   UNL     1      11.854  11.564  18.689  0.00  0.00    +0.000 C 
ATOM     13  N   UNL     1      10.226  13.479  18.736  0.00  0.00    +0.000 N 
ATOM     14  C   UNL     1      10.649  14.068  17.567  0.00  0.00    +0.000 C 
ATOM     15  O   UNL     1      11.301  13.633  16.643  0.00  0.00    +0.000 OA
ATOM     16  C   UNL     1      10.101  15.496  17.657  0.00  0.00    +0.000 C 
ATOM     17  O   UNL     1      10.341  16.381  16.867  0.00  0.00    +0.000 OA
ENDROOT
BRANCH   1  18
ATOM     18  C   UNL     1       8.607  16.763  19.366  0.00  0.00    +0.000 C 
ATOM     19  O   UNL     1       8.954  17.402  20.347  0.00  0.00    +0.000 OA
BRANCH  18  20
ATOM     20  O   UNL     1       7.527  17.043  18.599  0.00  0.00    +0.000 OA
BRANCH  20  22
ATOM     21  C   UNL     1       5.160  16.456  18.770  0.00  0.00    +0.000 C 
ATOM     22  C   UNL     1       6.304  17.299  19.309  0.00  0.00    +0.000 C 
ENDBRANCH  20  22
ENDBRANCH  18  20
ENDBRANCH   1  18
BRANCH   5  23
ATOM     23  O   UNL     1       5.670  14.223  22.759  0.00  0.00    +0.000 OA
ATOM     24  C   UNL     1       4.565  14.278  21.861  0.00  0.00    +0.000 C 
ENDBRANCH   5  23
BRANCH   6  25
ATOM     25  O   UNL     1       6.792  12.186  24.035  0.00  0.00    +0.000 OA
ATOM     26  C   UNL     1       7.550  12.002  25.222  0.00  0.00    +0.000 C 
ENDBRANCH   6  25
TORSDOF 5
ENDMDL
MODEL 8
REMARK VINA RESULT:      -5.9      7.565     10.659
REMARK  Name = 
REMARK  10 active torsions:
REMARK  status: ('A' for Active; 'I' for Inactive)
REMARK    1  A    between atoms: C_1  and  C_2
REMARK    2  A    between atoms: C_2  and  O_3
REMARK    3  A    between atoms: O_3  and  C_4
REMARK    4  A    between atoms: C_4  and  C_6
REMARK    5  A    between atoms: C_10  and  O_11
REMARK    6  A    between atoms: O_11  and  C_12
REMARK    7  A    between atoms: C_13  and  O_14
REMARK    8  A    between atoms: O_14  and  C_15
REMARK    9  A    between atoms: C_19  and  C_20
REMARK   10  A    between atoms: C_19  and  C_21
REMARK                            x       y       z     vdW  Elec       q    Type
REMARK                         _______ _______ _______ _____ _____    ______ ____
ROOT
ATOM      1  C   UNL     1      -3.623  12.897  21.691  0.00  0.00    +0.000 C 
ATOM      2  C   UNL     1      -2.827  12.361  20.738  0.00  0.00    +0.000 C 
ATOM      3  C   UNL     1      -3.171  11.880  19.377  0.00  0.00    +0.000 A 
ATOM      4  C   UNL     1      -4.259  12.369  18.650  0.00  0.00    +0.000 A 
ATOM      5  C   UNL     1      -4.555  11.907  17.361  0.00  0.00    +0.000 A 
ATOM      6  C   UNL     1      -3.731  10.940  16.761  0.00  0.00    +0.000 A 
ATOM      7  C   UNL     1      -2.604  10.490  17.452  0.00  0.00    +0.000 A 
ATOM      8  C   UNL     1      -2.308  10.979  18.735  0.00  0.00    +0.000 A 
ATOM      9  C   UNL     1      -1.038  10.552  19.429  0.00  0.00    +0.000 C 
ATOM     10  C   UNL     1      -0.436  11.713  20.268  0.00  0.00    +0.000 C 
ATOM     11  C   UNL     1       0.125  12.819  19.350  0.00  0.00    +0.000 C 
ATOM     12  C   UNL     1       0.738  11.114  21.071  0.00  0.00    +0.000 C 
ATOM     13  N   UNL     1      -1.494  12.271  21.141  0.00  0.00    +0.000 N 
ATOM     14  C   UNL     1      -1.304  12.896  22.351  0.00  0.00    +0.000 C 
ATOM     15  O   UNL     1      -0.297  13.126  22.983  0.00  0.00    +0.000 OA
ATOM     16  C   UNL     1      -2.722  13.274  22.793  0.00  0.00    +0.000 C 
ATOM     17  O   UNL     1      -3.007  13.756  23.867  0.00  0.00    +0.000 OA
ENDROOT
BRANCH   1  18
ATOM     18  C   UNL     1      -5.077  13.065  21.713  0.00  0.00    +0.000 C 
ATOM     19  O   UNL     1      -5.639  14.141  21.847  0.00  0.00    +0.000 OA
BRANCH  18  20
ATOM     20  O   UNL     1      -5.705  11.870  21.600  0.00  0.00    +0.000 OA
BRANCH  20  22
ATOM     21  C   UNL     1      -7.448  10.536  20.525  0.00  0.00    +0.000 C 
ATOM     22  C   UNL     1      -7.021  11.906  21.022  0.00  0.00    +0.000 C 
ENDBRANCH  20  22
ENDBRANCH  18  20
ENDBRANCH   1  18
BRANCH   5  23
ATOM     23  O   UNL     1      -5.644  12.339  16.640  0.00  0.00    +0.000 OA
ATOM     24  C   UNL     1      -6.828  12.618  17.382  0.00  0.00    +0.000 C 
ENDBRANCH   5  23
BRANCH   6  25
ATOM     25  O   UNL     1      -4.080  10.525  15.500  0.00  0.00    +0.000 OA
ATOM     26  C   UNL     1      -3.031  10.150  14.620  0.00  0.00    +0.000 C 
ENDBRANCH   6  25
TORSDOF 5
ENDMDL
MODEL 9
REMARK VINA RESULT:      -5.9      8.866     10.744
REMARK  Name = 
REMARK  10 active torsions:
REMARK  status: ('A' for Active; 'I' for Inactive)
REMARK    1  A    between atoms: C_1  and  C_2
REMARK    2  A    between atoms: C_2  and  O_3
REMARK    3  A    between atoms: O_3  and  C_4
REMARK    4  A    between atoms: C_4  and  C_6
REMARK    5  A    between atoms: C_10  and  O_11
REMARK    6  A    between atoms: O_11  and  C_12
REMARK    7  A    between atoms: C_13  and  O_14
REMARK    8  A    between atoms: O_14  and  C_15
REMARK    9  A    between atoms: C_19  and  C_20
REMARK   10  A    between atoms: C_19  and  C_21
REMARK                            x       y       z     vdW  Elec       q    Type
REMARK                         _______ _______ _______ _____ _____    ______ ____
ROOT
ATOM      1  C   UNL     1       9.684  15.529  18.578  0.00  0.00    +0.000 C 
ATOM      2  C   UNL     1       9.688  14.341  19.224  0.00  0.00    +0.000 C 
ATOM      3  C   UNL     1       8.913  13.906  20.412  0.00  0.00    +0.000 A 
ATOM      4  C   UNL     1       7.674  14.454  20.755  0.00  0.00    +0.000 A 
ATOM      5  C   UNL     1       6.957  14.017  21.877  0.00  0.00    +0.000 A 
ATOM      6  C   UNL     1       7.474  12.984  22.675  0.00  0.00    +0.000 A 
ATOM      7  C   UNL     1       8.681  12.384  22.306  0.00  0.00    +0.000 A 
ATOM      8  C   UNL     1       9.377  12.819  21.167  0.00  0.00    +0.000 A 
ATOM      9  C   UNL     1      10.631  12.100  20.732  0.00  0.00    +0.000 C 
ATOM     10  C   UNL     1      10.743  12.052  19.183  0.00  0.00    +0.000 C 
ATOM     11  C   UNL     1       9.678  11.110  18.584  0.00  0.00    +0.000 C 
ATOM     12  C   UNL     1      12.136  11.469  18.860  0.00  0.00    +0.000 C 
ATOM     13  N   UNL     1      10.564  13.420  18.647  0.00  0.00    +0.000 N 
ATOM     14  C   UNL     1      11.086  13.909  17.472  0.00  0.00    +0.000 C 
ATOM     15  O   UNL     1      11.789  13.392  16.633  0.00  0.00    +0.000 OA
ATOM     16  C   UNL     1      10.574  15.353  17.418  0.00  0.00    +0.000 C 
ATOM     17  O   UNL     1      10.894  16.170  16.585  0.00  0.00    +0.000 OA
ENDROOT
BRANCH   1  18
ATOM     18  C   UNL     1       8.999  16.778  18.916  0.00  0.00    +0.000 C 
ATOM     19  O   UNL     1       7.933  17.126  18.433  0.00  0.00    +0.000 OA
BRANCH  18  20
ATOM     20  O   UNL     1       9.722  17.502  19.804  0.00  0.00    +0.000 OA
BRANCH  20  22
ATOM     21  C   UNL     1       9.557  17.262  22.231  0.00  0.00    +0.000 C 
ATOM     22  C   UNL     1       9.018  17.935  20.980  0.00  0.00    +0.000 C 
ENDBRANCH  20  22
ENDBRANCH  18  20
ENDBRANCH   1  18
BRANCH   5  23
ATOM     23  O   UNL     1       5.757  14.568  22.262  0.00  0.00    +0.000 OA
ATOM     24  C   UNL     1       5.558  15.943  21.945  0.00  0.00    +0.000 C 
ENDBRANCH   5  23
BRANCH   6  25
ATOM     25  O   UNL     1       6.726  12.607  23.762  0.00  0.00    +0.000 OA
ATOM     26  C   UNL     1       7.219  11.541  24.560  0.00  0.00    +0.000 C 
ENDBRANCH   6  25
TORSDOF 5
ENDMDL
