MODEL 1
REMARK VINA RESULT:      -7.8      0.000      0.000
REMARK  Name = 
REMARK  3 active torsions:
REMARK  status: ('A' for Active; 'I' for Inactive)
REMARK    1  A    between atoms: C_2  and  C_3
REMARK    2  A    between atoms: C_9  and  C_10
REMARK    3  A    between atoms: C_10  and  C_12
REMARK                            x       y       z     vdW  Elec       q    Type
REMARK                         _______ _______ _______ _____ _____    ______ ____
ROOT
ATOM      1  C   UNL     1      -5.982  12.625  21.918  0.00  0.00    +0.000 A 
ATOM      2  C   UNL     1      -4.713  13.089  22.267  0.00  0.00    +0.000 A 
ATOM      3 CL   UNL     1      -4.364  13.532  23.918  0.00  0.00    +0.000 Cl
ATOM      4  C   UNL     1      -3.689  13.125  21.310  0.00  0.00    +0.000 A 
ATOM      5 CL   UNL     1      -2.370  14.242  21.554  0.00  0.00    +0.000 Cl
ATOM      6  C   UNL     1      -3.815  12.438  20.094  0.00  0.00    +0.000 A 
ATOM      7  C   UNL     1      -2.642  11.988  19.265  0.00  0.00    +0.000 A 
ATOM      8  C   UNL     1      -2.908  11.519  18.026  0.00  0.00    +0.000 A 
ATOM      9  N   UNL     1      -4.190  11.483  17.505  0.00  0.00    +0.000 N 
ATOM     10  C   UNL     1      -5.330  11.703  18.243  0.00  0.00    +0.000 A 
ATOM     11  N   UNL     1      -6.512  11.616  17.735  0.00  0.00    +0.000 NA
ATOM     12  C   UNL     1      -5.148  12.096  19.694  0.00  0.00    +0.000 A 
ATOM     13  C   UNL     1      -6.231  12.207  20.596  0.00  0.00    +0.000 A 
ATOM     14 CL   UNL     1      -7.879  11.832  20.192  0.00  0.00    +0.000 Cl
ATOM     15  C   UNL     1      -4.159  11.097  16.085  0.00  0.00    +0.000 C 
ATOM     16  C   UNL     1      -2.651  10.954  15.774  0.00  0.00    +0.000 C 
ATOM     17  N   UNL     1      -2.024  11.037  17.084  0.00  0.00    +0.000 N 
ATOM     18  H   UNL     1      -6.481  11.351  16.753  0.00  0.00    +0.000 HD
ATOM     19  H   UNL     1      -1.069  11.402  17.172  0.00  0.00    +0.000 HD
ENDROOT
BRANCH   1  21
ATOM     20  N   UNL     1      -7.861  12.599  23.714  0.00  0.00    +0.000 NA
ATOM     21  C   UNL     1      -7.031  12.610  22.907  0.00  0.00    +0.000 C 
ENDBRANCH   1  21
BRANCH   7  22
ATOM     22  C   UNL     1      -1.180  11.926  19.662  0.00  0.00    +0.000 C 
ATOM     23  O   UNL     1      -0.374  12.731  19.183  0.00  0.00    +0.000 OA
BRANCH  22  24
ATOM     24  C   UNL     1      -0.642  10.931  20.637  0.00  0.00    +0.000 A 
ATOM     25  C   UNL     1      -0.849  10.999  22.019  0.00  0.00    +0.000 A 
ATOM     26  C   UNL     1      -0.191  10.105  22.872  0.00  0.00    +0.000 A 
ATOM     27  C   UNL     1       0.622   9.097  22.350  0.00  0.00    +0.000 A 
ATOM     28  C   UNL     1       0.779   8.979  20.974  0.00  0.00    +0.000 A 
ATOM     29  C   UNL     1       0.158   9.892  20.122  0.00  0.00    +0.000 A 
ENDBRANCH  22  24
ENDBRANCH   7  22
TORSDOF 3
ENDMDL
MODEL 2
REMARK VINA RESULT:      -7.5      0.472      1.030
REMARK  Name = 
REMARK  3 active torsions:
REMARK  status: ('A' for Active; 'I' for Inactive)
REMARK    1  A    between atoms: C_2  and  C_3
REMARK    2  A    between atoms: C_9  and  C_10
REMARK    3  A    between atoms: C_10  and  C_12
REMARK                            x       y       z     vdW  Elec       q    Type
REMARK                         _______ _______ _______ _____ _____    ______ ____
ROOT
ATOM      1  C   UNL     1      -5.972  13.070  21.570  0.00  0.00    +0.000 A 
ATOM      2  C   UNL     1      -4.692  13.501  21.923  0.00  0.00    +0.000 A 
ATOM      3 CL   UNL     1      -4.377  14.088  23.536  0.00  0.00    +0.000 Cl
ATOM      4  C   UNL     1      -3.636  13.390  21.008  0.00  0.00    +0.000 A 
ATOM      5 CL   UNL     1      -2.267  14.457  21.195  0.00  0.00    +0.000 Cl
ATOM      6  C   UNL     1      -3.757  12.592  19.861  0.00  0.00    +0.000 A 
ATOM      7  C   UNL     1      -2.582  12.003  19.127  0.00  0.00    +0.000 A 
ATOM      8  C   UNL     1      -2.830  11.428  17.930  0.00  0.00    +0.000 A 
ATOM      9  N   UNL     1      -4.093  11.406  17.364  0.00  0.00    +0.000 N 
ATOM     10  C   UNL     1      -5.244  11.756  18.032  0.00  0.00    +0.000 A 
ATOM     11  N   UNL     1      -6.411  11.679  17.487  0.00  0.00    +0.000 NA
ATOM     12  C   UNL     1      -5.091  12.281  19.443  0.00  0.00    +0.000 A 
ATOM     13  C   UNL     1      -6.197  12.536  20.286  0.00  0.00    +0.000 A 
ATOM     14 CL   UNL     1      -7.848  12.207  19.855  0.00  0.00    +0.000 Cl
ATOM     15  C   UNL     1      -4.034  10.880  15.991  0.00  0.00    +0.000 C 
ATOM     16  C   UNL     1      -2.526  10.630  15.756  0.00  0.00    +0.000 C 
ATOM     17  N   UNL     1      -1.941  10.810  17.075  0.00  0.00    +0.000 N 
ATOM     18  H   UNL     1      -6.360  11.316  16.537  0.00  0.00    +0.000 HD
ATOM     19  H   UNL     1      -0.972  11.134  17.166  0.00  0.00    +0.000 HD
ENDROOT
BRANCH   1  21
ATOM     20  N   UNL     1      -7.917  13.333  23.275  0.00  0.00    +0.000 NA
ATOM     21  C   UNL     1      -7.054  13.206  22.513  0.00  0.00    +0.000 C 
ENDBRANCH   1  21
BRANCH   7  22
ATOM     22  C   UNL     1      -1.140  11.907  19.587  0.00  0.00    +0.000 C 
ATOM     23  O   UNL     1      -0.275  12.616  19.060  0.00  0.00    +0.000 OA
BRANCH  22  24
ATOM     24  C   UNL     1      -0.692  10.991  20.678  0.00  0.00    +0.000 A 
ATOM     25  C   UNL     1      -0.012   9.788  20.458  0.00  0.00    +0.000 A 
ATOM     26  C   UNL     1       0.245   8.922  21.528  0.00  0.00    +0.000 A 
ATOM     27  C   UNL     1      -0.113   9.280  22.830  0.00  0.00    +0.000 A 
ATOM     28  C   UNL     1      -0.726  10.504  23.066  0.00  0.00    +0.000 A 
ATOM     29  C   UNL     1      -1.021  11.353  21.999  0.00  0.00    +0.000 A 
ENDBRANCH  22  24
ENDBRANCH   7  22
TORSDOF 3
ENDMDL
MODEL 3
REMARK VINA RESULT:      -6.5      1.550      2.494
REMARK  Name = 
REMARK  3 active torsions:
REMARK  status: ('A' for Active; 'I' for Inactive)
REMARK    1  A    between atoms: C_2  and  C_3
REMARK    2  A    between atoms: C_9  and  C_10
REMARK    3  A    between atoms: C_10  and  C_12
REMARK                            x       y       z     vdW  Elec       q    Type
REMARK                         _______ _______ _______ _____ _____    ______ ____
ROOT
ATOM      1  C   UNL     1      -5.984  12.589  21.966  0.00  0.00    +0.000 A 
ATOM      2  C   UNL     1      -4.711  13.015  22.345  0.00  0.00    +0.000 A 
ATOM      3 CL   UNL     1      -4.378  13.412  24.012  0.00  0.00    +0.000 Cl
ATOM      4  C   UNL     1      -3.671  13.049  21.405  0.00  0.00    +0.000 A 
ATOM      5 CL   UNL     1      -2.331  14.129  21.696  0.00  0.00    +0.000 Cl
ATOM      6  C   UNL     1      -3.793  12.393  20.172  0.00  0.00    +0.000 A 
ATOM      7  C   UNL     1      -2.618  11.935  19.351  0.00  0.00    +0.000 A 
ATOM      8  C   UNL     1      -2.875  11.501  18.097  0.00  0.00    +0.000 A 
ATOM      9  N   UNL     1      -4.149  11.508  17.556  0.00  0.00    +0.000 N 
ATOM     10  C   UNL     1      -5.295  11.737  18.281  0.00  0.00    +0.000 A 
ATOM     11  N   UNL     1      -6.470  11.690  17.753  0.00  0.00    +0.000 NA
ATOM     12  C   UNL     1      -5.127  12.092  19.743  0.00  0.00    +0.000 A 
ATOM     13  C   UNL     1      -6.222  12.208  20.630  0.00  0.00    +0.000 A 
ATOM     14 CL   UNL     1      -7.871  11.881  20.192  0.00  0.00    +0.000 Cl
ATOM     15  C   UNL     1      -4.104  11.154  16.128  0.00  0.00    +0.000 C 
ATOM     16  C   UNL     1      -2.595  10.983  15.837  0.00  0.00    +0.000 C 
ATOM     17  N   UNL     1      -1.987  11.020  17.158  0.00  0.00    +0.000 N 
ATOM     18  H   UNL     1      -6.430  11.447  16.765  0.00  0.00    +0.000 HD
ATOM     19  H   UNL     1      -1.026  11.361  17.270  0.00  0.00    +0.000 HD
ENDROOT
BRANCH   1  21
ATOM     20  N   UNL     1      -7.917  12.560  23.705  0.00  0.00    +0.000 NA
ATOM     21  C   UNL     1      -7.050  12.576  22.938  0.00  0.00    +0.000 C 
ENDBRANCH   1  21
BRANCH   7  22
ATOM     22  C   UNL     1      -1.164  11.830  19.770  0.00  0.00    +0.000 C 
ATOM     23  O   UNL     1      -0.806  10.934  20.542  0.00  0.00    +0.000 OA
BRANCH  22  24
ATOM     24  C   UNL     1      -0.106  12.764  19.280  0.00  0.00    +0.000 A 
ATOM     25  C   UNL     1       1.220  12.386  19.042  0.00  0.00    +0.000 A 
ATOM     26  C   UNL     1       2.178  13.356  18.721  0.00  0.00    +0.000 A 
ATOM     27  C   UNL     1       1.809  14.694  18.569  0.00  0.00    +0.000 A 
ATOM     28  C   UNL     1       0.480  15.067  18.736  0.00  0.00    +0.000 A 
ATOM     29  C   UNL     1      -0.471  14.112  19.096  0.00  0.00    +0.000 A 
ENDBRANCH  22  24
ENDBRANCH   7  22
TORSDOF 3
ENDMDL
MODEL 4
REMARK VINA RESULT:      -6.5      3.224      6.609
REMARK  Name = 
REMARK  3 active torsions:
REMARK  status: ('A' for Active; 'I' for Inactive)
REMARK    1  A    between atoms: C_2  and  C_3
REMARK    2  A    between atoms: C_9  and  C_10
REMARK    3  A    between atoms: C_10  and  C_12
REMARK                            x       y       z     vdW  Elec       q    Type
REMARK                         _______ _______ _______ _____ _____    ______ ____
ROOT
ATOM      1  C   UNL     1      -1.007  10.767  18.390  0.00  0.00    +0.000 A 
ATOM      2  C   UNL     1      -2.165  10.662  17.618  0.00  0.00    +0.000 A 
ATOM      3 CL   UNL     1      -2.286   9.438  16.380  0.00  0.00    +0.000 Cl
ATOM      4  C   UNL     1      -3.267  11.487  17.886  0.00  0.00    +0.000 A 
ATOM      5 CL   UNL     1      -4.401  11.794  16.595  0.00  0.00    +0.000 Cl
ATOM      6  C   UNL     1      -3.353  12.206  19.087  0.00  0.00    +0.000 A 
ATOM      7  C   UNL     1      -4.651  12.675  19.687  0.00  0.00    +0.000 A 
ATOM      8  C   UNL     1      -4.573  13.526  20.734  0.00  0.00    +0.000 A 
ATOM      9  N   UNL     1      -3.365  13.992  21.223  0.00  0.00    +0.000 N 
ATOM     10  C   UNL     1      -2.138  13.488  20.859  0.00  0.00    +0.000 A 
ATOM     11  N   UNL     1      -1.034  13.916  21.370  0.00  0.00    +0.000 NA
ATOM     12  C   UNL     1      -2.122  12.418  19.789  0.00  0.00    +0.000 A 
ATOM     13  C   UNL     1      -0.948  11.716  19.430  0.00  0.00    +0.000 A 
ATOM     14 CL   UNL     1       0.590  11.922  20.213  0.00  0.00    +0.000 Cl
ATOM     15  C   UNL     1      -3.588  15.034  22.238  0.00  0.00    +0.000 C 
ATOM     16  C   UNL     1      -5.126  15.196  22.269  0.00  0.00    +0.000 C 
ATOM     17  N   UNL     1      -5.602  14.084  21.463  0.00  0.00    +0.000 N 
ATOM     18  H   UNL     1      -1.198  14.638  22.069  0.00  0.00    +0.000 HD
ATOM     19  H   UNL     1      -6.488  14.164  20.952  0.00  0.00    +0.000 HD
ENDROOT
BRANCH   1  21
ATOM     20  N   UNL     1       1.035   9.246  17.870  0.00  0.00    +0.000 NA
ATOM     21  C   UNL     1       0.126   9.927  18.092  0.00  0.00    +0.000 C 
ENDBRANCH   1  21
BRANCH   7  22
ATOM     22  C   UNL     1      -6.062  12.263  19.312  0.00  0.00    +0.000 C 
ATOM     23  O   UNL     1      -6.716  12.949  18.520  0.00  0.00    +0.000 OA
BRANCH  22  24
ATOM     24  C   UNL     1      -6.721  11.034  19.848  0.00  0.00    +0.000 A 
ATOM     25  C   UNL     1      -7.452  10.997  21.041  0.00  0.00    +0.000 A 
ATOM     26  C   UNL     1      -7.916   9.774  21.540  0.00  0.00    +0.000 A 
ATOM     27  C   UNL     1      -7.714   8.593  20.822  0.00  0.00    +0.000 A 
ATOM     28  C   UNL     1      -7.049   8.631  19.602  0.00  0.00    +0.000 A 
ATOM     29  C   UNL     1      -6.550   9.841  19.120  0.00  0.00    +0.000 A 
ENDBRANCH  22  24
ENDBRANCH   7  22
TORSDOF 3
ENDMDL
MODEL 5
REMARK VINA RESULT:      -6.5      3.597      5.639
REMARK  Name = 
REMARK  3 active torsions:
REMARK  status: ('A' for Active; 'I' for Inactive)
REMARK    1  A    between atoms: C_2  and  C_3
REMARK    2  A    between atoms: C_9  and  C_10
REMARK    3  A    between atoms: C_10  and  C_12
REMARK                            x       y       z     vdW  Elec       q    Type
REMARK                         _______ _______ _______ _____ _____    ______ ____
ROOT
ATOM      1  C   UNL     1      -1.502  14.062  23.427  0.00  0.00    +0.000 A 
ATOM      2  C   UNL     1      -1.748  12.716  23.149  0.00  0.00    +0.000 A 
ATOM      3 CL   UNL     1      -3.122  11.910  23.862  0.00  0.00    +0.000 Cl
ATOM      4  C   UNL     1      -0.938  12.028  22.235  0.00  0.00    +0.000 A 
ATOM      5 CL   UNL     1      -0.840  10.290  22.366  0.00  0.00    +0.000 Cl
ATOM      6  C   UNL     1      -0.077  12.720  21.371  0.00  0.00    +0.000 A 
ATOM      7  C   UNL     1       0.414  12.164  20.062  0.00  0.00    +0.000 A 
ATOM      8  C   UNL     1       1.393  12.850  19.431  0.00  0.00    +0.000 A 
ATOM      9  N   UNL     1       1.963  13.992  19.966  0.00  0.00    +0.000 N 
ATOM     10  C   UNL     1       1.463  14.666  21.056  0.00  0.00    +0.000 A 
ATOM     11  N   UNL     1       1.994  15.754  21.501  0.00  0.00    +0.000 NA
ATOM     12  C   UNL     1       0.268  14.056  21.757  0.00  0.00    +0.000 A 
ATOM     13  C   UNL     1      -0.428  14.719  22.794  0.00  0.00    +0.000 A 
ATOM     14 CL   UNL     1      -0.067  16.329  23.337  0.00  0.00    +0.000 Cl
ATOM     15  C   UNL     1       3.115  14.421  19.158  0.00  0.00    +0.000 C 
ATOM     16  C   UNL     1       3.222  13.335  18.061  0.00  0.00    +0.000 C 
ATOM     17  N   UNL     1       1.999  12.564  18.225  0.00  0.00    +0.000 N 
ATOM     18  H   UNL     1       2.791  16.042  20.937  0.00  0.00    +0.000 HD
ATOM     19  H   UNL     1       1.981  11.572  17.966  0.00  0.00    +0.000 HD
ENDROOT
BRANCH   1  21
ATOM     20  N   UNL     1      -3.007  15.314  25.137  0.00  0.00    +0.000 NA
ATOM     21  C   UNL     1      -2.330  14.754  24.383  0.00  0.00    +0.000 C 
ENDBRANCH   1  21
BRANCH   7  22
ATOM     22  C   UNL     1      -0.095  10.952  19.306  0.00  0.00    +0.000 C 
ATOM     23  O   UNL     1       0.568   9.909  19.291  0.00  0.00    +0.000 OA
BRANCH  22  24
ATOM     24  C   UNL     1      -1.394  10.938  18.568  0.00  0.00    +0.000 A 
ATOM     25  C   UNL     1      -2.492  11.737  18.904  0.00  0.00    +0.000 A 
ATOM     26  C   UNL     1      -3.716  11.558  18.249  0.00  0.00    +0.000 A 
ATOM     27  C   UNL     1      -3.835  10.631  17.211  0.00  0.00    +0.000 A 
ATOM     28  C   UNL     1      -2.730   9.881  16.824  0.00  0.00    +0.000 A 
ATOM     29  C   UNL     1      -1.519  10.027  17.501  0.00  0.00    +0.000 A 
ENDBRANCH  22  24
ENDBRANCH   7  22
TORSDOF 3
ENDMDL
MODEL 6
REMARK VINA RESULT:      -6.4      2.911      5.818
REMARK  Name = 
REMARK  3 active torsions:
REMARK  status: ('A' for Active; 'I' for Inactive)
REMARK    1  A    between atoms: C_2  and  C_3
REMARK    2  A    between atoms: C_9  and  C_10
REMARK    3  A    between atoms: C_10  and  C_12
REMARK                            x       y       z     vdW  Elec       q    Type
REMARK                         _______ _______ _______ _____ _____    ______ ____
ROOT
ATOM      1  C   UNL     1      -3.260  13.364  22.397  0.00  0.00    +0.000 A 
ATOM      2  C   UNL     1      -4.644  13.281  22.240  0.00  0.00    +0.000 A 
ATOM      3 CL   UNL     1      -5.706  14.027  23.407  0.00  0.00    +0.000 Cl
ATOM      4  C   UNL     1      -5.188  12.667  21.103  0.00  0.00    +0.000 A 
ATOM      5 CL   UNL     1      -6.806  12.022  21.207  0.00  0.00    +0.000 Cl
ATOM      6  C   UNL     1      -4.391  12.397  19.980  0.00  0.00    +0.000 A 
ATOM      7  C   UNL     1      -4.939  12.241  18.587  0.00  0.00    +0.000 A 
ATOM      8  C   UNL     1      -4.091  11.785  17.639  0.00  0.00    +0.000 A 
ATOM      9  N   UNL     1      -2.783  11.431  17.923  0.00  0.00    +0.000 N 
ATOM     10  C   UNL     1      -2.150  11.703  19.113  0.00  0.00    +0.000 A 
ATOM     11  N   UNL     1      -0.914  11.399  19.326  0.00  0.00    +0.000 NA
ATOM     12  C   UNL     1      -2.977  12.352  20.202  0.00  0.00    +0.000 A 
ATOM     13  C   UNL     1      -2.414  12.815  21.414  0.00  0.00    +0.000 A 
ATOM     14 CL   UNL     1      -0.714  12.783  21.775  0.00  0.00    +0.000 Cl
ATOM     15  C   UNL     1      -2.153  10.804  16.750  0.00  0.00    +0.000 C 
ATOM     16  C   UNL     1      -3.288  10.762  15.699  0.00  0.00    +0.000 C 
ATOM     17  N   UNL     1      -4.338  11.570  16.300  0.00  0.00    +0.000 N 
ATOM     18  H   UNL     1      -0.488  10.965  18.510  0.00  0.00    +0.000 HD
ATOM     19  H   UNL     1      -5.320  11.382  16.074  0.00  0.00    +0.000 HD
ENDROOT
BRANCH   1  21
ATOM     20  N   UNL     1      -2.271  14.492  24.520  0.00  0.00    +0.000 NA
ATOM     21  C   UNL     1      -2.714  13.981  23.581  0.00  0.00    +0.000 C 
ENDBRANCH   1  21
BRANCH   7  22
ATOM     22  C   UNL     1      -6.323  12.595  18.077  0.00  0.00    +0.000 C 
ATOM     23  O   UNL     1      -7.141  11.701  17.836  0.00  0.00    +0.000 OA
BRANCH  22  24
ATOM     24  C   UNL     1      -6.774  14.002  17.855  0.00  0.00    +0.000 A 
ATOM     25  C   UNL     1      -7.134  14.879  18.885  0.00  0.00    +0.000 A 
ATOM     26  C   UNL     1      -7.680  16.132  18.580  0.00  0.00    +0.000 A 
ATOM     27  C   UNL     1      -7.807  16.544  17.252  0.00  0.00    +0.000 A 
ATOM     28  C   UNL     1      -7.388  15.707  16.225  0.00  0.00    +0.000 A 
ATOM     29  C   UNL     1      -6.881  14.442  16.522  0.00  0.00    +0.000 A 
ENDBRANCH  22  24
ENDBRANCH   7  22
TORSDOF 3
ENDMDL
MODEL 7
REMARK VINA RESULT:      -6.3      7.316     10.276
REMARK  Name = 
REMARK  3 active torsions:
REMARK  status: ('A' for Active; 'I' for Inactive)
REMARK    1  A    between atoms: C_2  and  C_3
REMARK    2  A    between atoms: C_9  and  C_10
REMARK    3  A    between atoms: C_10  and  C_12
REMARK                            x       y       z     vdW  Elec       q    Type
REMARK                         _______ _______ _______ _____ _____    ______ ____
ROOT
ATOM      1  C   UNL     1       1.708   8.519  19.354  0.00  0.00    +0.000 A 
ATOM      2  C   UNL     1       2.603   8.612  18.288  0.00  0.00    +0.000 A 
ATOM      3 CL   UNL     1       2.886  10.149  17.511  0.00  0.00    +0.000 Cl
ATOM      4  C   UNL     1       3.339   7.487  17.887  0.00  0.00    +0.000 A 
ATOM      5 CL   UNL     1       3.935   7.433  16.247  0.00  0.00    +0.000 Cl
ATOM      6  C   UNL     1       3.424   6.352  18.706  0.00  0.00    +0.000 A 
ATOM      7  C   UNL     1       4.548   5.354  18.634  0.00  0.00    +0.000 A 
ATOM      8  C   UNL     1       4.401   4.210  19.337  0.00  0.00    +0.000 A 
ATOM      9  N   UNL     1       3.257   3.927  20.064  0.00  0.00    +0.000 N 
ATOM     10  C   UNL     1       2.266   4.842  20.330  0.00  0.00    +0.000 A 
ATOM     11  N   UNL     1       1.235   4.557  21.050  0.00  0.00    +0.000 NA
ATOM     12  C   UNL     1       2.407   6.214  19.705  0.00  0.00    +0.000 A 
ATOM     13  C   UNL     1       1.539   7.286  20.015  0.00  0.00    +0.000 A 
ATOM     14 CL   UNL     1       0.268   7.202  21.198  0.00  0.00    +0.000 Cl
ATOM     15  C   UNL     1       3.299   2.548  20.574  0.00  0.00    +0.000 C 
ATOM     16  C   UNL     1       4.621   1.982  20.004  0.00  0.00    +0.000 C 
ATOM     17  N   UNL     1       5.281   3.154  19.449  0.00  0.00    +0.000 N 
ATOM     18  H   UNL     1       1.271   3.601  21.398  0.00  0.00    +0.000 HD
ATOM     19  H   UNL     1       5.924   3.052  18.656  0.00  0.00    +0.000 HD
ENDROOT
BRANCH   1  21
ATOM     20  N   UNL     1       0.327  10.599  20.076  0.00  0.00    +0.000 NA
ATOM     21  C   UNL     1       0.943   9.678  19.745  0.00  0.00    +0.000 C 
ENDBRANCH   1  21
BRANCH   7  22
ATOM     22  C   UNL     1       5.880   5.490  17.920  0.00  0.00    +0.000 C 
ATOM     23  O   UNL     1       6.844   6.001  18.500  0.00  0.00    +0.000 OA
BRANCH  22  24
ATOM     24  C   UNL     1       6.105   5.017  16.521  0.00  0.00    +0.000 A 
ATOM     25  C   UNL     1       7.205   5.385  15.739  0.00  0.00    +0.000 A 
ATOM     26  C   UNL     1       7.265   5.010  14.391  0.00  0.00    +0.000 A 
ATOM     27  C   UNL     1       6.265   4.210  13.834  0.00  0.00    +0.000 A 
ATOM     28  C   UNL     1       5.203   3.783  14.622  0.00  0.00    +0.000 A 
ATOM     29  C   UNL     1       5.118   4.187  15.954  0.00  0.00    +0.000 A 
ENDBRANCH  22  24
ENDBRANCH   7  22
TORSDOF 3
ENDMDL
MODEL 8
REMARK VINA RESULT:      -6.2      1.700      2.356
REMARK  Name = 
REMARK  3 active torsions:
REMARK  status: ('A' for Active; 'I' for Inactive)
REMARK    1  A    between atoms: C_2  and  C_3
REMARK    2  A    between atoms: C_9  and  C_10
REMARK    3  A    between atoms: C_10  and  C_12
REMARK                            x       y       z     vdW  Elec       q    Type
REMARK                         _______ _______ _______ _____ _____    ______ ____
ROOT
ATOM      1  C   UNL     1      -5.336  12.893  22.201  0.00  0.00    +0.000 A 
ATOM      2  C   UNL     1      -3.997  13.164  22.487  0.00  0.00    +0.000 A 
ATOM      3 CL   UNL     1      -3.504  13.516  24.124  0.00  0.00    +0.000 Cl
ATOM      4  C   UNL     1      -3.030  13.077  21.476  0.00  0.00    +0.000 A 
ATOM      5 CL   UNL     1      -1.554  13.990  21.666  0.00  0.00    +0.000 Cl
ATOM      6  C   UNL     1      -3.316  12.443  20.258  0.00  0.00    +0.000 A 
ATOM      7  C   UNL     1      -2.264  11.851  19.359  0.00  0.00    +0.000 A 
ATOM      8  C   UNL     1      -2.658  11.453  18.130  0.00  0.00    +0.000 A 
ATOM      9  N   UNL     1      -3.958  11.612  17.680  0.00  0.00    +0.000 N 
ATOM     10  C   UNL     1      -5.014  11.974  18.482  0.00  0.00    +0.000 A 
ATOM     11  N   UNL     1      -6.221  12.067  18.038  0.00  0.00    +0.000 NA
ATOM     12  C   UNL     1      -4.703  12.303  19.926  0.00  0.00    +0.000 A 
ATOM     13  C   UNL     1      -5.711  12.546  20.888  0.00  0.00    +0.000 A 
ATOM     14 CL   UNL     1      -7.414  12.418  20.569  0.00  0.00    +0.000 Cl
ATOM     15  C   UNL     1      -4.056  11.258  16.255  0.00  0.00    +0.000 C 
ATOM     16  C   UNL     1      -2.601  10.910  15.859  0.00  0.00    +0.000 C 
ATOM     17  N   UNL     1      -1.902  10.872  17.134  0.00  0.00    +0.000 N 
ATOM     18  H   UNL     1      -6.279  11.823  17.051  0.00  0.00    +0.000 HD
ATOM     19  H   UNL     1      -0.902  11.096  17.175  0.00  0.00    +0.000 HD
ENDROOT
BRANCH   1  21
ATOM     20  N   UNL     1      -7.130  13.088  24.072  0.00  0.00    +0.000 NA
ATOM     21  C   UNL     1      -6.324  13.004  23.246  0.00  0.00    +0.000 C 
ENDBRANCH   1  21
BRANCH   7  22
ATOM     22  C   UNL     1      -0.806  11.573  19.676  0.00  0.00    +0.000 C 
ATOM     23  O   UNL     1      -0.455  10.443  20.031  0.00  0.00    +0.000 OA
BRANCH  22  24
ATOM     24  C   UNL     1       0.262  12.611  19.568  0.00  0.00    +0.000 A 
ATOM     25  C   UNL     1       0.258  13.641  18.621  0.00  0.00    +0.000 A 
ATOM     26  C   UNL     1       1.369  14.485  18.498  0.00  0.00    +0.000 A 
ATOM     27  C   UNL     1       2.459  14.351  19.361  0.00  0.00    +0.000 A 
ATOM     28  C   UNL     1       2.441  13.374  20.350  0.00  0.00    +0.000 A 
ATOM     29  C   UNL     1       1.355  12.505  20.450  0.00  0.00    +0.000 A 
ENDBRANCH  22  24
ENDBRANCH   7  22
TORSDOF 3
ENDMDL
MODEL 9
REMARK VINA RESULT:      -6.2      2.531      3.778
REMARK  Name = 
REMARK  3 active torsions:
REMARK  status: ('A' for Active; 'I' for Inactive)
REMARK    1  A    between atoms: C_2  and  C_3
REMARK    2  A    between atoms: C_9  and  C_10
REMARK    3  A    between atoms: C_10  and  C_12
REMARK                            x       y       z     vdW  Elec       q    Type
REMARK                         _______ _______ _______ _____ _____    ______ ____
ROOT
ATOM      1  C   UNL     1      -1.679  14.321  22.729  0.00  0.00    +0.000 A 
ATOM      2  C   UNL     1      -0.784  14.138  21.674  0.00  0.00    +0.000 A 
ATOM      3 CL   UNL     1       0.922  14.412  21.913  0.00  0.00    +0.000 Cl
ATOM      4  C   UNL     1      -1.242  13.656  20.439  0.00  0.00    +0.000 A 
ATOM      5 CL   UNL     1      -0.304  14.021  19.013  0.00  0.00    +0.000 Cl
ATOM      6  C   UNL     1      -2.512  13.075  20.319  0.00  0.00    +0.000 A 
ATOM      7  C   UNL     1      -2.883  12.098  19.236  0.00  0.00    +0.000 A 
ATOM      8  C   UNL     1      -4.190  11.775  19.120  0.00  0.00    +0.000 A 
ATOM      9  N   UNL     1      -5.167  12.336  19.923  0.00  0.00    +0.000 N 
ATOM     10  C   UNL     1      -4.907  13.092  21.042  0.00  0.00    +0.000 A 
ATOM     11  N   UNL     1      -5.844  13.561  21.795  0.00  0.00    +0.000 NA
ATOM     12  C   UNL     1      -3.456  13.394  21.349  0.00  0.00    +0.000 A 
ATOM     13  C   UNL     1      -3.045  14.033  22.542  0.00  0.00    +0.000 A 
ATOM     14 CL   UNL     1      -4.122  14.472  23.833  0.00  0.00    +0.000 Cl
ATOM     15  C   UNL     1      -6.506  11.939  19.459  0.00  0.00    +0.000 C 
ATOM     16  C   UNL     1      -6.223  11.089  18.198  0.00  0.00    +0.000 C 
ATOM     17  N   UNL     1      -4.781  10.903  18.229  0.00  0.00    +0.000 N 
ATOM     18  H   UNL     1      -6.766  13.283  21.465  0.00  0.00    +0.000 HD
ATOM     19  H   UNL     1      -4.262  10.775  17.354  0.00  0.00    +0.000 HD
ENDROOT
BRANCH   1  21
ATOM     20  N   UNL     1      -0.832  15.251  25.004  0.00  0.00    +0.000 NA
ATOM     21  C   UNL     1      -1.199  14.835  23.989  0.00  0.00    +0.000 C 
ENDBRANCH   1  21
BRANCH   7  22
ATOM     22  C   UNL     1      -1.963  11.362  18.280  0.00  0.00    +0.000 C 
ATOM     23  O   UNL     1      -2.111  11.489  17.059  0.00  0.00    +0.000 OA
BRANCH  22  24
ATOM     24  C   UNL     1      -0.850  10.479  18.738  0.00  0.00    +0.000 A 
ATOM     25  C   UNL     1      -0.645  10.109  20.072  0.00  0.00    +0.000 A 
ATOM     26  C   UNL     1       0.504   9.394  20.433  0.00  0.00    +0.000 A 
ATOM     27  C   UNL     1       1.419   8.987  19.460  0.00  0.00    +0.000 A 
ATOM     28  C   UNL     1       1.188   9.291  18.123  0.00  0.00    +0.000 A 
ATOM     29  C   UNL     1       0.066  10.037  17.763  0.00  0.00    +0.000 A 
ENDBRANCH  22  24
ENDBRANCH   7  22
TORSDOF 3
ENDMDL
