MODEL 1
REMARK VINA RESULT:     -10.3      0.000      0.000
REMARK  Name = 
REMARK  1 active torsions:
REMARK  status: ('A' for Active; 'I' for Inactive)
REMARK    1  A    between atoms: C_4  and  C_5
REMARK                            x       y       z     vdW  Elec       q    Type
REMARK                         _______ _______ _______ _____ _____    ______ ____
ROOT
ATOM      1  C   UNL     1       2.980   6.520  19.035  0.00  0.00    +0.000 A 
ATOM      2  C   UNL     1       4.033   6.443  18.179  0.00  0.00    +0.000 A 
ATOM      3  N   UNL     1       4.312   7.048  16.960  0.00  0.00    +0.000 NA
ATOM      4  C   UNL     1       5.290   6.277  16.541  0.00  0.00    +0.000 A 
ATOM      5  C   UNL     1       5.420   5.569  15.207  0.00  0.00    +0.000 A 
ATOM      6  C   UNL     1       6.280   4.533  15.117  0.00  0.00    +0.000 A 
ATOM      7  C   UNL     1       7.308   4.284  16.110  0.00  0.00    +0.000 A 
ATOM      8  C   UNL     1       7.168   4.782  17.333  0.00  0.00    +0.000 A 
ATOM      9  C   UNL     1       5.997   5.559  17.657  0.00  0.00    +0.000 A 
ATOM     10  C   UNL     1       4.822   5.213  18.161  0.00  0.00    +0.000 A 
ATOM     11  N   UNL     1       4.039   4.084  17.889  0.00  0.00    +0.000 N 
ATOM     12  C   UNL     1       2.736   4.159  18.458  0.00  0.00    +0.000 A 
ATOM     13  C   UNL     1       1.730   3.256  18.174  0.00  0.00    +0.000 A 
ATOM     14  C   UNL     1       0.761   3.046  19.145  0.00  0.00    +0.000 A 
ATOM     15  C   UNL     1       0.899   3.659  20.396  0.00  0.00    +0.000 A 
ATOM     16  C   UNL     1       1.783   4.731  20.557  0.00  0.00    +0.000 A 
ATOM     17  C   UNL     1       2.559   5.114  19.476  0.00  0.00    +0.000 A 
ATOM     18  H   UNL     1       3.961   3.923  16.883  0.00  0.00    +0.000 HD
ENDROOT
BRANCH   1  22
ATOM     19  C   UNL     1       0.337   9.893  19.391  0.00  0.00    +0.000 A 
ATOM     20  C   UNL     1       0.706   9.188  20.531  0.00  0.00    +0.000 A 
ATOM     21  C   UNL     1       1.624   8.138  20.444  0.00  0.00    +0.000 A 
ATOM     22  C   UNL     1       2.166   7.751  19.210  0.00  0.00    +0.000 A 
ATOM     23  C   UNL     1       1.844   8.535  18.091  0.00  0.00    +0.000 A 
ATOM     24  C   UNL     1       0.934   9.590  18.175  0.00  0.00    +0.000 A 
ENDBRANCH   1  22
TORSDOF 1
ENDMDL
MODEL 2
REMARK VINA RESULT:     -10.2      0.163      1.013
REMARK  Name = 
REMARK  1 active torsions:
REMARK  status: ('A' for Active; 'I' for Inactive)
REMARK    1  A    between atoms: C_4  and  C_5
REMARK                            x       y       z     vdW  Elec       q    Type
REMARK                         _______ _______ _______ _____ _____    ______ ____
ROOT
ATOM      1  C   UNL     1       2.948   6.482  19.020  0.00  0.00    +0.000 A 
ATOM      2  C   UNL     1       4.015   6.424  18.181  0.00  0.00    +0.000 A 
ATOM      3  N   UNL     1       4.290   7.015  16.954  0.00  0.00    +0.000 NA
ATOM      4  C   UNL     1       5.300   6.270  16.563  0.00  0.00    +0.000 A 
ATOM      5  C   UNL     1       5.473   5.543  15.245  0.00  0.00    +0.000 A 
ATOM      6  C   UNL     1       6.368   4.535  15.186  0.00  0.00    +0.000 A 
ATOM      7  C   UNL     1       7.390   4.339  16.198  0.00  0.00    +0.000 A 
ATOM      8  C   UNL     1       7.215   4.856  17.409  0.00  0.00    +0.000 A 
ATOM      9  C   UNL     1       6.014   5.598  17.702  0.00  0.00    +0.000 A 
ATOM     10  C   UNL     1       4.845   5.222  18.197  0.00  0.00    +0.000 A 
ATOM     11  N   UNL     1       4.105   4.062  17.936  0.00  0.00    +0.000 N 
ATOM     12  C   UNL     1       2.792   4.103  18.485  0.00  0.00    +0.000 A 
ATOM     13  C   UNL     1       1.820   3.161  18.206  0.00  0.00    +0.000 A 
ATOM     14  C   UNL     1       0.846   2.936  19.168  0.00  0.00    +0.000 A 
ATOM     15  C   UNL     1       0.946   3.577  20.408  0.00  0.00    +0.000 A 
ATOM     16  C   UNL     1       1.790   4.681  20.561  0.00  0.00    +0.000 A 
ATOM     17  C   UNL     1       2.568   5.071  19.483  0.00  0.00    +0.000 A 
ATOM     18  H   UNL     1       4.047   3.880  16.933  0.00  0.00    +0.000 HD
ENDROOT
BRANCH   1  22
ATOM     19  C   UNL     1       0.764  10.143  19.582  0.00  0.00    +0.000 A 
ATOM     20  C   UNL     1       1.152   9.766  18.301  0.00  0.00    +0.000 A 
ATOM     21  C   UNL     1       1.795   8.543  18.090  0.00  0.00    +0.000 A 
ATOM     22  C   UNL     1       2.090   7.687  19.162  0.00  0.00    +0.000 A 
ATOM     23  C   UNL     1       1.611   8.052  20.429  0.00  0.00    +0.000 A 
ATOM     24  C   UNL     1       0.961   9.269  20.642  0.00  0.00    +0.000 A 
ENDBRANCH   1  22
TORSDOF 1
ENDMDL
MODEL 3
REMARK VINA RESULT:      -7.9      1.516      4.572
REMARK  Name = 
REMARK  1 active torsions:
REMARK  status: ('A' for Active; 'I' for Inactive)
REMARK    1  A    between atoms: C_4  and  C_5
REMARK                            x       y       z     vdW  Elec       q    Type
REMARK                         _______ _______ _______ _____ _____    ______ ____
ROOT
ATOM      1  C   UNL     1       2.619   6.818  18.581  0.00  0.00    +0.000 A 
ATOM      2  C   UNL     1       2.066   5.763  19.235  0.00  0.00    +0.000 A 
ATOM      3  N   UNL     1       1.517   5.614  20.503  0.00  0.00    +0.000 NA
ATOM      4  C   UNL     1       1.510   4.303  20.595  0.00  0.00    +0.000 A 
ATOM      5  C   UNL     1       2.067   3.439  21.709  0.00  0.00    +0.000 A 
ATOM      6  C   UNL     1       2.313   2.139  21.444  0.00  0.00    +0.000 A 
ATOM      7  C   UNL     1       1.770   1.463  20.281  0.00  0.00    +0.000 A 
ATOM      8  C   UNL     1       1.388   2.180  19.230  0.00  0.00    +0.000 A 
ATOM      9  C   UNL     1       1.521   3.616  19.259  0.00  0.00    +0.000 A 
ATOM     10  C   UNL     1       2.501   4.417  18.869  0.00  0.00    +0.000 A 
ATOM     11  N   UNL     1       3.885   4.252  19.000  0.00  0.00    +0.000 N 
ATOM     12  C   UNL     1       4.621   5.422  18.659  0.00  0.00    +0.000 A 
ATOM     13  C   UNL     1       5.978   5.560  18.884  0.00  0.00    +0.000 A 
ATOM     14  C   UNL     1       6.687   6.405  18.043  0.00  0.00    +0.000 A 
ATOM     15  C   UNL     1       6.036   6.989  16.950  0.00  0.00    +0.000 A 
ATOM     16  C   UNL     1       4.639   7.016  16.898  0.00  0.00    +0.000 A 
ATOM     17  C   UNL     1       3.929   6.392  17.911  0.00  0.00    +0.000 A 
ATOM     18  H   UNL     1       4.134   3.959  19.947  0.00  0.00    +0.000 HD
ENDROOT
BRANCH   1  22
ATOM     19  C   UNL     1       1.078  10.812  18.987  0.00  0.00    +0.000 A 
ATOM     20  C   UNL     1       0.978   9.927  20.055  0.00  0.00    +0.000 A 
ATOM     21  C   UNL     1       1.541   8.651  19.968  0.00  0.00    +0.000 A 
ATOM     22  C   UNL     1       2.188   8.224  18.799  0.00  0.00    +0.000 A 
ATOM     23  C   UNL     1       2.350   9.166  17.772  0.00  0.00    +0.000 A 
ATOM     24  C   UNL     1       1.797  10.445  17.858  0.00  0.00    +0.000 A 
ENDBRANCH   1  22
TORSDOF 1
ENDMDL
MODEL 4
REMARK VINA RESULT:      -7.9      1.928      4.360
REMARK  Name = 
REMARK  1 active torsions:
REMARK  status: ('A' for Active; 'I' for Inactive)
REMARK    1  A    between atoms: C_4  and  C_5
REMARK                            x       y       z     vdW  Elec       q    Type
REMARK                         _______ _______ _______ _____ _____    ______ ____
ROOT
ATOM      1  C   UNL     1       3.744   6.240  18.255  0.00  0.00    +0.000 A 
ATOM      2  C   UNL     1       3.440   4.979  18.660  0.00  0.00    +0.000 A 
ATOM      3  N   UNL     1       2.817   4.470  19.793  0.00  0.00    +0.000 NA
ATOM      4  C   UNL     1       3.166   3.207  19.697  0.00  0.00    +0.000 A 
ATOM      5  C   UNL     1       3.815   2.331  20.750  0.00  0.00    +0.000 A 
ATOM      6  C   UNL     1       4.443   1.207  20.346  0.00  0.00    +0.000 A 
ATOM      7  C   UNL     1       4.243   0.633  19.029  0.00  0.00    +0.000 A 
ATOM      8  C   UNL     1       3.795   1.402  18.043  0.00  0.00    +0.000 A 
ATOM      9  C   UNL     1       3.518   2.795  18.295  0.00  0.00    +0.000 A 
ATOM     10  C   UNL     1       4.272   3.878  18.179  0.00  0.00    +0.000 A 
ATOM     11  N   UNL     1       5.623   4.055  18.499  0.00  0.00    +0.000 N 
ATOM     12  C   UNL     1       6.036   5.416  18.445  0.00  0.00    +0.000 A 
ATOM     13  C   UNL     1       7.266   5.856  18.895  0.00  0.00    +0.000 A 
ATOM     14  C   UNL     1       7.799   6.992  18.302  0.00  0.00    +0.000 A 
ATOM     15  C   UNL     1       7.137   7.573  17.215  0.00  0.00    +0.000 A 
ATOM     16  C   UNL     1       5.803   7.248  16.951  0.00  0.00    +0.000 A 
ATOM     17  C   UNL     1       5.188   6.292  17.743  0.00  0.00    +0.000 A 
ATOM     18  H   UNL     1       5.837   3.672  19.422  0.00  0.00    +0.000 HD
ENDROOT
BRANCH   1  22
ATOM     19  C   UNL     1       1.074   9.516  19.045  0.00  0.00    +0.000 A 
ATOM     20  C   UNL     1       1.349   8.599  20.052  0.00  0.00    +0.000 A 
ATOM     21  C   UNL     1       2.273   7.572  19.838  0.00  0.00    +0.000 A 
ATOM     22  C   UNL     1       2.916   7.425  18.600  0.00  0.00    +0.000 A 
ATOM     23  C   UNL     1       2.685   8.415  17.632  0.00  0.00    +0.000 A 
ATOM     24  C   UNL     1       1.769   9.446  17.845  0.00  0.00    +0.000 A 
ENDBRANCH   1  22
TORSDOF 1
ENDMDL
MODEL 5
REMARK VINA RESULT:      -7.8      3.935      8.659
REMARK  Name = 
REMARK  1 active torsions:
REMARK  status: ('A' for Active; 'I' for Inactive)
REMARK    1  A    between atoms: C_4  and  C_5
REMARK                            x       y       z     vdW  Elec       q    Type
REMARK                         _______ _______ _______ _____ _____    ______ ____
ROOT
ATOM      1  C   UNL     1      -0.005  10.325  19.068  0.00  0.00    +0.000 A 
ATOM      2  C   UNL     1      -1.171  10.198  18.382  0.00  0.00    +0.000 A 
ATOM      3  N   UNL     1      -1.495   9.627  17.158  0.00  0.00    +0.000 NA
ATOM      4  C   UNL     1      -2.681  10.160  16.964  0.00  0.00    +0.000 A 
ATOM      5  C   UNL     1      -3.186  10.903  15.743  0.00  0.00    +0.000 A 
ATOM      6  C   UNL     1      -4.266  11.699  15.884  0.00  0.00    +0.000 A 
ATOM      7  C   UNL     1      -5.149  11.620  17.033  0.00  0.00    +0.000 A 
ATOM      8  C   UNL     1      -4.701  11.090  18.165  0.00  0.00    +0.000 A 
ATOM      9  C   UNL     1      -3.344  10.605  18.237  0.00  0.00    +0.000 A 
ATOM     10  C   UNL     1      -2.217  11.195  18.604  0.00  0.00    +0.000 A 
ATOM     11  N   UNL     1      -1.773  12.497  18.345  0.00  0.00    +0.000 N 
ATOM     12  C   UNL     1      -0.413  12.707  18.713  0.00  0.00    +0.000 A 
ATOM     13  C   UNL     1       0.296  13.847  18.386  0.00  0.00    +0.000 A 
ATOM     14  C   UNL     1       1.333  14.223  19.228  0.00  0.00    +0.000 A 
ATOM     15  C   UNL     1       1.545  13.512  20.414  0.00  0.00    +0.000 A 
ATOM     16  C   UNL     1       0.974  12.247  20.586  0.00  0.00    +0.000 A 
ATOM     17  C   UNL     1       0.143  11.758  19.590  0.00  0.00    +0.000 A 
ATOM     18  H   UNL     1      -1.898  12.740  17.360  0.00  0.00    +0.000 HD
ENDROOT
BRANCH   1  22
ATOM     19  C   UNL     1       2.900   7.166  18.803  0.00  0.00    +0.000 A 
ATOM     20  C   UNL     1       2.789   8.084  17.764  0.00  0.00    +0.000 A 
ATOM     21  C   UNL     1       1.905   9.161  17.867  0.00  0.00    +0.000 A 
ATOM     22  C   UNL     1       1.091   9.323  18.998  0.00  0.00    +0.000 A 
ATOM     23  C   UNL     1       1.286   8.433  20.065  0.00  0.00    +0.000 A 
ATOM     24  C   UNL     1       2.174   7.360  19.970  0.00  0.00    +0.000 A 
ENDBRANCH   1  22
TORSDOF 1
ENDMDL
MODEL 6
REMARK VINA RESULT:      -7.7      1.033      1.140
REMARK  Name = 
REMARK  1 active torsions:
REMARK  status: ('A' for Active; 'I' for Inactive)
REMARK    1  A    between atoms: C_4  and  C_5
REMARK                            x       y       z     vdW  Elec       q    Type
REMARK                         _______ _______ _______ _____ _____    ______ ____
ROOT
ATOM      1  C   UNL     1       3.016   7.208  18.385  0.00  0.00    +0.000 A 
ATOM      2  C   UNL     1       4.074   6.933  17.577  0.00  0.00    +0.000 A 
ATOM      3  N   UNL     1       4.326   7.165  16.231  0.00  0.00    +0.000 NA
ATOM      4  C   UNL     1       5.342   6.354  16.045  0.00  0.00    +0.000 A 
ATOM      5  C   UNL     1       5.511   5.292  14.976  0.00  0.00    +0.000 A 
ATOM      6  C   UNL     1       6.422   4.318  15.184  0.00  0.00    +0.000 A 
ATOM      7  C   UNL     1       7.458   4.422  16.195  0.00  0.00    +0.000 A 
ATOM      8  C   UNL     1       7.289   5.250  17.219  0.00  0.00    +0.000 A 
ATOM      9  C   UNL     1       6.080   6.030  17.314  0.00  0.00    +0.000 A 
ATOM     10  C   UNL     1       4.923   5.791  17.911  0.00  0.00    +0.000 A 
ATOM     11  N   UNL     1       4.198   4.596  17.993  0.00  0.00    +0.000 N 
ATOM     12  C   UNL     1       2.891   4.772  18.529  0.00  0.00    +0.000 A 
ATOM     13  C   UNL     1       1.931   3.778  18.536  0.00  0.00    +0.000 A 
ATOM     14  C   UNL     1       0.972   3.816  19.537  0.00  0.00    +0.000 A 
ATOM     15  C   UNL     1       1.076   4.776  20.551  0.00  0.00    +0.000 A 
ATOM     16  C   UNL     1       1.904   5.889  20.380  0.00  0.00    +0.000 A 
ATOM     17  C   UNL     1       2.664   5.975  19.224  0.00  0.00    +0.000 A 
ATOM     18  H   UNL     1       4.131   4.143  17.080  0.00  0.00    +0.000 HD
ENDROOT
BRANCH   1  22
ATOM     19  C   UNL     1       0.323  10.553  18.180  0.00  0.00    +0.000 A 
ATOM     20  C   UNL     1       1.666  10.772  18.463  0.00  0.00    +0.000 A 
ATOM     21  C   UNL     1       2.570   9.705  18.457  0.00  0.00    +0.000 A 
ATOM     22  C   UNL     1       2.141   8.395  18.201  0.00  0.00    +0.000 A 
ATOM     23  C   UNL     1       0.799   8.217  17.834  0.00  0.00    +0.000 A 
ATOM     24  C   UNL     1      -0.106   9.280  17.829  0.00  0.00    +0.000 A 
ENDBRANCH   1  22
TORSDOF 1
ENDMDL
MODEL 7
REMARK VINA RESULT:      -7.7      2.993      6.521
REMARK  Name = 
REMARK  1 active torsions:
REMARK  status: ('A' for Active; 'I' for Inactive)
REMARK    1  A    between atoms: C_4  and  C_5
REMARK                            x       y       z     vdW  Elec       q    Type
REMARK                         _______ _______ _______ _____ _____    ______ ____
ROOT
ATOM      1  C   UNL     1       5.654   3.808  16.414  0.00  0.00    +0.000 A 
ATOM      2  C   UNL     1       4.400   3.454  16.801  0.00  0.00    +0.000 A 
ATOM      3  N   UNL     1       3.134   3.771  16.325  0.00  0.00    +0.000 NA
ATOM      4  C   UNL     1       2.403   3.390  17.348  0.00  0.00    +0.000 A 
ATOM      5  C   UNL     1       1.346   4.182  18.091  0.00  0.00    +0.000 A 
ATOM      6  C   UNL     1       0.996   3.773  19.329  0.00  0.00    +0.000 A 
ATOM      7  C   UNL     1       1.325   2.453  19.836  0.00  0.00    +0.000 A 
ATOM      8  C   UNL     1       2.330   1.778  19.292  0.00  0.00    +0.000 A 
ATOM      9  C   UNL     1       3.083   2.365  18.212  0.00  0.00    +0.000 A 
ATOM     10  C   UNL     1       4.181   3.105  18.203  0.00  0.00    +0.000 A 
ATOM     11  N   UNL     1       4.562   4.135  19.072  0.00  0.00    +0.000 N 
ATOM     12  C   UNL     1       5.709   4.849  18.623  0.00  0.00    +0.000 A 
ATOM     13  C   UNL     1       6.159   6.014  19.213  0.00  0.00    +0.000 A 
ATOM     14  C   UNL     1       7.513   6.300  19.123  0.00  0.00    +0.000 A 
ATOM     15  C   UNL     1       8.376   5.360  18.547  0.00  0.00    +0.000 A 
ATOM     16  C   UNL     1       7.860   4.323  17.763  0.00  0.00    +0.000 A 
ATOM     17  C   UNL     1       6.485   4.214  17.635  0.00  0.00    +0.000 A 
ATOM     18  H   UNL     1       3.794   4.790  19.226  0.00  0.00    +0.000 HD
ENDROOT
BRANCH   1  22
ATOM     19  C   UNL     1       7.011   4.412  12.379  0.00  0.00    +0.000 A 
ATOM     20  C   UNL     1       5.922   3.582  12.618  0.00  0.00    +0.000 A 
ATOM     21  C   UNL     1       5.419   3.435  13.914  0.00  0.00    +0.000 A 
ATOM     22  C   UNL     1       6.017   4.090  15.000  0.00  0.00    +0.000 A 
ATOM     23  C   UNL     1       7.058   4.987  14.718  0.00  0.00    +0.000 A 
ATOM     24  C   UNL     1       7.557   5.144  13.424  0.00  0.00    +0.000 A 
ENDBRANCH   1  22
TORSDOF 1
ENDMDL
MODEL 8
REMARK VINA RESULT:      -7.6      1.983      4.488
REMARK  Name = 
REMARK  1 active torsions:
REMARK  status: ('A' for Active; 'I' for Inactive)
REMARK    1  A    between atoms: C_4  and  C_5
REMARK                            x       y       z     vdW  Elec       q    Type
REMARK                         _______ _______ _______ _____ _____    ______ ____
ROOT
ATOM      1  C   UNL     1       3.700   6.098  18.179  0.00  0.00    +0.000 A 
ATOM      2  C   UNL     1       3.443   4.842  18.629  0.00  0.00    +0.000 A 
ATOM      3  N   UNL     1       2.819   4.351  19.769  0.00  0.00    +0.000 NA
ATOM      4  C   UNL     1       3.226   3.102  19.732  0.00  0.00    +0.000 A 
ATOM      5  C   UNL     1       3.890   2.299  20.833  0.00  0.00    +0.000 A 
ATOM      6  C   UNL     1       4.576   1.190  20.488  0.00  0.00    +0.000 A 
ATOM      7  C   UNL     1       4.430   0.555  19.191  0.00  0.00    +0.000 A 
ATOM      8  C   UNL     1       3.970   1.263  18.166  0.00  0.00    +0.000 A 
ATOM      9  C   UNL     1       3.626   2.651  18.355  0.00  0.00    +0.000 A 
ATOM     10  C   UNL     1       4.333   3.761  18.210  0.00  0.00    +0.000 A 
ATOM     11  N   UNL     1       5.668   4.011  18.549  0.00  0.00    +0.000 N 
ATOM     12  C   UNL     1       6.021   5.387  18.448  0.00  0.00    +0.000 A 
ATOM     13  C   UNL     1       7.220   5.900  18.903  0.00  0.00    +0.000 A 
ATOM     14  C   UNL     1       7.715   7.034  18.276  0.00  0.00    +0.000 A 
ATOM     15  C   UNL     1       7.051   7.540  17.152  0.00  0.00    +0.000 A 
ATOM     16  C   UNL     1       5.739   7.145  16.875  0.00  0.00    +0.000 A 
ATOM     17  C   UNL     1       5.150   6.195  17.694  0.00  0.00    +0.000 A 
ATOM     18  H   UNL     1       5.878   3.676  19.491  0.00  0.00    +0.000 HD
ENDROOT
BRANCH   1  22
ATOM     19  C   UNL     1       1.414   9.596  19.190  0.00  0.00    +0.000 A 
ATOM     20  C   UNL     1       1.904   9.448  17.897  0.00  0.00    +0.000 A 
ATOM     21  C   UNL     1       2.582   8.283  17.530  0.00  0.00    +0.000 A 
ATOM     22  C   UNL     1       2.812   7.257  18.458  0.00  0.00    +0.000 A 
ATOM     23  C   UNL     1       2.232   7.395  19.728  0.00  0.00    +0.000 A 
ATOM     24  C   UNL     1       1.546   8.554  20.097  0.00  0.00    +0.000 A 
ENDBRANCH   1  22
TORSDOF 1
ENDMDL
MODEL 9
REMARK VINA RESULT:      -7.5      1.538      4.677
REMARK  Name = 
REMARK  1 active torsions:
REMARK  status: ('A' for Active; 'I' for Inactive)
REMARK    1  A    between atoms: C_4  and  C_5
REMARK                            x       y       z     vdW  Elec       q    Type
REMARK                         _______ _______ _______ _____ _____    ______ ____
ROOT
ATOM      1  C   UNL     1       2.574   6.813  18.456  0.00  0.00    +0.000 A 
ATOM      2  C   UNL     1       2.060   5.769  19.158  0.00  0.00    +0.000 A 
ATOM      3  N   UNL     1       1.505   5.660  20.427  0.00  0.00    +0.000 NA
ATOM      4  C   UNL     1       1.551   4.356  20.585  0.00  0.00    +0.000 A 
ATOM      5  C   UNL     1       2.132   3.571  21.744  0.00  0.00    +0.000 A 
ATOM      6  C   UNL     1       2.434   2.271  21.546  0.00  0.00    +0.000 A 
ATOM      7  C   UNL     1       1.930   1.517  20.413  0.00  0.00    +0.000 A 
ATOM      8  C   UNL     1       1.528   2.165  19.325  0.00  0.00    +0.000 A 
ATOM      9  C   UNL     1       1.603   3.605  19.284  0.00  0.00    +0.000 A 
ATOM     10  C   UNL     1       2.553   4.426  18.862  0.00  0.00    +0.000 A 
ATOM     11  N   UNL     1       3.941   4.325  19.011  0.00  0.00    +0.000 N 
ATOM     12  C   UNL     1       4.632   5.506  18.618  0.00  0.00    +0.000 A 
ATOM     13  C   UNL     1       5.979   5.711  18.846  0.00  0.00    +0.000 A 
ATOM     14  C   UNL     1       6.660   6.543  17.969  0.00  0.00    +0.000 A 
ATOM     15  C   UNL     1       5.997   7.044  16.844  0.00  0.00    +0.000 A 
ATOM     16  C   UNL     1       4.600   7.011  16.780  0.00  0.00    +0.000 A 
ATOM     17  C   UNL     1       3.907   6.409  17.818  0.00  0.00    +0.000 A 
ATOM     18  H   UNL     1       4.192   4.090  19.973  0.00  0.00    +0.000 HD
ENDROOT
BRANCH   1  22
ATOM     19  C   UNL     1       1.441  10.908  19.116  0.00  0.00    +0.000 A 
ATOM     20  C   UNL     1       2.020  10.544  17.906  0.00  0.00    +0.000 A 
ATOM     21  C   UNL     1       2.324   9.205  17.644  0.00  0.00    +0.000 A 
ATOM     22  C   UNL     1       2.084   8.208  18.602  0.00  0.00    +0.000 A 
ATOM     23  C   UNL     1       1.420   8.591  19.777  0.00  0.00    +0.000 A 
ATOM     24  C   UNL     1       1.106   9.926  20.039  0.00  0.00    +0.000 A 
ENDBRANCH   1  22
TORSDOF 1
ENDMDL
