MODEL 1
REMARK VINA RESULT:      -8.8      0.000      0.000
REMARK  Name = 
REMARK  11 active torsions:
REMARK  status: ('A' for Active; 'I' for Inactive)
REMARK    1  A    between atoms: C_1  and  O_2
REMARK    2  A    between atoms: O_2  and  C_3
REMARK    3  A    between atoms: C_5  and  N_6
REMARK    4  A    between atoms: C_7  and  C_9
REMARK    5  A    between atoms: C_12  and  C_13
REMARK    6  A    between atoms: C_14  and  C_15
REMARK    7  A    between atoms: C_16  and  C_17
REMARK    8  A    between atoms: C_19  and  C_20
REMARK    9  A    between atoms: C_25  and  N_26
REMARK   10  A    between atoms: C_29  and  O_30
REMARK   11  A    between atoms: O_30  and  C_31
REMARK                            x       y       z     vdW  Elec       q    Type
REMARK                         _______ _______ _______ _____ _____    ______ ____
ROOT
ATOM      1  C   UNL     1       1.841   7.114  19.982  0.00  0.00    +0.000 A 
ATOM      2  C   UNL     1       1.621   6.110  20.935  0.00  0.00    +0.000 A 
ATOM      3  C   UNL     1       2.187   4.847  20.782  0.00  0.00    +0.000 A 
ATOM      4  C   UNL     1       2.998   4.565  19.677  0.00  0.00    +0.000 A 
ATOM      5  C   UNL     1       3.610   3.195  19.558  0.00  0.00    +0.000 C 
ATOM      6  C   UNL     1       3.228   5.578  18.723  0.00  0.00    +0.000 A 
ATOM      7  C   UNL     1       2.642   6.847  18.869  0.00  0.00    +0.000 A 
ENDROOT
BRANCH   1   9
ATOM      8  N   UNL     1       0.878   9.246  19.227  0.00  0.00    +0.000 N 
ATOM      9  C   UNL     1       1.302   8.464  20.292  0.00  0.00    +0.000 C 
ATOM     10  O   UNL     1       1.230   8.762  21.480  0.00  0.00    +0.000 OA
ATOM     11  H   UNL     1       0.787   8.809  18.320  0.00  0.00    +0.000 HD
BRANCH   8  14
ATOM     12  C   UNL     1       0.774  12.980  19.585  0.00  0.00    +0.000 A 
ATOM     13  C   UNL     1       1.263  11.676  19.481  0.00  0.00    +0.000 A 
ATOM     14  C   UNL     1       0.406  10.580  19.344  0.00  0.00    +0.000 A 
ATOM     15  C   UNL     1      -0.972  10.820  19.299  0.00  0.00    +0.000 A 
ATOM     16  C   UNL     1      -1.478  12.126  19.405  0.00  0.00    +0.000 A 
ATOM     17  C   UNL     1      -0.600  13.203  19.552  0.00  0.00    +0.000 A 
BRANCH  12  19
ATOM     18  C   UNL     1       1.574  15.129  18.946  0.00  0.00    +0.000 C 
ATOM     19  O   UNL     1       1.744  13.939  19.701  0.00  0.00    +0.000 OA
ENDBRANCH  12  19
BRANCH  16  20
ATOM     20  O   UNL     1      -2.845  12.227  19.348  0.00  0.00    +0.000 OA
ATOM     21  C   UNL     1      -3.495  11.550  18.276  0.00  0.00    +0.000 C 
ENDBRANCH  16  20
ENDBRANCH   8  14
ENDBRANCH   1   9
BRANCH   6  22
ATOM     22  C   UNL     1       4.103   5.354  17.611  0.00  0.00    +0.000 C 
ATOM     23  C   UNL     1       4.815   5.161  16.665  0.00  0.00    +0.000 C 
BRANCH  23  24
ATOM     24  C   UNL     1       5.666   4.958  15.530  0.00  0.00    +0.000 A 
ATOM     25  C   UNL     1       5.203   4.153  14.486  0.00  0.00    +0.000 A 
ATOM     26  C   UNL     1       6.014   3.938  13.373  0.00  0.00    +0.000 A 
ATOM     27  C   UNL     1       7.270   4.535  13.373  0.00  0.00    +0.000 A 
ATOM     28  N   UNL     1       7.744   5.321  14.377  0.00  0.00    +0.000 NA
ATOM     29  C   UNL     1       6.942   5.527  15.438  0.00  0.00    +0.000 A 
BRANCH  26  30
ATOM     30  C   UNL     1       5.616   3.128  12.199  0.00  0.00    +0.000 C 
ATOM     31  N   UNL     1       6.460   2.144  11.763  0.00  0.00    +0.000 N 
ATOM     32  O   UNL     1       4.550   3.321  11.628  0.00  0.00    +0.000 OA
ATOM     33  H   UNL     1       7.346   1.901  12.178  0.00  0.00    +0.000 HD
ATOM     34  H   UNL     1       6.149   1.595  10.972  0.00  0.00    +0.000 HD
ENDBRANCH  26  30
BRANCH  29  35
ATOM     35  N   UNL     1       7.439   6.403  16.400  0.00  0.00    +0.000 N 
ATOM     36  H   UNL     1       7.103   7.336  16.173  0.00  0.00    +0.000 HD
ATOM     37  H   UNL     1       8.446   6.357  16.493  0.00  0.00    +0.000 HD
ENDBRANCH  29  35
ENDBRANCH  23  24
ENDBRANCH   6  22
TORSDOF 8
ENDMDL
MODEL 2
REMARK VINA RESULT:      -8.7      0.485      2.231
REMARK  Name = 
REMARK  11 active torsions:
REMARK  status: ('A' for Active; 'I' for Inactive)
REMARK    1  A    between atoms: C_1  and  O_2
REMARK    2  A    between atoms: O_2  and  C_3
REMARK    3  A    between atoms: C_5  and  N_6
REMARK    4  A    between atoms: C_7  and  C_9
REMARK    5  A    between atoms: C_12  and  C_13
REMARK    6  A    between atoms: C_14  and  C_15
REMARK    7  A    between atoms: C_16  and  C_17
REMARK    8  A    between atoms: C_19  and  C_20
REMARK    9  A    between atoms: C_25  and  N_26
REMARK   10  A    between atoms: C_29  and  O_30
REMARK   11  A    between atoms: O_30  and  C_31
REMARK                            x       y       z     vdW  Elec       q    Type
REMARK                         _______ _______ _______ _____ _____    ______ ____
ROOT
ATOM      1  C   UNL     1       1.854   7.370  19.853  0.00  0.00    +0.000 A 
ATOM      2  C   UNL     1       1.651   6.404  20.849  0.00  0.00    +0.000 A 
ATOM      3  C   UNL     1       2.229   5.141  20.744  0.00  0.00    +0.000 A 
ATOM      4  C   UNL     1       3.037   4.823  19.646  0.00  0.00    +0.000 A 
ATOM      5  C   UNL     1       3.663   3.455  19.580  0.00  0.00    +0.000 C 
ATOM      6  C   UNL     1       3.250   5.798  18.651  0.00  0.00    +0.000 A 
ATOM      7  C   UNL     1       2.651   7.065  18.747  0.00  0.00    +0.000 A 
ENDROOT
BRANCH   1   9
ATOM      8  N   UNL     1       0.824   9.441  19.023  0.00  0.00    +0.000 N 
ATOM      9  C   UNL     1       1.302   8.725  20.111  0.00  0.00    +0.000 C 
ATOM     10  O   UNL     1       1.270   9.087  21.283  0.00  0.00    +0.000 OA
ATOM     11  H   UNL     1       0.706   8.954  18.145  0.00  0.00    +0.000 HD
BRANCH   8  14
ATOM     12  C   UNL     1      -1.479  12.387  19.340  0.00  0.00    +0.000 A 
ATOM     13  C   UNL     1      -1.022  11.069  19.272  0.00  0.00    +0.000 A 
ATOM     14  C   UNL     1       0.332  10.772  19.086  0.00  0.00    +0.000 A 
ATOM     15  C   UNL     1       1.235  11.836  18.981  0.00  0.00    +0.000 A 
ATOM     16  C   UNL     1       0.789  13.166  19.045  0.00  0.00    +0.000 A 
ATOM     17  C   UNL     1      -0.571  13.436  19.220  0.00  0.00    +0.000 A 
BRANCH  12  19
ATOM     18  C   UNL     1      -3.676  11.718  18.715  0.00  0.00    +0.000 C 
ATOM     19  O   UNL     1      -2.828  12.506  19.537  0.00  0.00    +0.000 OA
ENDBRANCH  12  19
BRANCH  16  20
ATOM     20  O   UNL     1       1.771  14.116  18.927  0.00  0.00    +0.000 OA
ATOM     21  C   UNL     1       3.046  13.668  18.473  0.00  0.00    +0.000 C 
ENDBRANCH  16  20
ENDBRANCH   8  14
ENDBRANCH   1   9
BRANCH   6  22
ATOM     22  C   UNL     1       4.121   5.537  17.543  0.00  0.00    +0.000 C 
ATOM     23  C   UNL     1       4.836   5.297  16.610  0.00  0.00    +0.000 C 
BRANCH  23  24
ATOM     24  C   UNL     1       5.676   5.028  15.480  0.00  0.00    +0.000 A 
ATOM     25  C   UNL     1       5.182   4.206  14.464  0.00  0.00    +0.000 A 
ATOM     26  C   UNL     1       5.982   3.928  13.356  0.00  0.00    +0.000 A 
ATOM     27  C   UNL     1       7.258   4.482  13.335  0.00  0.00    +0.000 A 
ATOM     28  N   UNL     1       7.761   5.283  14.311  0.00  0.00    +0.000 NA
ATOM     29  C   UNL     1       6.970   5.551  15.366  0.00  0.00    +0.000 A 
BRANCH  26  30
ATOM     30  C   UNL     1       5.553   3.094  12.211  0.00  0.00    +0.000 C 
ATOM     31  N   UNL     1       6.354   2.058  11.816  0.00  0.00    +0.000 N 
ATOM     32  O   UNL     1       4.499   3.313  11.627  0.00  0.00    +0.000 OA
ATOM     33  H   UNL     1       7.226   1.791  12.244  0.00  0.00    +0.000 HD
ATOM     34  H   UNL     1       6.021   1.495  11.043  0.00  0.00    +0.000 HD
ENDBRANCH  26  30
BRANCH  29  35
ATOM     35  N   UNL     1       7.499   6.441  16.298  0.00  0.00    +0.000 N 
ATOM     36  H   UNL     1       6.766   7.098  16.551  0.00  0.00    +0.000 HD
ATOM     37  H   UNL     1       8.344   6.895  15.974  0.00  0.00    +0.000 HD
ENDBRANCH  29  35
ENDBRANCH  23  24
ENDBRANCH   6  22
TORSDOF 8
ENDMDL
MODEL 3
REMARK VINA RESULT:      -8.5      1.294      1.429
REMARK  Name = 
REMARK  11 active torsions:
REMARK  status: ('A' for Active; 'I' for Inactive)
REMARK    1  A    between atoms: C_1  and  O_2
REMARK    2  A    between atoms: O_2  and  C_3
REMARK    3  A    between atoms: C_5  and  N_6
REMARK    4  A    between atoms: C_7  and  C_9
REMARK    5  A    between atoms: C_12  and  C_13
REMARK    6  A    between atoms: C_14  and  C_15
REMARK    7  A    between atoms: C_16  and  C_17
REMARK    8  A    between atoms: C_19  and  C_20
REMARK    9  A    between atoms: C_25  and  N_26
REMARK   10  A    between atoms: C_29  and  O_30
REMARK   11  A    between atoms: O_30  and  C_31
REMARK                            x       y       z     vdW  Elec       q    Type
REMARK                         _______ _______ _______ _____ _____    ______ ____
ROOT
ATOM      1  C   UNL     1       1.986   6.553  20.012  0.00  0.00    +0.000 A 
ATOM      2  C   UNL     1       1.813   5.471  20.886  0.00  0.00    +0.000 A 
ATOM      3  C   UNL     1       2.396   4.236  20.615  0.00  0.00    +0.000 A 
ATOM      4  C   UNL     1       3.179   4.061  19.468  0.00  0.00    +0.000 A 
ATOM      5  C   UNL     1       3.811   2.717  19.221  0.00  0.00    +0.000 C 
ATOM      6  C   UNL     1       3.362   5.152  18.594  0.00  0.00    +0.000 A 
ATOM      7  C   UNL     1       2.758   6.393  18.858  0.00  0.00    +0.000 A 
ENDROOT
BRANCH   1   9
ATOM      8  N   UNL     1       1.438   8.899  19.523  0.00  0.00    +0.000 N 
ATOM      9  C   UNL     1       1.432   7.862  20.445  0.00  0.00    +0.000 C 
ATOM     10  O   UNL     1       0.966   7.908  21.579  0.00  0.00    +0.000 OA
ATOM     11  H   UNL     1       1.649   8.679  18.559  0.00  0.00    +0.000 HD
BRANCH   8  14
ATOM     12  C   UNL     1       0.918  12.607  19.276  0.00  0.00    +0.000 A 
ATOM     13  C   UNL     1       1.356  11.312  18.988  0.00  0.00    +0.000 A 
ATOM     14  C   UNL     1       1.014  10.226  19.799  0.00  0.00    +0.000 A 
ATOM     15  C   UNL     1       0.199  10.462  20.913  0.00  0.00    +0.000 A 
ATOM     16  C   UNL     1      -0.246  11.759  21.215  0.00  0.00    +0.000 A 
ATOM     17  C   UNL     1       0.120  12.829  20.395  0.00  0.00    +0.000 A 
BRANCH  12  19
ATOM     18  C   UNL     1       2.731  13.713  18.201  0.00  0.00    +0.000 C 
ATOM     19  O   UNL     1       1.332  13.554  18.378  0.00  0.00    +0.000 OA
ENDBRANCH  12  19
BRANCH  16  20
ATOM     20  O   UNL     1      -1.035  11.857  22.332  0.00  0.00    +0.000 OA
ATOM     21  C   UNL     1      -1.138  10.695  23.150  0.00  0.00    +0.000 C 
ENDBRANCH  16  20
ENDBRANCH   8  14
ENDBRANCH   1   9
BRANCH   6  22
ATOM     22  C   UNL     1       4.208   5.035  17.443  0.00  0.00    +0.000 C 
ATOM     23  C   UNL     1       4.925   4.915  16.489  0.00  0.00    +0.000 C 
BRANCH  23  24
ATOM     24  C   UNL     1       5.762   4.760  15.336  0.00  0.00    +0.000 A 
ATOM     25  C   UNL     1       5.331   3.917  14.308  0.00  0.00    +0.000 A 
ATOM     26  C   UNL     1       6.129   3.749  13.178  0.00  0.00    +0.000 A 
ATOM     27  C   UNL     1       7.342   4.430  13.146  0.00  0.00    +0.000 A 
ATOM     28  N   UNL     1       7.784   5.254  14.133  0.00  0.00    +0.000 NA
ATOM     29  C   UNL     1       6.994   5.414  15.210  0.00  0.00    +0.000 A 
BRANCH  26  30
ATOM     30  C   UNL     1       5.761   2.903  12.020  0.00  0.00    +0.000 C 
ATOM     31  N   UNL     1       6.669   1.992  11.557  0.00  0.00    +0.000 N 
ATOM     32  O   UNL     1       4.664   3.005  11.484  0.00  0.00    +0.000 OA
ATOM     33  H   UNL     1       7.585   1.824  11.941  0.00  0.00    +0.000 HD
ATOM     34  H   UNL     1       6.378   1.415  10.777  0.00  0.00    +0.000 HD
ENDBRANCH  26  30
BRANCH  29  35
ATOM     35  N   UNL     1       7.451   6.330  16.154  0.00  0.00    +0.000 N 
ATOM     36  H   UNL     1       7.191   7.260  15.837  0.00  0.00    +0.000 HD
ATOM     37  H   UNL     1       8.442   6.240  16.344  0.00  0.00    +0.000 HD
ENDBRANCH  29  35
ENDBRANCH  23  24
ENDBRANCH   6  22
TORSDOF 8
ENDMDL
MODEL 4
REMARK VINA RESULT:      -8.5      1.750      2.677
REMARK  Name = 
REMARK  11 active torsions:
REMARK  status: ('A' for Active; 'I' for Inactive)
REMARK    1  A    between atoms: C_1  and  O_2
REMARK    2  A    between atoms: O_2  and  C_3
REMARK    3  A    between atoms: C_5  and  N_6
REMARK    4  A    between atoms: C_7  and  C_9
REMARK    5  A    between atoms: C_12  and  C_13
REMARK    6  A    between atoms: C_14  and  C_15
REMARK    7  A    between atoms: C_16  and  C_17
REMARK    8  A    between atoms: C_19  and  C_20
REMARK    9  A    between atoms: C_25  and  N_26
REMARK   10  A    between atoms: C_29  and  O_30
REMARK   11  A    between atoms: O_30  and  C_31
REMARK                            x       y       z     vdW  Elec       q    Type
REMARK                         _______ _______ _______ _____ _____    ______ ____
ROOT
ATOM      1  C   UNL     1       1.697   7.594  19.713  0.00  0.00    +0.000 A 
ATOM      2  C   UNL     1       1.516   6.685  20.764  0.00  0.00    +0.000 A 
ATOM      3  C   UNL     1       2.121   5.430  20.734  0.00  0.00    +0.000 A 
ATOM      4  C   UNL     1       2.934   5.064  19.654  0.00  0.00    +0.000 A 
ATOM      5  C   UNL     1       3.588   3.708  19.668  0.00  0.00    +0.000 C 
ATOM      6  C   UNL     1       3.124   5.983  18.602  0.00  0.00    +0.000 A 
ATOM      7  C   UNL     1       2.499   7.241  18.624  0.00  0.00    +0.000 A 
ENDROOT
BRANCH   1   9
ATOM      8  N   UNL     1       0.971   9.421  21.187  0.00  0.00    +0.000 N 
ATOM      9  C   UNL     1       1.117   8.950  19.890  0.00  0.00    +0.000 C 
ATOM     10  O   UNL     1       0.856   9.570  18.864  0.00  0.00    +0.000 OA
ATOM     11  H   UNL     1       1.420   8.909  21.935  0.00  0.00    +0.000 HD
BRANCH   8  14
ATOM     12  C   UNL     1      -1.331  11.984  22.675  0.00  0.00    +0.000 A 
ATOM     13  C   UNL     1      -0.766  10.751  22.342  0.00  0.00    +0.000 A 
ATOM     14  C   UNL     1       0.371  10.661  21.533  0.00  0.00    +0.000 A 
ATOM     15  C   UNL     1       0.948  11.848  21.067  0.00  0.00    +0.000 A 
ATOM     16  C   UNL     1       0.388  13.094  21.392  0.00  0.00    +0.000 A 
ATOM     17  C   UNL     1      -0.755  13.157  22.193  0.00  0.00    +0.000 A 
BRANCH  12  19
ATOM     18  C   UNL     1      -3.585  12.629  23.088  0.00  0.00    +0.000 C 
ATOM     19  O   UNL     1      -2.433  11.899  23.483  0.00  0.00    +0.000 OA
ENDBRANCH  12  19
BRANCH  16  20
ATOM     20  O   UNL     1       1.046  14.181  20.873  0.00  0.00    +0.000 OA
ATOM     21  C   UNL     1       1.681  15.052  21.805  0.00  0.00    +0.000 C 
ENDBRANCH  16  20
ENDBRANCH   8  14
ENDBRANCH   1   9
BRANCH   6  22
ATOM     22  C   UNL     1       3.999   5.674  17.509  0.00  0.00    +0.000 C 
ATOM     23  C   UNL     1       4.740   5.441  16.595  0.00  0.00    +0.000 C 
BRANCH  23  24
ATOM     24  C   UNL     1       5.644   5.154  15.521  0.00  0.00    +0.000 A 
ATOM     25  C   UNL     1       5.201   4.336  14.478  0.00  0.00    +0.000 A 
ATOM     26  C   UNL     1       6.063   4.040  13.423  0.00  0.00    +0.000 A 
ATOM     27  C   UNL     1       7.348   4.573  13.480  0.00  0.00    +0.000 A 
ATOM     28  N   UNL     1       7.802   5.369  14.484  0.00  0.00    +0.000 NA
ATOM     29  C   UNL     1       6.952   5.654  15.487  0.00  0.00    +0.000 A 
BRANCH  26  30
ATOM     30  C   UNL     1       5.693   3.209  12.256  0.00  0.00    +0.000 C 
ATOM     31  N   UNL     1       6.596   2.297  11.785  0.00  0.00    +0.000 N 
ATOM     32  O   UNL     1       4.597   3.322  11.720  0.00  0.00    +0.000 OA
ATOM     33  H   UNL     1       7.511   2.121  12.169  0.00  0.00    +0.000 HD
ATOM     34  H   UNL     1       6.303   1.730  10.999  0.00  0.00    +0.000 HD
ENDBRANCH  26  30
BRANCH  29  35
ATOM     35  N   UNL     1       7.437   6.538  16.447  0.00  0.00    +0.000 N 
ATOM     36  H   UNL     1       8.404   6.748  16.215  0.00  0.00    +0.000 HD
ATOM     37  H   UNL     1       7.321   6.195  17.393  0.00  0.00    +0.000 HD
ENDBRANCH  29  35
ENDBRANCH  23  24
ENDBRANCH   6  22
TORSDOF 8
ENDMDL
MODEL 5
REMARK VINA RESULT:      -8.3      1.811      1.893
REMARK  Name = 
REMARK  11 active torsions:
REMARK  status: ('A' for Active; 'I' for Inactive)
REMARK    1  A    between atoms: C_1  and  O_2
REMARK    2  A    between atoms: O_2  and  C_3
REMARK    3  A    between atoms: C_5  and  N_6
REMARK    4  A    between atoms: C_7  and  C_9
REMARK    5  A    between atoms: C_12  and  C_13
REMARK    6  A    between atoms: C_14  and  C_15
REMARK    7  A    between atoms: C_16  and  C_17
REMARK    8  A    between atoms: C_19  and  C_20
REMARK    9  A    between atoms: C_25  and  N_26
REMARK   10  A    between atoms: C_29  and  O_30
REMARK   11  A    between atoms: O_30  and  C_31
REMARK                            x       y       z     vdW  Elec       q    Type
REMARK                         _______ _______ _______ _____ _____    ______ ____
ROOT
ATOM      1  C   UNL     1       1.853   7.544  19.646  0.00  0.00    +0.000 A 
ATOM      2  C   UNL     1       1.621   6.620  20.674  0.00  0.00    +0.000 A 
ATOM      3  C   UNL     1       2.175   5.343  20.622  0.00  0.00    +0.000 A 
ATOM      4  C   UNL     1       2.987   4.969  19.545  0.00  0.00    +0.000 A 
ATOM      5  C   UNL     1       3.587   3.587  19.536  0.00  0.00    +0.000 C 
ATOM      6  C   UNL     1       3.229   5.902  18.516  0.00  0.00    +0.000 A 
ATOM      7  C   UNL     1       2.655   7.184  18.560  0.00  0.00    +0.000 A 
ENDROOT
BRANCH   1   9
ATOM      8  N   UNL     1       0.979   9.291  21.138  0.00  0.00    +0.000 N 
ATOM      9  C   UNL     1       1.325   8.919  19.847  0.00  0.00    +0.000 C 
ATOM     10  O   UNL     1       1.283   9.637  18.854  0.00  0.00    +0.000 OA
ATOM     11  H   UNL     1       1.261   8.689  21.901  0.00  0.00    +0.000 HD
BRANCH   8  14
ATOM     12  C   UNL     1       0.316  12.974  21.409  0.00  0.00    +0.000 A 
ATOM     13  C   UNL     1       0.913  11.762  21.056  0.00  0.00    +0.000 A 
ATOM     14  C   UNL     1       0.397  10.537  21.490  0.00  0.00    +0.000 A 
ATOM     15  C   UNL     1      -0.756  10.549  22.285  0.00  0.00    +0.000 A 
ATOM     16  C   UNL     1      -1.365  11.760  22.649  0.00  0.00    +0.000 A 
ATOM     17  C   UNL     1      -0.823  12.971  22.211  0.00  0.00    +0.000 A 
BRANCH  12  19
ATOM     18  C   UNL     1       0.866  14.268  19.488  0.00  0.00    +0.000 C 
ATOM     19  O   UNL     1       0.937  14.080  20.893  0.00  0.00    +0.000 OA
ENDBRANCH  12  19
BRANCH  16  20
ATOM     20  O   UNL     1      -2.486  11.637  23.430  0.00  0.00    +0.000 OA
ATOM     21  C   UNL     1      -3.137  12.845  23.815  0.00  0.00    +0.000 C 
ENDBRANCH  16  20
ENDBRANCH   8  14
ENDBRANCH   1   9
BRANCH   6  22
ATOM     22  C   UNL     1       4.106   5.584  17.429  0.00  0.00    +0.000 C 
ATOM     23  C   UNL     1       4.820   5.321  16.502  0.00  0.00    +0.000 C 
BRANCH  23  24
ATOM     24  C   UNL     1       5.682   5.032  15.393  0.00  0.00    +0.000 A 
ATOM     25  C   UNL     1       5.192   4.230  14.360  0.00  0.00    +0.000 A 
ATOM     26  C   UNL     1       6.013   3.933  13.272  0.00  0.00    +0.000 A 
ATOM     27  C   UNL     1       7.305   4.449  13.288  0.00  0.00    +0.000 A 
ATOM     28  N   UNL     1       7.805   5.231  14.282  0.00  0.00    +0.000 NA
ATOM     29  C   UNL     1       6.993   5.517  15.317  0.00  0.00    +0.000 A 
BRANCH  26  30
ATOM     30  C   UNL     1       5.590   3.117  12.112  0.00  0.00    +0.000 C 
ATOM     31  N   UNL     1       4.364   3.352  11.554  0.00  0.00    +0.000 N 
ATOM     32  O   UNL     1       6.320   2.249  11.648  0.00  0.00    +0.000 OA
ATOM     33  H   UNL     1       3.705   4.053  11.854  0.00  0.00    +0.000 HD
ATOM     34  H   UNL     1       4.115   2.791  10.749  0.00  0.00    +0.000 HD
ENDBRANCH  26  30
BRANCH  29  35
ATOM     35  N   UNL     1       7.523   6.386  16.267  0.00  0.00    +0.000 N 
ATOM     36  H   UNL     1       6.789   6.600  16.937  0.00  0.00    +0.000 HD
ATOM     37  H   UNL     1       7.938   7.214  15.857  0.00  0.00    +0.000 HD
ENDBRANCH  29  35
ENDBRANCH  23  24
ENDBRANCH   6  22
TORSDOF 8
ENDMDL
MODEL 6
REMARK VINA RESULT:      -8.2      1.455      1.535
REMARK  Name = 
REMARK  11 active torsions:
REMARK  status: ('A' for Active; 'I' for Inactive)
REMARK    1  A    between atoms: C_1  and  O_2
REMARK    2  A    between atoms: O_2  and  C_3
REMARK    3  A    between atoms: C_5  and  N_6
REMARK    4  A    between atoms: C_7  and  C_9
REMARK    5  A    between atoms: C_12  and  C_13
REMARK    6  A    between atoms: C_14  and  C_15
REMARK    7  A    between atoms: C_16  and  C_17
REMARK    8  A    between atoms: C_19  and  C_20
REMARK    9  A    between atoms: C_25  and  N_26
REMARK   10  A    between atoms: C_29  and  O_30
REMARK   11  A    between atoms: O_30  and  C_31
REMARK                            x       y       z     vdW  Elec       q    Type
REMARK                         _______ _______ _______ _____ _____    ______ ____
ROOT
ATOM      1  C   UNL     1       1.797   6.892  20.200  0.00  0.00    +0.000 A 
ATOM      2  C   UNL     1       1.195   5.782  20.809  0.00  0.00    +0.000 A 
ATOM      3  C   UNL     1       1.429   4.494  20.335  0.00  0.00    +0.000 A 
ATOM      4  C   UNL     1       2.286   4.287  19.248  0.00  0.00    +0.000 A 
ATOM      5  C   UNL     1       2.533   2.877  18.779  0.00  0.00    +0.000 C 
ATOM      6  C   UNL     1       2.901   5.401  18.641  0.00  0.00    +0.000 A 
ATOM      7  C   UNL     1       2.648   6.703  19.108  0.00  0.00    +0.000 A 
ENDROOT
BRANCH   1   9
ATOM      8  N   UNL     1       0.780   9.130  20.194  0.00  0.00    +0.000 N 
ATOM      9  C   UNL     1       1.588   8.211  20.850  0.00  0.00    +0.000 C 
ATOM     10  O   UNL     1       2.112   8.367  21.948  0.00  0.00    +0.000 OA
ATOM     11  H   UNL     1       0.234   8.808  19.406  0.00  0.00    +0.000 HD
BRANCH   8  14
ATOM     12  C   UNL     1       0.985  12.853  20.611  0.00  0.00    +0.000 A 
ATOM     13  C   UNL     1       1.250  11.558  20.161  0.00  0.00    +0.000 A 
ATOM     14  C   UNL     1       0.537  10.455  20.642  0.00  0.00    +0.000 A 
ATOM     15  C   UNL     1      -0.471  10.679  21.587  0.00  0.00    +0.000 A 
ATOM     16  C   UNL     1      -0.746  11.976  22.050  0.00  0.00    +0.000 A 
ATOM     17  C   UNL     1      -0.012  13.059  21.562  0.00  0.00    +0.000 A 
BRANCH  12  19
ATOM     18  C   UNL     1       2.948  14.194  20.718  0.00  0.00    +0.000 C 
ATOM     19  O   UNL     1       1.762  13.821  20.034  0.00  0.00    +0.000 OA
ENDBRANCH  12  19
BRANCH  16  20
ATOM     20  O   UNL     1      -1.755  12.061  22.976  0.00  0.00    +0.000 OA
ATOM     21  C   UNL     1      -2.484  13.285  23.019  0.00  0.00    +0.000 C 
ENDBRANCH  16  20
ENDBRANCH   8  14
ENDBRANCH   1   9
BRANCH   6  22
ATOM     22  C   UNL     1       3.834   5.230  17.568  0.00  0.00    +0.000 C 
ATOM     23  C   UNL     1       4.617   5.112  16.667  0.00  0.00    +0.000 C 
BRANCH  23  24
ATOM     24  C   UNL     1       5.572   4.971  15.608  0.00  0.00    +0.000 A 
ATOM     25  C   UNL     1       5.238   4.172  14.511  0.00  0.00    +0.000 A 
ATOM     26  C   UNL     1       6.152   4.018  13.470  0.00  0.00    +0.000 A 
ATOM     27  C   UNL     1       7.377   4.666  13.594  0.00  0.00    +0.000 A 
ATOM     28  N   UNL     1       7.726   5.447  14.651  0.00  0.00    +0.000 NA
ATOM     29  C   UNL     1       6.826   5.595  15.640  0.00  0.00    +0.000 A 
BRANCH  26  30
ATOM     30  C   UNL     1       5.895   3.219  12.250  0.00  0.00    +0.000 C 
ATOM     31  N   UNL     1       6.887   2.407  11.775  0.00  0.00    +0.000 N 
ATOM     32  O   UNL     1       4.815   3.271  11.675  0.00  0.00    +0.000 OA
ATOM     33  H   UNL     1       7.798   2.285  12.188  0.00  0.00    +0.000 HD
ATOM     34  H   UNL     1       6.671   1.859  10.952  0.00  0.00    +0.000 HD
ENDBRANCH  26  30
BRANCH  29  35
ATOM     35  N   UNL     1       7.197   6.468  16.659  0.00  0.00    +0.000 N 
ATOM     36  H   UNL     1       8.187   6.674  16.547  0.00  0.00    +0.000 HD
ATOM     37  H   UNL     1       6.968   6.118  17.582  0.00  0.00    +0.000 HD
ENDBRANCH  29  35
ENDBRANCH  23  24
ENDBRANCH   6  22
TORSDOF 8
ENDMDL
MODEL 7
REMARK VINA RESULT:      -8.1      1.694      1.833
REMARK  Name = 
REMARK  11 active torsions:
REMARK  status: ('A' for Active; 'I' for Inactive)
REMARK    1  A    between atoms: C_1  and  O_2
REMARK    2  A    between atoms: O_2  and  C_3
REMARK    3  A    between atoms: C_5  and  N_6
REMARK    4  A    between atoms: C_7  and  C_9
REMARK    5  A    between atoms: C_12  and  C_13
REMARK    6  A    between atoms: C_14  and  C_15
REMARK    7  A    between atoms: C_16  and  C_17
REMARK    8  A    between atoms: C_19  and  C_20
REMARK    9  A    between atoms: C_25  and  N_26
REMARK   10  A    between atoms: C_29  and  O_30
REMARK   11  A    between atoms: O_30  and  C_31
REMARK                            x       y       z     vdW  Elec       q    Type
REMARK                         _______ _______ _______ _____ _____    ______ ____
ROOT
ATOM      1  C   UNL     1       1.741   7.798  19.540  0.00  0.00    +0.000 A 
ATOM      2  C   UNL     1       1.508   6.883  20.577  0.00  0.00    +0.000 A 
ATOM      3  C   UNL     1       2.074   5.611  20.545  0.00  0.00    +0.000 A 
ATOM      4  C   UNL     1       2.899   5.232  19.480  0.00  0.00    +0.000 A 
ATOM      5  C   UNL     1       3.511   3.856  19.493  0.00  0.00    +0.000 C 
ATOM      6  C   UNL     1       3.143   6.155  18.443  0.00  0.00    +0.000 A 
ATOM      7  C   UNL     1       2.556   7.432  18.466  0.00  0.00    +0.000 A 
ENDROOT
BRANCH   1   9
ATOM      8  N   UNL     1       0.202   9.347  20.668  0.00  0.00    +0.000 N 
ATOM      9  C   UNL     1       1.200   9.170  19.721  0.00  0.00    +0.000 C 
ATOM     10  O   UNL     1       1.717  10.053  19.044  0.00  0.00    +0.000 OA
ATOM     11  H   UNL     1       0.012   8.588  21.310  0.00  0.00    +0.000 HD
BRANCH   8  14
ATOM     12  C   UNL     1      -0.935  12.535  22.288  0.00  0.00    +0.000 A 
ATOM     13  C   UNL     1      -0.269  11.326  22.075  0.00  0.00    +0.000 A 
ATOM     14  C   UNL     1      -0.469  10.574  20.913  0.00  0.00    +0.000 A 
ATOM     15  C   UNL     1      -1.352  11.071  19.947  0.00  0.00    +0.000 A 
ATOM     16  C   UNL     1      -2.031  12.283  20.150  0.00  0.00    +0.000 A 
ATOM     17  C   UNL     1      -1.821  13.010  21.325  0.00  0.00    +0.000 A 
BRANCH  12  19
ATOM     18  C   UNL     1      -1.224  14.411  23.724  0.00  0.00    +0.000 C 
ATOM     19  O   UNL     1      -0.619  13.152  23.468  0.00  0.00    +0.000 OA
ENDBRANCH  12  19
BRANCH  16  20
ATOM     20  O   UNL     1      -2.868  12.659  19.131  0.00  0.00    +0.000 OA
ATOM     21  C   UNL     1      -3.997  11.824  18.886  0.00  0.00    +0.000 C 
ENDBRANCH  16  20
ENDBRANCH   8  14
ENDBRANCH   1   9
BRANCH   6  22
ATOM     22  C   UNL     1       4.033   5.832  17.367  0.00  0.00    +0.000 C 
ATOM     23  C   UNL     1       4.789   5.543  16.482  0.00  0.00    +0.000 C 
BRANCH  23  24
ATOM     24  C   UNL     1       5.673   5.181  15.414  0.00  0.00    +0.000 A 
ATOM     25  C   UNL     1       5.186   4.361  14.393  0.00  0.00    +0.000 A 
ATOM     26  C   UNL     1       6.029   3.993  13.346  0.00  0.00    +0.000 A 
ATOM     27  C   UNL     1       7.339   4.459  13.387  0.00  0.00    +0.000 A 
ATOM     28  N   UNL     1       7.838   5.256  14.369  0.00  0.00    +0.000 NA
ATOM     29  C   UNL     1       7.005   5.611  15.366  0.00  0.00    +0.000 A 
BRANCH  26  30
ATOM     30  C   UNL     1       5.612   3.153  12.201  0.00  0.00    +0.000 C 
ATOM     31  N   UNL     1       4.369   3.344  11.663  0.00  0.00    +0.000 N 
ATOM     32  O   UNL     1       6.360   2.304  11.732  0.00  0.00    +0.000 OA
ATOM     33  H   UNL     1       3.693   4.026  11.968  0.00  0.00    +0.000 HD
ATOM     34  H   UNL     1       4.124   2.767  10.868  0.00  0.00    +0.000 HD
ENDBRANCH  26  30
BRANCH  29  35
ATOM     35  N   UNL     1       7.538   6.493  16.302  0.00  0.00    +0.000 N 
ATOM     36  H   UNL     1       7.059   6.336  17.185  0.00  0.00    +0.000 HD
ATOM     37  H   UNL     1       7.504   7.459  15.999  0.00  0.00    +0.000 HD
ENDBRANCH  29  35
ENDBRANCH  23  24
ENDBRANCH   6  22
TORSDOF 8
ENDMDL
MODEL 8
REMARK VINA RESULT:      -8.1      1.583      2.230
REMARK  Name = 
REMARK  11 active torsions:
REMARK  status: ('A' for Active; 'I' for Inactive)
REMARK    1  A    between atoms: C_1  and  O_2
REMARK    2  A    between atoms: O_2  and  C_3
REMARK    3  A    between atoms: C_5  and  N_6
REMARK    4  A    between atoms: C_7  and  C_9
REMARK    5  A    between atoms: C_12  and  C_13
REMARK    6  A    between atoms: C_14  and  C_15
REMARK    7  A    between atoms: C_16  and  C_17
REMARK    8  A    between atoms: C_19  and  C_20
REMARK    9  A    between atoms: C_25  and  N_26
REMARK   10  A    between atoms: C_29  and  O_30
REMARK   11  A    between atoms: O_30  and  C_31
REMARK                            x       y       z     vdW  Elec       q    Type
REMARK                         _______ _______ _______ _____ _____    ______ ____
ROOT
ATOM      1  C   UNL     1       1.947   6.194  20.199  0.00  0.00    +0.000 A 
ATOM      2  C   UNL     1       1.894   5.112  21.088  0.00  0.00    +0.000 A 
ATOM      3  C   UNL     1       2.581   3.931  20.816  0.00  0.00    +0.000 A 
ATOM      4  C   UNL     1       3.349   3.814  19.651  0.00  0.00    +0.000 A 
ATOM      5  C   UNL     1       4.096   2.531  19.402  0.00  0.00    +0.000 C 
ATOM      6  C   UNL     1       3.411   4.907  18.762  0.00  0.00    +0.000 A 
ATOM      7  C   UNL     1       2.703   6.091  19.029  0.00  0.00    +0.000 A 
ENDROOT
BRANCH   1   9
ATOM      8  N   UNL     1       1.602   8.614  19.943  0.00  0.00    +0.000 N 
ATOM      9  C   UNL     1       1.287   7.453  20.633  0.00  0.00    +0.000 C 
ATOM     10  O   UNL     1       0.471   7.354  21.545  0.00  0.00    +0.000 OA
ATOM     11  H   UNL     1       2.119   8.531  19.078  0.00  0.00    +0.000 HD
BRANCH   8  14
ATOM     12  C   UNL     1       0.041  11.475  21.803  0.00  0.00    +0.000 A 
ATOM     13  C   UNL     1       0.503  10.193  21.498  0.00  0.00    +0.000 A 
ATOM     14  C   UNL     1       1.116   9.907  20.274  0.00  0.00    +0.000 A 
ATOM     15  C   UNL     1       1.274  10.949  19.354  0.00  0.00    +0.000 A 
ATOM     16  C   UNL     1       0.813  12.243  19.647  0.00  0.00    +0.000 A 
ATOM     17  C   UNL     1       0.193  12.499  20.872  0.00  0.00    +0.000 A 
BRANCH  12  19
ATOM     18  C   UNL     1      -1.512  12.595  23.217  0.00  0.00    +0.000 C 
ATOM     19  O   UNL     1      -0.524  11.590  23.045  0.00  0.00    +0.000 OA
ENDBRANCH  12  19
BRANCH  16  20
ATOM     20  O   UNL     1       1.025  13.174  18.662  0.00  0.00    +0.000 OA
ATOM     21  C   UNL     1       2.253  13.079  17.943  0.00  0.00    +0.000 C 
ENDBRANCH  16  20
ENDBRANCH   8  14
ENDBRANCH   1   9
BRANCH   6  22
ATOM     22  C   UNL     1       4.237   4.854  17.592  0.00  0.00    +0.000 C 
ATOM     23  C   UNL     1       4.930   4.783  16.616  0.00  0.00    +0.000 C 
BRANCH  23  24
ATOM     24  C   UNL     1       5.738   4.697  15.435  0.00  0.00    +0.000 A 
ATOM     25  C   UNL     1       5.296   3.890  14.383  0.00  0.00    +0.000 A 
ATOM     26  C   UNL     1       6.065   3.788  13.225  0.00  0.00    +0.000 A 
ATOM     27  C   UNL     1       7.262   4.496  13.190  0.00  0.00    +0.000 A 
ATOM     28  N   UNL     1       7.714   5.286  14.199  0.00  0.00    +0.000 NA
ATOM     29  C   UNL     1       6.952   5.382  15.304  0.00  0.00    +0.000 A 
BRANCH  26  30
ATOM     30  C   UNL     1       5.682   2.985  12.042  0.00  0.00    +0.000 C 
ATOM     31  N   UNL     1       4.425   3.135  11.525  0.00  0.00    +0.000 N 
ATOM     32  O   UNL     1       6.471   2.204  11.523  0.00  0.00    +0.000 OA
ATOM     33  H   UNL     1       3.716   3.762  11.870  0.00  0.00    +0.000 HD
ATOM     34  H   UNL     1       4.203   2.587  10.703  0.00  0.00    +0.000 HD
ENDBRANCH  26  30
BRANCH  29  35
ATOM     35  N   UNL     1       7.417   6.266  16.274  0.00  0.00    +0.000 N 
ATOM     36  H   UNL     1       8.082   6.894  15.830  0.00  0.00    +0.000 HD
ATOM     37  H   UNL     1       7.798   5.796  17.087  0.00  0.00    +0.000 HD
ENDBRANCH  29  35
ENDBRANCH  23  24
ENDBRANCH   6  22
TORSDOF 8
ENDMDL
MODEL 9
REMARK VINA RESULT:      -8.0      1.316      2.454
REMARK  Name = 
REMARK  11 active torsions:
REMARK  status: ('A' for Active; 'I' for Inactive)
REMARK    1  A    between atoms: C_1  and  O_2
REMARK    2  A    between atoms: O_2  and  C_3
REMARK    3  A    between atoms: C_5  and  N_6
REMARK    4  A    between atoms: C_7  and  C_9
REMARK    5  A    between atoms: C_12  and  C_13
REMARK    6  A    between atoms: C_14  and  C_15
REMARK    7  A    between atoms: C_16  and  C_17
REMARK    8  A    between atoms: C_19  and  C_20
REMARK    9  A    between atoms: C_25  and  N_26
REMARK   10  A    between atoms: C_29  and  O_30
REMARK   11  A    between atoms: O_30  and  C_31
REMARK                            x       y       z     vdW  Elec       q    Type
REMARK                         _______ _______ _______ _____ _____    ______ ____
ROOT
ATOM      1  C   UNL     1       2.173   7.623  19.000  0.00  0.00    +0.000 A 
ATOM      2  C   UNL     1       2.125   6.866  20.178  0.00  0.00    +0.000 A 
ATOM      3  C   UNL     1       2.758   5.627  20.256  0.00  0.00    +0.000 A 
ATOM      4  C   UNL     1       3.467   5.126  19.157  0.00  0.00    +0.000 A 
ATOM      5  C   UNL     1       4.157   3.794  19.287  0.00  0.00    +0.000 C 
ATOM      6  C   UNL     1       3.524   5.893  17.976  0.00  0.00    +0.000 A 
ATOM      7  C   UNL     1       2.870   7.134  17.892  0.00  0.00    +0.000 A 
ENDROOT
BRANCH   1   9
ATOM      8  N   UNL     1       0.821   9.312  20.167  0.00  0.00    +0.000 N 
ATOM      9  C   UNL     1       1.577   8.983  19.050  0.00  0.00    +0.000 C 
ATOM     10  O   UNL     1       1.844   9.730  18.114  0.00  0.00    +0.000 OA
ATOM     11  H   UNL     1       0.854   8.691  20.965  0.00  0.00    +0.000 HD
BRANCH   8  14
ATOM     12  C   UNL     1      -1.783  12.004  19.943  0.00  0.00    +0.000 A 
ATOM     13  C   UNL     1      -1.116  10.792  19.751  0.00  0.00    +0.000 A 
ATOM     14  C   UNL     1       0.127  10.538  20.338  0.00  0.00    +0.000 A 
ATOM     15  C   UNL     1       0.692  11.532  21.146  0.00  0.00    +0.000 A 
ATOM     16  C   UNL     1       0.034  12.756  21.345  0.00  0.00    +0.000 A 
ATOM     17  C   UNL     1      -1.202  12.989  20.737  0.00  0.00    +0.000 A 
BRANCH  12  19
ATOM     18  C   UNL     1      -3.087  11.519  18.011  0.00  0.00    +0.000 C 
ATOM     19  O   UNL     1      -2.993  12.088  19.309  0.00  0.00    +0.000 OA
ENDBRANCH  12  19
BRANCH  16  20
ATOM     20  O   UNL     1       0.692  13.646  22.155  0.00  0.00    +0.000 OA
ATOM     21  C   UNL     1       1.599  14.544  21.519  0.00  0.00    +0.000 C 
ENDBRANCH  16  20
ENDBRANCH   8  14
ENDBRANCH   1   9
BRANCH   6  22
ATOM     22  C   UNL     1       4.292   5.448  16.850  0.00  0.00    +0.000 C 
ATOM     23  C   UNL     1       4.918   5.088  15.892  0.00  0.00    +0.000 C 
BRANCH  23  24
ATOM     24  C   UNL     1       5.682   4.680  14.751  0.00  0.00    +0.000 A 
ATOM     25  C   UNL     1       5.082   3.834  13.815  0.00  0.00    +0.000 A 
ATOM     26  C   UNL     1       5.807   3.421  12.698  0.00  0.00    +0.000 A 
ATOM     27  C   UNL     1       7.119   3.870  12.586  0.00  0.00    +0.000 A 
ATOM     28  N   UNL     1       7.725   4.693  13.483  0.00  0.00    +0.000 NA
ATOM     29  C   UNL     1       7.006   5.090  14.548  0.00  0.00    +0.000 A 
BRANCH  26  30
ATOM     30  C   UNL     1       5.264   2.549  11.632  0.00  0.00    +0.000 C 
ATOM     31  N   UNL     1       5.927   1.392  11.328  0.00  0.00    +0.000 N 
ATOM     32  O   UNL     1       4.238   2.844  11.032  0.00  0.00    +0.000 OA
ATOM     33  H   UNL     1       6.765   1.057  11.777  0.00  0.00    +0.000 HD
ATOM     34  H   UNL     1       5.517   0.808  10.610  0.00  0.00    +0.000 HD
ENDBRANCH  26  30
BRANCH  29  35
ATOM     35  N   UNL     1       7.643   5.996  15.393  0.00  0.00    +0.000 N 
ATOM     36  H   UNL     1       7.049   6.132  16.208  0.00  0.00    +0.000 HD
ATOM     37  H   UNL     1       7.886   6.864  14.931  0.00  0.00    +0.000 HD
ENDBRANCH  29  35
ENDBRANCH  23  24
ENDBRANCH   6  22
TORSDOF 8
ENDMDL
