MODEL 1
REMARK VINA RESULT:      -7.8      0.000      0.000
REMARK  Name = 
REMARK  8 active torsions:
REMARK  status: ('A' for Active; 'I' for Inactive)
REMARK    1  A    between atoms: C_1  and  C_2
REMARK    2  A    between atoms: C_2  and  C_3
REMARK    3  A    between atoms: C_2  and  C_4
REMARK    4  A    between atoms: C_7  and  N_8
REMARK    5  A    between atoms: C_9  and  C_11
REMARK    6  A    between atoms: N_15  and  C_16
REMARK    7  A    between atoms: C_16  and  C_17
REMARK    8  A    between atoms: C_17  and  C_18
REMARK                            x       y       z     vdW  Elec       q    Type
REMARK                         _______ _______ _______ _____ _____    ______ ____
ROOT
ATOM      1  N   UNL     1       3.335   6.332  17.506  0.00  0.00    +0.000 N 
ATOM      2  C   UNL     1       4.658   6.493  17.093  0.00  0.00    +0.000 C 
ATOM      3  O   UNL     1       5.399   7.412  17.444  0.00  0.00    +0.000 OA
ATOM      4  H   UNL     1       2.875   5.459  17.289  0.00  0.00    +0.000 HD
ENDROOT
BRANCH   1   8
ATOM      5  C   UNL     1       1.162   8.981  20.005  0.00  0.00    +0.000 A 
ATOM      6  C   UNL     1       1.665   7.780  20.510  0.00  0.00    +0.000 A 
ATOM      7  C   UNL     1       2.394   6.924  19.687  0.00  0.00    +0.000 A 
ATOM      8  C   UNL     1       2.636   7.227  18.349  0.00  0.00    +0.000 A 
ATOM      9  C   UNL     1       2.181   8.450  17.846  0.00  0.00    +0.000 A 
ATOM     10  C   UNL     1       1.438   9.311  18.671  0.00  0.00    +0.000 A 
BRANCH   5  12
ATOM     11  C   UNL     1      -0.723  10.639  20.093  0.00  0.00    +0.000 C 
ATOM     12  C   UNL     1       0.334   9.883  20.898  0.00  0.00    +0.000 C 
ATOM     13  C   UNL     1      -0.302   9.085  22.040  0.00  0.00    +0.000 C 
ENDBRANCH   5  12
ENDBRANCH   1   8
BRANCH   2  14
ATOM     14  C   UNL     1       5.152   5.449  16.231  0.00  0.00    +0.000 A 
ATOM     15  C   UNL     1       5.662   5.550  14.948  0.00  0.00    +0.000 A 
ATOM     16  C   UNL     1       6.119   4.268  14.626  0.00  0.00    +0.000 A 
ATOM     17  N   UNL     1       5.866   3.386  15.589  0.00  0.00    +0.000 NA
ATOM     18  N   UNL     1       5.282   4.113  16.571  0.00  0.00    +0.000 N 
BRANCH  18  19
ATOM     19  C   UNL     1       4.947   3.428  17.820  0.00  0.00    +0.000 C 
BRANCH  19  20
ATOM     20  C   UNL     1       3.620   2.661  17.793  0.00  0.00    +0.000 C 
BRANCH  20  21
ATOM     21  C   UNL     1       2.793   2.857  19.046  0.00  0.00    +0.000 A 
ATOM     22  C   UNL     1       1.481   3.339  18.978  0.00  0.00    +0.000 A 
ATOM     23  C   UNL     1       0.773   3.520  20.159  0.00  0.00    +0.000 A 
ATOM     24  N   UNL     1       1.273   3.255  21.386  0.00  0.00    +0.000 NA
ATOM     25  C   UNL     1       2.537   2.786  21.430  0.00  0.00    +0.000 A 
ATOM     26  C   UNL     1       3.324   2.569  20.307  0.00  0.00    +0.000 A 
ENDBRANCH  20  21
ENDBRANCH  19  20
ENDBRANCH  18  19
ENDBRANCH   2  14
TORSDOF 6
ENDMDL
MODEL 2
REMARK VINA RESULT:      -7.7      0.183      1.354
REMARK  Name = 
REMARK  8 active torsions:
REMARK  status: ('A' for Active; 'I' for Inactive)
REMARK    1  A    between atoms: C_1  and  C_2
REMARK    2  A    between atoms: C_2  and  C_3
REMARK    3  A    between atoms: C_2  and  C_4
REMARK    4  A    between atoms: C_7  and  N_8
REMARK    5  A    between atoms: C_9  and  C_11
REMARK    6  A    between atoms: N_15  and  C_16
REMARK    7  A    between atoms: C_16  and  C_17
REMARK    8  A    between atoms: C_17  and  C_18
REMARK                            x       y       z     vdW  Elec       q    Type
REMARK                         _______ _______ _______ _____ _____    ______ ____
ROOT
ATOM      1  N   UNL     1       3.262   6.346  17.588  0.00  0.00    +0.000 N 
ATOM      2  C   UNL     1       4.610   6.495  17.259  0.00  0.00    +0.000 C 
ATOM      3  O   UNL     1       5.353   7.367  17.712  0.00  0.00    +0.000 OA
ATOM      4  H   UNL     1       2.793   5.503  17.287  0.00  0.00    +0.000 HD
ENDROOT
BRANCH   1   8
ATOM      5  C   UNL     1       1.171   8.947  20.205  0.00  0.00    +0.000 A 
ATOM      6  C   UNL     1       1.372   9.296  18.867  0.00  0.00    +0.000 A 
ATOM      7  C   UNL     1       2.043   8.427  18.009  0.00  0.00    +0.000 A 
ATOM      8  C   UNL     1       2.539   7.203  18.451  0.00  0.00    +0.000 A 
ATOM      9  C   UNL     1       2.300   6.820  19.775  0.00  0.00    +0.000 A 
ATOM     10  C   UNL     1       1.631   7.698  20.644  0.00  0.00    +0.000 A 
BRANCH   5  12
ATOM     11  C   UNL     1      -0.494  10.820  20.374  0.00  0.00    +0.000 C 
ATOM     12  C   UNL     1       0.478   9.920  21.137  0.00  0.00    +0.000 C 
ATOM     13  C   UNL     1      -0.230   9.177  22.274  0.00  0.00    +0.000 C 
ENDBRANCH   5  12
ENDBRANCH   1   8
BRANCH   2  14
ATOM     14  C   UNL     1       5.125   5.496  16.357  0.00  0.00    +0.000 A 
ATOM     15  C   UNL     1       5.638   5.659  15.082  0.00  0.00    +0.000 A 
ATOM     16  C   UNL     1       6.118   4.400  14.709  0.00  0.00    +0.000 A 
ATOM     17  N   UNL     1       5.875   3.473  15.633  0.00  0.00    +0.000 NA
ATOM     18  N   UNL     1       5.275   4.150  16.641  0.00  0.00    +0.000 N 
BRANCH  18  19
ATOM     19  C   UNL     1       4.945   3.407  17.858  0.00  0.00    +0.000 C 
BRANCH  19  20
ATOM     20  C   UNL     1       3.596   2.680  17.819  0.00  0.00    +0.000 C 
BRANCH  20  21
ATOM     21  C   UNL     1       2.792   2.848  19.092  0.00  0.00    +0.000 A 
ATOM     22  C   UNL     1       3.374   2.638  20.346  0.00  0.00    +0.000 A 
ATOM     23  C   UNL     1       2.586   2.784  21.482  0.00  0.00    +0.000 A 
ATOM     24  N   UNL     1       1.279   3.123  21.453  0.00  0.00    +0.000 NA
ATOM     25  C   UNL     1       0.738   3.326  20.234  0.00  0.00    +0.000 A 
ATOM     26  C   UNL     1       1.442   3.206  19.043  0.00  0.00    +0.000 A 
ENDBRANCH  20  21
ENDBRANCH  19  20
ENDBRANCH  18  19
ENDBRANCH   2  14
TORSDOF 6
ENDMDL
MODEL 3
REMARK VINA RESULT:      -7.6      0.804      1.077
REMARK  Name = 
REMARK  8 active torsions:
REMARK  status: ('A' for Active; 'I' for Inactive)
REMARK    1  A    between atoms: C_1  and  C_2
REMARK    2  A    between atoms: C_2  and  C_3
REMARK    3  A    between atoms: C_2  and  C_4
REMARK    4  A    between atoms: C_7  and  N_8
REMARK    5  A    between atoms: C_9  and  C_11
REMARK    6  A    between atoms: N_15  and  C_16
REMARK    7  A    between atoms: C_16  and  C_17
REMARK    8  A    between atoms: C_17  and  C_18
REMARK                            x       y       z     vdW  Elec       q    Type
REMARK                         _______ _______ _______ _____ _____    ______ ____
ROOT
ATOM      1  N   UNL     1       3.395   6.629  17.703  0.00  0.00    +0.000 N 
ATOM      2  C   UNL     1       4.565   5.939  18.024  0.00  0.00    +0.000 C 
ATOM      3  O   UNL     1       5.024   5.820  19.160  0.00  0.00    +0.000 OA
ATOM      4  H   UNL     1       3.025   6.524  16.770  0.00  0.00    +0.000 HD
ENDROOT
BRANCH   1   8
ATOM      5  C   UNL     1       0.914   8.712  20.441  0.00  0.00    +0.000 A 
ATOM      6  C   UNL     1       1.449   7.465  20.774  0.00  0.00    +0.000 A 
ATOM      7  C   UNL     1       2.278   6.795  19.876  0.00  0.00    +0.000 A 
ATOM      8  C   UNL     1       2.591   7.334  18.630  0.00  0.00    +0.000 A 
ATOM      9  C   UNL     1       2.104   8.605  18.307  0.00  0.00    +0.000 A 
ATOM     10  C   UNL     1       1.260   9.278  19.206  0.00  0.00    +0.000 A 
BRANCH   5  12
ATOM     11  C   UNL     1       0.523   9.360  22.836  0.00  0.00    +0.000 C 
ATOM     12  C   UNL     1      -0.021   9.409  21.409  0.00  0.00    +0.000 C 
ATOM     13  C   UNL     1      -0.290  10.850  20.966  0.00  0.00    +0.000 C 
ENDBRANCH   5  12
ENDBRANCH   1   8
BRANCH   2  14
ATOM     14  C   UNL     1       5.212   5.300  16.906  0.00  0.00    +0.000 A 
ATOM     15  C   UNL     1       6.066   5.849  15.965  0.00  0.00    +0.000 A 
ATOM     16  C   UNL     1       6.512   4.773  15.192  0.00  0.00    +0.000 A 
ATOM     17  N   UNL     1       5.944   3.624  15.551  0.00  0.00    +0.000 NA
ATOM     18  N   UNL     1       5.156   3.950  16.603  0.00  0.00    +0.000 N 
BRANCH  18  19
ATOM     19  C   UNL     1       4.442   2.867  17.281  0.00  0.00    +0.000 C 
BRANCH  19  20
ATOM     20  C   UNL     1       2.927   3.069  17.390  0.00  0.00    +0.000 C 
BRANCH  20  21
ATOM     21  C   UNL     1       2.428   3.077  18.820  0.00  0.00    +0.000 A 
ATOM     22  C   UNL     1       1.102   3.406  19.121  0.00  0.00    +0.000 A 
ATOM     23  C   UNL     1       0.701   3.418  20.451  0.00  0.00    +0.000 A 
ATOM     24  N   UNL     1       1.517   3.126  21.486  0.00  0.00    +0.000 NA
ATOM     25  C   UNL     1       2.790   2.805  21.176  0.00  0.00    +0.000 A 
ATOM     26  C   UNL     1       3.285   2.764  19.879  0.00  0.00    +0.000 A 
ENDBRANCH  20  21
ENDBRANCH  19  20
ENDBRANCH  18  19
ENDBRANCH   2  14
TORSDOF 6
ENDMDL
MODEL 4
REMARK VINA RESULT:      -7.6      0.947      1.522
REMARK  Name = 
REMARK  8 active torsions:
REMARK  status: ('A' for Active; 'I' for Inactive)
REMARK    1  A    between atoms: C_1  and  C_2
REMARK    2  A    between atoms: C_2  and  C_3
REMARK    3  A    between atoms: C_2  and  C_4
REMARK    4  A    between atoms: C_7  and  N_8
REMARK    5  A    between atoms: C_9  and  C_11
REMARK    6  A    between atoms: N_15  and  C_16
REMARK    7  A    between atoms: C_16  and  C_17
REMARK    8  A    between atoms: C_17  and  C_18
REMARK                            x       y       z     vdW  Elec       q    Type
REMARK                         _______ _______ _______ _____ _____    ______ ____
ROOT
ATOM      1  N   UNL     1       3.498   6.586  17.875  0.00  0.00    +0.000 N 
ATOM      2  C   UNL     1       4.606   5.844  18.285  0.00  0.00    +0.000 C 
ATOM      3  O   UNL     1       4.958   5.692  19.455  0.00  0.00    +0.000 OA
ATOM      4  H   UNL     1       3.208   6.509  16.911  0.00  0.00    +0.000 HD
ENDROOT
BRANCH   1   8
ATOM      5  C   UNL     1       0.874   8.735  20.422  0.00  0.00    +0.000 A 
ATOM      6  C   UNL     1       1.385   7.495  20.811  0.00  0.00    +0.000 A 
ATOM      7  C   UNL     1       2.261   6.804  19.977  0.00  0.00    +0.000 A 
ATOM      8  C   UNL     1       2.646   7.314  18.739  0.00  0.00    +0.000 A 
ATOM      9  C   UNL     1       2.182   8.578  18.361  0.00  0.00    +0.000 A 
ATOM     10  C   UNL     1       1.291   9.273  19.196  0.00  0.00    +0.000 A 
BRANCH   5  12
ATOM     11  C   UNL     1       0.330   9.401  22.782  0.00  0.00    +0.000 C 
ATOM     12  C   UNL     1      -0.112   9.456  21.319  0.00  0.00    +0.000 C 
ATOM     13  C   UNL     1      -0.319  10.901  20.855  0.00  0.00    +0.000 C 
ENDBRANCH   5  12
ENDBRANCH   1   8
BRANCH   2  14
ATOM     14  C   UNL     1       5.322   5.191  17.218  0.00  0.00    +0.000 A 
ATOM     15  C   UNL     1       6.565   5.497  16.692  0.00  0.00    +0.000 A 
ATOM     16  C   UNL     1       6.846   4.475  15.779  0.00  0.00    +0.000 A 
ATOM     17  N   UNL     1       5.840   3.611  15.664  0.00  0.00    +0.000 NA
ATOM     18  N   UNL     1       4.915   4.048  16.551  0.00  0.00    +0.000 N 
BRANCH  18  19
ATOM     19  C   UNL     1       3.700   3.249  16.718  0.00  0.00    +0.000 C 
BRANCH  19  20
ATOM     20  C   UNL     1       3.744   2.253  17.883  0.00  0.00    +0.000 C 
BRANCH  20  21
ATOM     21  C   UNL     1       2.873   2.664  19.052  0.00  0.00    +0.000 A 
ATOM     22  C   UNL     1       3.357   2.619  20.363  0.00  0.00    +0.000 A 
ATOM     23  C   UNL     1       2.511   2.986  21.402  0.00  0.00    +0.000 A 
ATOM     24  N   UNL     1       1.235   3.393  21.225  0.00  0.00    +0.000 NA
ATOM     25  C   UNL     1       0.789   3.436  19.953  0.00  0.00    +0.000 A 
ATOM     26  C   UNL     1       1.558   3.091  18.849  0.00  0.00    +0.000 A 
ENDBRANCH  20  21
ENDBRANCH  19  20
ENDBRANCH  18  19
ENDBRANCH   2  14
TORSDOF 6
ENDMDL
MODEL 5
REMARK VINA RESULT:      -7.4      1.159      1.942
REMARK  Name = 
REMARK  8 active torsions:
REMARK  status: ('A' for Active; 'I' for Inactive)
REMARK    1  A    between atoms: C_1  and  C_2
REMARK    2  A    between atoms: C_2  and  C_3
REMARK    3  A    between atoms: C_2  and  C_4
REMARK    4  A    between atoms: C_7  and  N_8
REMARK    5  A    between atoms: C_9  and  C_11
REMARK    6  A    between atoms: N_15  and  C_16
REMARK    7  A    between atoms: C_16  and  C_17
REMARK    8  A    between atoms: C_17  and  C_18
REMARK                            x       y       z     vdW  Elec       q    Type
REMARK                         _______ _______ _______ _____ _____    ______ ____
ROOT
ATOM      1  N   UNL     1       3.189   6.750  18.090  0.00  0.00    +0.000 N 
ATOM      2  C   UNL     1       4.155   5.862  18.561  0.00  0.00    +0.000 C 
ATOM      3  O   UNL     1       4.363   5.610  19.748  0.00  0.00    +0.000 OA
ATOM      4  H   UNL     1       2.995   6.756  17.099  0.00  0.00    +0.000 HD
ENDROOT
BRANCH   1   8
ATOM      5  C   UNL     1       0.711   9.122  20.584  0.00  0.00    +0.000 A 
ATOM      6  C   UNL     1       1.039   9.550  19.296  0.00  0.00    +0.000 A 
ATOM      7  C   UNL     1       1.838   8.756  18.475  0.00  0.00    +0.000 A 
ATOM      8  C   UNL     1       2.339   7.530  18.909  0.00  0.00    +0.000 A 
ATOM      9  C   UNL     1       1.974   7.068  20.178  0.00  0.00    +0.000 A 
ATOM     10  C   UNL     1       1.176   7.870  21.010  0.00  0.00    +0.000 A 
BRANCH   5  12
ATOM     11  C   UNL     1       0.008   9.602  22.948  0.00  0.00    +0.000 C 
ATOM     12  C   UNL     1      -0.123  10.014  21.482  0.00  0.00    +0.000 C 
ATOM     13  C   UNL     1       0.247  11.487  21.283  0.00  0.00    +0.000 C 
ENDBRANCH   5  12
ENDBRANCH   1   8
BRANCH   2  14
ATOM     14  C   UNL     1       4.902   5.182  17.532  0.00  0.00    +0.000 A 
ATOM     15  C   UNL     1       6.211   5.383  17.131  0.00  0.00    +0.000 A 
ATOM     16  C   UNL     1       6.476   4.374  16.200  0.00  0.00    +0.000 A 
ATOM     17  N   UNL     1       5.407   3.618  15.958  0.00  0.00    +0.000 NA
ATOM     18  N   UNL     1       4.451   4.110  16.780  0.00  0.00    +0.000 N 
BRANCH  18  19
ATOM     19  C   UNL     1       3.156   3.429  16.803  0.00  0.00    +0.000 C 
BRANCH  19  20
ATOM     20  C   UNL     1       3.084   2.223  17.747  0.00  0.00    +0.000 C 
BRANCH  20  21
ATOM     21  C   UNL     1       2.621   2.586  19.143  0.00  0.00    +0.000 A 
ATOM     22  C   UNL     1       3.405   2.291  20.263  0.00  0.00    +0.000 A 
ATOM     23  C   UNL     1       2.925   2.626  21.523  0.00  0.00    +0.000 A 
ATOM     24  N   UNL     1       1.736   3.230  21.740  0.00  0.00    +0.000 NA
ATOM     25  C   UNL     1       0.997   3.511  20.647  0.00  0.00    +0.000 A 
ATOM     26  C   UNL     1       1.391   3.218  19.348  0.00  0.00    +0.000 A 
ENDBRANCH  20  21
ENDBRANCH  19  20
ENDBRANCH  18  19
ENDBRANCH   2  14
TORSDOF 6
ENDMDL
MODEL 6
REMARK VINA RESULT:      -7.4      0.905      1.491
REMARK  Name = 
REMARK  8 active torsions:
REMARK  status: ('A' for Active; 'I' for Inactive)
REMARK    1  A    between atoms: C_1  and  C_2
REMARK    2  A    between atoms: C_2  and  C_3
REMARK    3  A    between atoms: C_2  and  C_4
REMARK    4  A    between atoms: C_7  and  N_8
REMARK    5  A    between atoms: C_9  and  C_11
REMARK    6  A    between atoms: N_15  and  C_16
REMARK    7  A    between atoms: C_16  and  C_17
REMARK    8  A    between atoms: C_17  and  C_18
REMARK                            x       y       z     vdW  Elec       q    Type
REMARK                         _______ _______ _______ _____ _____    ______ ____
ROOT
ATOM      1  N   UNL     1       3.605   6.566  17.633  0.00  0.00    +0.000 N 
ATOM      2  C   UNL     1       4.746   5.911  18.096  0.00  0.00    +0.000 C 
ATOM      3  O   UNL     1       5.120   5.889  19.269  0.00  0.00    +0.000 OA
ATOM      4  H   UNL     1       3.305   6.382  16.686  0.00  0.00    +0.000 HD
ENDROOT
BRANCH   1   8
ATOM      5  C   UNL     1       1.069   8.925  20.081  0.00  0.00    +0.000 A 
ATOM      6  C   UNL     1       1.434   9.363  18.806  0.00  0.00    +0.000 A 
ATOM      7  C   UNL     1       2.252   8.574  18.001  0.00  0.00    +0.000 A 
ATOM      8  C   UNL     1       2.735   7.342  18.436  0.00  0.00    +0.000 A 
ATOM      9  C   UNL     1       2.335   6.869  19.690  0.00  0.00    +0.000 A 
ATOM     10  C   UNL     1       1.517   7.667  20.508  0.00  0.00    +0.000 A 
BRANCH   5  12
ATOM     11  C   UNL     1       0.096   9.239  22.376  0.00  0.00    +0.000 C 
ATOM     12  C   UNL     1       0.214   9.812  20.964  0.00  0.00    +0.000 C 
ATOM     13  C   UNL     1       0.757  11.244  20.988  0.00  0.00    +0.000 C 
ENDBRANCH   5  12
ENDBRANCH   1   8
BRANCH   2  14
ATOM     14  C   UNL     1       5.474   5.184  17.087  0.00  0.00    +0.000 A 
ATOM     15  C   UNL     1       6.733   5.438  16.570  0.00  0.00    +0.000 A 
ATOM     16  C   UNL     1       7.016   4.359  15.727  0.00  0.00    +0.000 A 
ATOM     17  N   UNL     1       5.999   3.505  15.643  0.00  0.00    +0.000 NA
ATOM     18  N   UNL     1       5.063   4.009  16.481  0.00  0.00    +0.000 N 
BRANCH  18  19
ATOM     19  C   UNL     1       3.832   3.239  16.669  0.00  0.00    +0.000 C 
BRANCH  19  20
ATOM     20  C   UNL     1       3.871   2.245  17.836  0.00  0.00    +0.000 C 
BRANCH  20  21
ATOM     21  C   UNL     1       2.933   2.616  18.966  0.00  0.00    +0.000 A 
ATOM     22  C   UNL     1       1.582   2.884  18.725  0.00  0.00    +0.000 A 
ATOM     23  C   UNL     1       0.769   3.240  19.794  0.00  0.00    +0.000 A 
ATOM     24  N   UNL     1       1.204   3.343  21.069  0.00  0.00    +0.000 NA
ATOM     25  C   UNL     1       2.509   3.075  21.282  0.00  0.00    +0.000 A 
ATOM     26  C   UNL     1       3.399   2.709  20.281  0.00  0.00    +0.000 A 
ENDBRANCH  20  21
ENDBRANCH  19  20
ENDBRANCH  18  19
ENDBRANCH   2  14
TORSDOF 6
ENDMDL
MODEL 7
REMARK VINA RESULT:      -7.3      1.436      2.088
REMARK  Name = 
REMARK  8 active torsions:
REMARK  status: ('A' for Active; 'I' for Inactive)
REMARK    1  A    between atoms: C_1  and  C_2
REMARK    2  A    between atoms: C_2  and  C_3
REMARK    3  A    between atoms: C_2  and  C_4
REMARK    4  A    between atoms: C_7  and  N_8
REMARK    5  A    between atoms: C_9  and  C_11
REMARK    6  A    between atoms: N_15  and  C_16
REMARK    7  A    between atoms: C_16  and  C_17
REMARK    8  A    between atoms: C_17  and  C_18
REMARK                            x       y       z     vdW  Elec       q    Type
REMARK                         _______ _______ _______ _____ _____    ______ ____
ROOT
ATOM      1  N   UNL     1       3.299   7.615  18.090  0.00  0.00    +0.000 N 
ATOM      2  C   UNL     1       3.227   6.271  17.722  0.00  0.00    +0.000 C 
ATOM      3  O   UNL     1       2.209   5.581  17.767  0.00  0.00    +0.000 OA
ATOM      4  H   UNL     1       4.140   8.124  17.859  0.00  0.00    +0.000 HD
ENDROOT
BRANCH   1   8
ATOM      5  C   UNL     1       0.132   9.932  19.699  0.00  0.00    +0.000 A 
ATOM      6  C   UNL     1       0.484  10.047  18.352  0.00  0.00    +0.000 A 
ATOM      7  C   UNL     1       1.513   9.269  17.826  0.00  0.00    +0.000 A 
ATOM      8  C   UNL     1       2.224   8.368  18.617  0.00  0.00    +0.000 A 
ATOM      9  C   UNL     1       1.847   8.207  19.954  0.00  0.00    +0.000 A 
ATOM     10  C   UNL     1       0.815   8.997  20.489  0.00  0.00    +0.000 A 
BRANCH   5  12
ATOM     11  C   UNL     1      -0.405  11.764  21.332  0.00  0.00    +0.000 C 
ATOM     12  C   UNL     1      -0.960  10.817  20.267  0.00  0.00    +0.000 C 
ATOM     13  C   UNL     1      -1.673  11.588  19.153  0.00  0.00    +0.000 C 
ENDBRANCH   5  12
ENDBRANCH   1   8
BRANCH   2  14
ATOM     14  C   UNL     1       4.458   5.719  17.212  0.00  0.00    +0.000 A 
ATOM     15  C   UNL     1       5.043   5.900  15.971  0.00  0.00    +0.000 A 
ATOM     16  C   UNL     1       6.283   5.258  16.046  0.00  0.00    +0.000 A 
ATOM     17  N   UNL     1       6.465   4.647  17.214  0.00  0.00    +0.000 NA
ATOM     18  N   UNL     1       5.351   4.939  17.926  0.00  0.00    +0.000 N 
BRANCH  18  19
ATOM     19  C   UNL     1       5.282   4.463  19.309  0.00  0.00    +0.000 C 
BRANCH  19  20
ATOM     20  C   UNL     1       4.741   3.038  19.469  0.00  0.00    +0.000 C 
BRANCH  20  21
ATOM     21  C   UNL     1       3.231   2.981  19.569  0.00  0.00    +0.000 A 
ATOM     22  C   UNL     1       2.471   2.279  18.628  0.00  0.00    +0.000 A 
ATOM     23  C   UNL     1       1.087   2.275  18.753  0.00  0.00    +0.000 A 
ATOM     24  N   UNL     1       0.419   2.912  19.739  0.00  0.00    +0.000 NA
ATOM     25  C   UNL     1       1.170   3.579  20.640  0.00  0.00    +0.000 A 
ATOM     26  C   UNL     1       2.556   3.639  20.601  0.00  0.00    +0.000 A 
ENDBRANCH  20  21
ENDBRANCH  19  20
ENDBRANCH  18  19
ENDBRANCH   2  14
TORSDOF 6
ENDMDL
MODEL 8
REMARK VINA RESULT:      -7.2      2.130      4.249
REMARK  Name = 
REMARK  8 active torsions:
REMARK  status: ('A' for Active; 'I' for Inactive)
REMARK    1  A    between atoms: C_1  and  C_2
REMARK    2  A    between atoms: C_2  and  C_3
REMARK    3  A    between atoms: C_2  and  C_4
REMARK    4  A    between atoms: C_7  and  N_8
REMARK    5  A    between atoms: C_9  and  C_11
REMARK    6  A    between atoms: N_15  and  C_16
REMARK    7  A    between atoms: C_16  and  C_17
REMARK    8  A    between atoms: C_17  and  C_18
REMARK                            x       y       z     vdW  Elec       q    Type
REMARK                         _______ _______ _______ _____ _____    ______ ____
ROOT
ATOM      1  N   UNL     1       2.410   5.912  18.696  0.00  0.00    +0.000 N 
ATOM      2  C   UNL     1       3.618   5.317  19.061  0.00  0.00    +0.000 C 
ATOM      3  O   UNL     1       4.554   5.900  19.609  0.00  0.00    +0.000 OA
ATOM      4  H   UNL     1       1.654   5.309  18.404  0.00  0.00    +0.000 HD
ENDROOT
BRANCH   1   8
ATOM      5  C   UNL     1       1.408  10.009  19.143  0.00  0.00    +0.000 A 
ATOM      6  C   UNL     1       1.274   9.124  20.215  0.00  0.00    +0.000 A 
ATOM      7  C   UNL     1       1.623   7.783  20.066  0.00  0.00    +0.000 A 
ATOM      8  C   UNL     1       2.102   7.284  18.857  0.00  0.00    +0.000 A 
ATOM      9  C   UNL     1       2.289   8.171  17.791  0.00  0.00    +0.000 A 
ATOM     10  C   UNL     1       1.929   9.521  17.937  0.00  0.00    +0.000 A 
BRANCH   5  12
ATOM     11  C   UNL     1       0.914  11.846  20.783  0.00  0.00    +0.000 C 
ATOM     12  C   UNL     1       0.984  11.455  19.307  0.00  0.00    +0.000 C 
ATOM     13  C   UNL     1       1.914  12.389  18.527  0.00  0.00    +0.000 C 
ENDBRANCH   5  12
ENDBRANCH   1   8
BRANCH   2  14
ATOM     14  C   UNL     1       3.697   3.903  18.795  0.00  0.00    +0.000 A 
ATOM     15  C   UNL     1       3.336   2.844  19.610  0.00  0.00    +0.000 A 
ATOM     16  C   UNL     1       3.487   1.698  18.823  0.00  0.00    +0.000 A 
ATOM     17  N   UNL     1       3.975   1.976  17.616  0.00  0.00    +0.000 NA
ATOM     18  N   UNL     1       4.094   3.325  17.601  0.00  0.00    +0.000 N 
BRANCH  18  19
ATOM     19  C   UNL     1       4.543   3.955  16.359  0.00  0.00    +0.000 C 
BRANCH  19  20
ATOM     20  C   UNL     1       6.063   3.971  16.162  0.00  0.00    +0.000 C 
BRANCH  20  21
ATOM     21  C   UNL     1       6.763   5.012  17.009  0.00  0.00    +0.000 A 
ATOM     22  C   UNL     1       7.428   4.657  18.188  0.00  0.00    +0.000 A 
ATOM     23  C   UNL     1       8.037   5.655  18.940  0.00  0.00    +0.000 A 
ATOM     24  N   UNL     1       8.031   6.962  18.601  0.00  0.00    +0.000 NA
ATOM     25  C   UNL     1       7.390   7.284  17.458  0.00  0.00    +0.000 A 
ATOM     26  C   UNL     1       6.754   6.360  16.639  0.00  0.00    +0.000 A 
ENDBRANCH  20  21
ENDBRANCH  19  20
ENDBRANCH  18  19
ENDBRANCH   2  14
TORSDOF 6
ENDMDL
MODEL 9
REMARK VINA RESULT:      -7.1      1.415      2.022
REMARK  Name = 
REMARK  8 active torsions:
REMARK  status: ('A' for Active; 'I' for Inactive)
REMARK    1  A    between atoms: C_1  and  C_2
REMARK    2  A    between atoms: C_2  and  C_3
REMARK    3  A    between atoms: C_2  and  C_4
REMARK    4  A    between atoms: C_7  and  N_8
REMARK    5  A    between atoms: C_9  and  C_11
REMARK    6  A    between atoms: N_15  and  C_16
REMARK    7  A    between atoms: C_16  and  C_17
REMARK    8  A    between atoms: C_17  and  C_18
REMARK                            x       y       z     vdW  Elec       q    Type
REMARK                         _______ _______ _______ _____ _____    ______ ____
ROOT
ATOM      1  N   UNL     1       2.971   7.395  18.048  0.00  0.00    +0.000 N 
ATOM      2  C   UNL     1       3.439   6.224  18.643  0.00  0.00    +0.000 C 
ATOM      3  O   UNL     1       3.113   5.822  19.760  0.00  0.00    +0.000 OA
ATOM      4  H   UNL     1       3.175   7.543  17.070  0.00  0.00    +0.000 HD
ENDROOT
BRANCH   1   8
ATOM      5  C   UNL     1       0.267  10.119  19.853  0.00  0.00    +0.000 A 
ATOM      6  C   UNL     1       0.824   9.074  20.594  0.00  0.00    +0.000 A 
ATOM      7  C   UNL     1       1.726   8.195  19.999  0.00  0.00    +0.000 A 
ATOM      8  C   UNL     1       2.092   8.319  18.660  0.00  0.00    +0.000 A 
ATOM      9  C   UNL     1       1.581   9.392  17.922  0.00  0.00    +0.000 A 
ATOM     10  C   UNL     1       0.664  10.275  18.517  0.00  0.00    +0.000 A 
BRANCH   5  12
ATOM     11  C   UNL     1      -0.055  12.169  21.267  0.00  0.00    +0.000 C 
ATOM     12  C   UNL     1      -0.746  11.042  20.501  0.00  0.00    +0.000 C 
ATOM     13  C   UNL     1      -1.724  11.595  19.461  0.00  0.00    +0.000 C 
ENDBRANCH   5  12
ENDBRANCH   1   8
BRANCH   2  14
ATOM     14  C   UNL     1       4.329   5.444  17.820  0.00  0.00    +0.000 A 
ATOM     15  C   UNL     1       5.697   5.573  17.655  0.00  0.00    +0.000 A 
ATOM     16  C   UNL     1       6.082   4.487  16.863  0.00  0.00    +0.000 A 
ATOM     17  N   UNL     1       5.043   3.748  16.481  0.00  0.00    +0.000 NA
ATOM     18  N   UNL     1       3.976   4.332  17.075  0.00  0.00    +0.000 N 
BRANCH  18  19
ATOM     19  C   UNL     1       2.669   3.694  16.906  0.00  0.00    +0.000 C 
BRANCH  19  20
ATOM     20  C   UNL     1       2.512   2.354  17.634  0.00  0.00    +0.000 C 
BRANCH  20  21
ATOM     21  C   UNL     1       2.390   2.503  19.136  0.00  0.00    +0.000 A 
ATOM     22  C   UNL     1       3.499   2.333  19.971  0.00  0.00    +0.000 A 
ATOM     23  C   UNL     1       3.329   2.459  21.344  0.00  0.00    +0.000 A 
ATOM     24  N   UNL     1       2.147   2.742  21.933  0.00  0.00    +0.000 NA
ATOM     25  C   UNL     1       1.090   2.908  21.111  0.00  0.00    +0.000 A 
ATOM     26  C   UNL     1       1.160   2.804  19.728  0.00  0.00    +0.000 A 
ENDBRANCH  20  21
ENDBRANCH  19  20
ENDBRANCH  18  19
ENDBRANCH   2  14
TORSDOF 6
ENDMDL
