MODEL 1
REMARK VINA RESULT:      -7.7      0.000      0.000
REMARK  Name = 
REMARK  5 active torsions:
REMARK  status: ('A' for Active; 'I' for Inactive)
REMARK    1  A    between atoms: C_1  and  N_2
REMARK    2  A    between atoms: N_5  and  C_6
REMARK    3  A    between atoms: N_8  and  C_9
REMARK    4  A    between atoms: C_15  and  C_16
REMARK    5  A    between atoms: N_18  and  C_19
REMARK                            x       y       z     vdW  Elec       q    Type
REMARK                         _______ _______ _______ _____ _____    ______ ____
ROOT
ATOM      1  C   UNL     1       4.947   5.384  18.530  0.00  0.00    +0.000 A 
ATOM      2  C   UNL     1       6.044   4.544  18.263  0.00  0.00    +0.000 A 
ATOM      3  C   UNL     1       7.135   4.989  17.518  0.00  0.00    +0.000 A 
ATOM      4  F   UNL     1       8.229   4.223  17.434  0.00  0.00    +0.000 F 
ATOM      5  C   UNL     1       7.118   6.222  16.901  0.00  0.00    +0.000 A 
ATOM      6  C   UNL     1       5.971   6.998  17.004  0.00  0.00    +0.000 A 
ATOM      7  C   UNL     1       4.873   6.593  17.808  0.00  0.00    +0.000 A 
ENDROOT
BRANCH   1  15
ATOM      8  C   UNL     1       3.448   1.371  18.142  0.00  0.00    +0.000 C 
ATOM      9  N   UNL     1       2.253   2.172  17.886  0.00  0.00    +0.000 NA
ATOM     10  C   UNL     1       1.187   1.969  18.876  0.00  0.00    +0.000 C 
ATOM     11  C   UNL     1       1.502   2.502  20.286  0.00  0.00    +0.000 C 
ATOM     12  N   UNL     1       2.084   3.851  20.254  0.00  0.00    +0.000 N 
ATOM     13  C   UNL     1       1.445   4.881  21.056  0.00  0.00    +0.000 C 
ATOM     14  C   UNL     1       2.964   4.203  19.228  0.00  0.00    +0.000 C 
ATOM     15  N   UNL     1       3.962   5.016  19.485  0.00  0.00    +0.000 NA
ATOM     16  C   UNL     1       2.613   3.600  17.829  0.00  0.00    +0.000 C 
ENDBRANCH   1  15
BRANCH   7  17
ATOM     17  C   UNL     1       3.695   7.522  17.737  0.00  0.00    +0.000 C 
ATOM     18  O   UNL     1       3.436   8.021  16.642  0.00  0.00    +0.000 OA
ATOM     19  N   UNL     1       2.975   7.779  18.890  0.00  0.00    +0.000 N 
ATOM     20  H   UNL     1       3.383   7.445  19.764  0.00  0.00    +0.000 HD
BRANCH  19  21
ATOM     21  C   UNL     1       1.797   8.567  18.948  0.00  0.00    +0.000 A 
ATOM     22  C   UNL     1       1.197   9.132  17.814  0.00  0.00    +0.000 A 
ATOM     23  C   UNL     1       0.054   9.929  17.924  0.00  0.00    +0.000 A 
ATOM     24  C   UNL     1      -0.504  10.177  19.171  0.00  0.00    +0.000 A 
ATOM     25  C   UNL     1       0.070   9.605  20.304  0.00  0.00    +0.000 A 
ATOM     26  C   UNL     1       1.205   8.790  20.192  0.00  0.00    +0.000 A 
ENDBRANCH  19  21
ENDBRANCH   7  17
TORSDOF 3
ENDMDL
MODEL 2
REMARK VINA RESULT:      -7.5      3.648      5.960
REMARK  Name = 
REMARK  5 active torsions:
REMARK  status: ('A' for Active; 'I' for Inactive)
REMARK    1  A    between atoms: C_1  and  N_2
REMARK    2  A    between atoms: N_5  and  C_6
REMARK    3  A    between atoms: N_8  and  C_9
REMARK    4  A    between atoms: C_15  and  C_16
REMARK    5  A    between atoms: N_18  and  C_19
REMARK                            x       y       z     vdW  Elec       q    Type
REMARK                         _______ _______ _______ _____ _____    ______ ____
ROOT
ATOM      1  C   UNL     1       6.570   4.962  18.057  0.00  0.00    +0.000 A 
ATOM      2  C   UNL     1       7.416   5.744  18.865  0.00  0.00    +0.000 A 
ATOM      3  C   UNL     1       7.923   6.963  18.418  0.00  0.00    +0.000 A 
ATOM      4  F   UNL     1       8.578   7.755  19.275  0.00  0.00    +0.000 F 
ATOM      5  C   UNL     1       7.726   7.381  17.119  0.00  0.00    +0.000 A 
ATOM      6  C   UNL     1       7.042   6.541  16.250  0.00  0.00    +0.000 A 
ATOM      7  C   UNL     1       6.463   5.325  16.699  0.00  0.00    +0.000 A 
ENDROOT
BRANCH   1  15
ATOM      8  C   UNL     1       2.285   5.306  17.935  0.00  0.00    +0.000 C 
ATOM      9  N   UNL     1       2.549   5.263  19.371  0.00  0.00    +0.000 NA
ATOM     10  C   UNL     1       1.962   4.096  20.042  0.00  0.00    +0.000 C 
ATOM     11  C   UNL     1       2.602   2.746  19.668  0.00  0.00    +0.000 C 
ATOM     12  N   UNL     1       4.070   2.804  19.673  0.00  0.00    +0.000 N 
ATOM     13  C   UNL     1       4.781   1.823  20.476  0.00  0.00    +0.000 C 
ATOM     14  C   UNL     1       4.719   3.960  19.235  0.00  0.00    +0.000 C 
ATOM     15  N   UNL     1       5.863   3.855  18.599  0.00  0.00    +0.000 NA
ATOM     16  C   UNL     1       4.002   5.297  19.612  0.00  0.00    +0.000 C 
ENDBRANCH   1  15
BRANCH   7  17
ATOM     17  C   UNL     1       5.830   4.515  15.603  0.00  0.00    +0.000 C 
ATOM     18  O   UNL     1       4.770   3.946  15.864  0.00  0.00    +0.000 OA
ATOM     19  N   UNL     1       6.465   4.437  14.377  0.00  0.00    +0.000 N 
ATOM     20  H   UNL     1       7.415   4.806  14.333  0.00  0.00    +0.000 HD
BRANCH  19  21
ATOM     21  C   UNL     1       5.939   3.777  13.236  0.00  0.00    +0.000 A 
ATOM     22  C   UNL     1       4.660   4.034  12.724  0.00  0.00    +0.000 A 
ATOM     23  C   UNL     1       4.172   3.335  11.616  0.00  0.00    +0.000 A 
ATOM     24  C   UNL     1       4.956   2.365  11.005  0.00  0.00    +0.000 A 
ATOM     25  C   UNL     1       6.238   2.114  11.491  0.00  0.00    +0.000 A 
ATOM     26  C   UNL     1       6.734   2.829  12.590  0.00  0.00    +0.000 A 
ENDBRANCH  19  21
ENDBRANCH   7  17
TORSDOF 3
ENDMDL
MODEL 3
REMARK VINA RESULT:      -7.4      2.186      4.483
REMARK  Name = 
REMARK  5 active torsions:
REMARK  status: ('A' for Active; 'I' for Inactive)
REMARK    1  A    between atoms: C_1  and  N_2
REMARK    2  A    between atoms: N_5  and  C_6
REMARK    3  A    between atoms: N_8  and  C_9
REMARK    4  A    between atoms: C_15  and  C_16
REMARK    5  A    between atoms: N_18  and  C_19
REMARK                            x       y       z     vdW  Elec       q    Type
REMARK                         _______ _______ _______ _____ _____    ______ ____
ROOT
ATOM      1  C   UNL     1       3.948   4.259  19.194  0.00  0.00    +0.000 A 
ATOM      2  C   UNL     1       3.970   2.853  19.251  0.00  0.00    +0.000 A 
ATOM      3  C   UNL     1       2.870   2.093  18.855  0.00  0.00    +0.000 A 
ATOM      4  F   UNL     1       2.992   0.763  18.760  0.00  0.00    +0.000 F 
ATOM      5  C   UNL     1       1.675   2.694  18.524  0.00  0.00    +0.000 A 
ATOM      6  C   UNL     1       1.575   4.074  18.631  0.00  0.00    +0.000 A 
ATOM      7  C   UNL     1       2.698   4.873  18.970  0.00  0.00    +0.000 A 
ENDROOT
BRANCH   1  15
ATOM      8  C   UNL     1       5.033   6.703  15.826  0.00  0.00    +0.000 C 
ATOM      9  N   UNL     1       6.152   5.766  15.900  0.00  0.00    +0.000 NA
ATOM     10  C   UNL     1       7.441   6.412  16.181  0.00  0.00    +0.000 C 
ATOM     11  C   UNL     1       7.571   7.010  17.595  0.00  0.00    +0.000 C 
ATOM     12  N   UNL     1       7.085   6.093  18.634  0.00  0.00    +0.000 N 
ATOM     13  C   UNL     1       7.986   5.778  19.731  0.00  0.00    +0.000 C 
ATOM     14  C   UNL     1       5.973   5.286  18.383  0.00  0.00    +0.000 C 
ATOM     15  N   UNL     1       5.139   5.014  19.359  0.00  0.00    +0.000 NA
ATOM     16  C   UNL     1       5.877   4.741  16.920  0.00  0.00    +0.000 C 
ENDBRANCH   1  15
BRANCH   7  17
ATOM     17  C   UNL     1       2.382   6.335  19.111  0.00  0.00    +0.000 C 
ATOM     18  O   UNL     1       2.622   7.059  18.145  0.00  0.00    +0.000 OA
ATOM     19  N   UNL     1       1.856   6.793  20.306  0.00  0.00    +0.000 N 
ATOM     20  H   UNL     1       1.860   6.135  21.086  0.00  0.00    +0.000 HD
BRANCH  19  21
ATOM     21  C   UNL     1       1.437   8.128  20.544  0.00  0.00    +0.000 A 
ATOM     22  C   UNL     1       1.272   9.073  19.523  0.00  0.00    +0.000 A 
ATOM     23  C   UNL     1       0.889  10.386  19.810  0.00  0.00    +0.000 A 
ATOM     24  C   UNL     1       0.668  10.775  21.125  0.00  0.00    +0.000 A 
ATOM     25  C   UNL     1       0.809   9.840  22.148  0.00  0.00    +0.000 A 
ATOM     26  C   UNL     1       1.174   8.518  21.858  0.00  0.00    +0.000 A 
ENDBRANCH  19  21
ENDBRANCH   7  17
TORSDOF 3
ENDMDL
MODEL 4
REMARK VINA RESULT:      -7.3      2.247      4.584
REMARK  Name = 
REMARK  5 active torsions:
REMARK  status: ('A' for Active; 'I' for Inactive)
REMARK    1  A    between atoms: C_1  and  N_2
REMARK    2  A    between atoms: N_5  and  C_6
REMARK    3  A    between atoms: N_8  and  C_9
REMARK    4  A    between atoms: C_15  and  C_16
REMARK    5  A    between atoms: N_18  and  C_19
REMARK                            x       y       z     vdW  Elec       q    Type
REMARK                         _______ _______ _______ _____ _____    ______ ____
ROOT
ATOM      1  C   UNL     1       4.178   3.919  19.246  0.00  0.00    +0.000 A 
ATOM      2  C   UNL     1       4.403   2.536  19.123  0.00  0.00    +0.000 A 
ATOM      3  C   UNL     1       3.389   1.670  18.715  0.00  0.00    +0.000 A 
ATOM      4  F   UNL     1       3.687   0.393  18.443  0.00  0.00    +0.000 F 
ATOM      5  C   UNL     1       2.096   2.118  18.549  0.00  0.00    +0.000 A 
ATOM      6  C   UNL     1       1.814   3.446  18.836  0.00  0.00    +0.000 A 
ATOM      7  C   UNL     1       2.840   4.361  19.193  0.00  0.00    +0.000 A 
ENDROOT
BRANCH   1  15
ATOM      8  C   UNL     1       4.922   6.531  15.911  0.00  0.00    +0.000 C 
ATOM      9  N   UNL     1       6.154   5.748  15.969  0.00  0.00    +0.000 NA
ATOM     10  C   UNL     1       7.349   6.552  16.257  0.00  0.00    +0.000 C 
ATOM     11  C   UNL     1       7.405   7.142  17.678  0.00  0.00    +0.000 C 
ATOM     12  N   UNL     1       7.047   6.154  18.706  0.00  0.00    +0.000 N 
ATOM     13  C   UNL     1       7.986   5.945  19.796  0.00  0.00    +0.000 C 
ATOM     14  C   UNL     1       6.049   5.213  18.446  0.00  0.00    +0.000 C 
ATOM     15  N   UNL     1       5.262   4.822  19.420  0.00  0.00    +0.000 NA
ATOM     16  C   UNL     1       6.019   4.681  16.975  0.00  0.00    +0.000 C 
ENDBRANCH   1  15
BRANCH   7  17
ATOM     17  C   UNL     1       2.335   5.733  19.540  0.00  0.00    +0.000 C 
ATOM     18  O   UNL     1       1.884   5.896  20.674  0.00  0.00    +0.000 OA
ATOM     19  N   UNL     1       2.389   6.727  18.580  0.00  0.00    +0.000 N 
ATOM     20  H   UNL     1       2.623   6.432  17.632  0.00  0.00    +0.000 HD
BRANCH  19  21
ATOM     21  C   UNL     1       2.024   8.081  18.800  0.00  0.00    +0.000 A 
ATOM     22  C   UNL     1       1.389   8.523  19.968  0.00  0.00    +0.000 A 
ATOM     23  C   UNL     1       1.019   9.862  20.126  0.00  0.00    +0.000 A 
ATOM     24  C   UNL     1       1.276  10.779  19.115  0.00  0.00    +0.000 A 
ATOM     25  C   UNL     1       1.926  10.357  17.957  0.00  0.00    +0.000 A 
ATOM     26  C   UNL     1       2.314   9.018  17.807  0.00  0.00    +0.000 A 
ENDBRANCH  19  21
ENDBRANCH   7  17
TORSDOF 3
ENDMDL
MODEL 5
REMARK VINA RESULT:      -7.1      2.765      5.457
REMARK  Name = 
REMARK  5 active torsions:
REMARK  status: ('A' for Active; 'I' for Inactive)
REMARK    1  A    between atoms: C_1  and  N_2
REMARK    2  A    between atoms: N_5  and  C_6
REMARK    3  A    between atoms: N_8  and  C_9
REMARK    4  A    between atoms: C_15  and  C_16
REMARK    5  A    between atoms: N_18  and  C_19
REMARK                            x       y       z     vdW  Elec       q    Type
REMARK                         _______ _______ _______ _____ _____    ______ ____
ROOT
ATOM      1  C   UNL     1       2.399   6.812  19.768  0.00  0.00    +0.000 A 
ATOM      2  C   UNL     1       1.545   7.789  20.311  0.00  0.00    +0.000 A 
ATOM      3  C   UNL     1       1.181   8.921  19.583  0.00  0.00    +0.000 A 
ATOM      4  F   UNL     1       0.234   9.735  20.066  0.00  0.00    +0.000 F 
ATOM      5  C   UNL     1       1.751   9.190  18.357  0.00  0.00    +0.000 A 
ATOM      6  C   UNL     1       2.730   8.330  17.879  0.00  0.00    +0.000 A 
ATOM      7  C   UNL     1       3.072   7.140  18.572  0.00  0.00    +0.000 A 
ENDROOT
BRANCH   1  15
ATOM      8  C   UNL     1       2.609   3.435  17.113  0.00  0.00    +0.000 C 
ATOM      9  N   UNL     1       1.396   3.151  17.877  0.00  0.00    +0.000 NA
ATOM     10  C   UNL     1       1.481   1.924  18.680  0.00  0.00    +0.000 C 
ATOM     11  C   UNL     1       2.465   1.991  19.862  0.00  0.00    +0.000 C 
ATOM     12  N   UNL     1       2.332   3.238  20.629  0.00  0.00    +0.000 N 
ATOM     13  C   UNL     1       2.119   3.130  22.062  0.00  0.00    +0.000 C 
ATOM     14  C   UNL     1       2.052   4.434  19.964  0.00  0.00    +0.000 C 
ATOM     15  N   UNL     1       2.570   5.555  20.407  0.00  0.00    +0.000 NA
ATOM     16  C   UNL     1       1.077   4.295  18.749  0.00  0.00    +0.000 C 
ENDBRANCH   1  15
BRANCH   7  17
ATOM     17  C   UNL     1       4.202   6.375  17.943  0.00  0.00    +0.000 C 
ATOM     18  O   UNL     1       4.919   5.711  18.692  0.00  0.00    +0.000 OA
ATOM     19  N   UNL     1       4.389   6.463  16.575  0.00  0.00    +0.000 N 
ATOM     20  H   UNL     1       3.843   7.173  16.087  0.00  0.00    +0.000 HD
BRANCH  19  21
ATOM     21  C   UNL     1       5.361   5.732  15.845  0.00  0.00    +0.000 A 
ATOM     22  C   UNL     1       6.734   5.798  16.119  0.00  0.00    +0.000 A 
ATOM     23  C   UNL     1       7.659   5.084  15.351  0.00  0.00    +0.000 A 
ATOM     24  C   UNL     1       7.223   4.293  14.295  0.00  0.00    +0.000 A 
ATOM     25  C   UNL     1       5.859   4.202  14.025  0.00  0.00    +0.000 A 
ATOM     26  C   UNL     1       4.931   4.903  14.808  0.00  0.00    +0.000 A 
ENDBRANCH  19  21
ENDBRANCH   7  17
TORSDOF 3
ENDMDL
MODEL 6
REMARK VINA RESULT:      -7.1      3.318      4.996
REMARK  Name = 
REMARK  5 active torsions:
REMARK  status: ('A' for Active; 'I' for Inactive)
REMARK    1  A    between atoms: C_1  and  N_2
REMARK    2  A    between atoms: N_5  and  C_6
REMARK    3  A    between atoms: N_8  and  C_9
REMARK    4  A    between atoms: C_15  and  C_16
REMARK    5  A    between atoms: N_18  and  C_19
REMARK                            x       y       z     vdW  Elec       q    Type
REMARK                         _______ _______ _______ _____ _____    ______ ____
ROOT
ATOM      1  C   UNL     1       5.372   5.908  16.854  0.00  0.00    +0.000 A 
ATOM      2  C   UNL     1       4.840   5.158  15.788  0.00  0.00    +0.000 A 
ATOM      3  C   UNL     1       5.668   4.529  14.860  0.00  0.00    +0.000 A 
ATOM      4  F   UNL     1       5.132   3.686  13.968  0.00  0.00    +0.000 F 
ATOM      5  C   UNL     1       7.032   4.731  14.872  0.00  0.00    +0.000 A 
ATOM      6  C   UNL     1       7.562   5.609  15.808  0.00  0.00    +0.000 A 
ATOM      7  C   UNL     1       6.748   6.212  16.802  0.00  0.00    +0.000 A 
ENDROOT
BRANCH   1  15
ATOM      8  C   UNL     1       4.250   2.821  19.630  0.00  0.00    +0.000 C 
ATOM      9  N   UNL     1       2.959   3.217  19.073  0.00  0.00    +0.000 NA
ATOM     10  C   UNL     1       2.040   3.788  20.067  0.00  0.00    +0.000 C 
ATOM     11  C   UNL     1       2.461   5.160  20.625  0.00  0.00    +0.000 C 
ATOM     12  N   UNL     1       2.897   6.082  19.567  0.00  0.00    +0.000 N 
ATOM     13  C   UNL     1       2.255   7.384  19.501  0.00  0.00    +0.000 C 
ATOM     14  C   UNL     1       3.612   5.593  18.472  0.00  0.00    +0.000 C 
ATOM     15  N   UNL     1       4.546   6.336  17.927  0.00  0.00    +0.000 NA
ATOM     16  C   UNL     1       3.164   4.179  17.976  0.00  0.00    +0.000 C 
ENDBRANCH   1  15
BRANCH   7  17
ATOM     17  C   UNL     1       7.482   7.188  17.677  0.00  0.00    +0.000 C 
ATOM     18  O   UNL     1       8.005   6.745  18.700  0.00  0.00    +0.000 OA
ATOM     19  N   UNL     1       7.524   8.519  17.304  0.00  0.00    +0.000 N 
ATOM     20  H   UNL     1       6.915   8.795  16.533  0.00  0.00    +0.000 HD
BRANCH  19  21
ATOM     21  C   UNL     1       8.249   9.527  17.991  0.00  0.00    +0.000 A 
ATOM     22  C   UNL     1       8.981   9.282  19.161  0.00  0.00    +0.000 A 
ATOM     23  C   UNL     1       9.653  10.315  19.822  0.00  0.00    +0.000 A 
ATOM     24  C   UNL     1       9.600  11.610  19.323  0.00  0.00    +0.000 A 
ATOM     25  C   UNL     1       8.892  11.864  18.150  0.00  0.00    +0.000 A 
ATOM     26  C   UNL     1       8.235  10.825  17.477  0.00  0.00    +0.000 A 
ENDBRANCH  19  21
ENDBRANCH   7  17
TORSDOF 3
ENDMDL
MODEL 7
REMARK VINA RESULT:      -7.1      1.109      1.209
REMARK  Name = 
REMARK  5 active torsions:
REMARK  status: ('A' for Active; 'I' for Inactive)
REMARK    1  A    between atoms: C_1  and  N_2
REMARK    2  A    between atoms: N_5  and  C_6
REMARK    3  A    between atoms: N_8  and  C_9
REMARK    4  A    between atoms: C_15  and  C_16
REMARK    5  A    between atoms: N_18  and  C_19
REMARK                            x       y       z     vdW  Elec       q    Type
REMARK                         _______ _______ _______ _____ _____    ______ ____
ROOT
ATOM      1  C   UNL     1       4.424   5.406  17.886  0.00  0.00    +0.000 A 
ATOM      2  C   UNL     1       5.261   4.569  17.126  0.00  0.00    +0.000 A 
ATOM      3  C   UNL     1       6.008   5.066  16.058  0.00  0.00    +0.000 A 
ATOM      4  F   UNL     1       6.920   4.280  15.473  0.00  0.00    +0.000 F 
ATOM      5  C   UNL     1       5.848   6.365  15.624  0.00  0.00    +0.000 A 
ATOM      6  C   UNL     1       4.896   7.159  16.248  0.00  0.00    +0.000 A 
ATOM      7  C   UNL     1       4.170   6.696  17.376  0.00  0.00    +0.000 A 
ENDROOT
BRANCH   1  15
ATOM      8  C   UNL     1       2.350   1.645  17.665  0.00  0.00    +0.000 C 
ATOM      9  N   UNL     1       1.277   2.566  18.032  0.00  0.00    +0.000 NA
ATOM     10  C   UNL     1       0.679   2.280  19.343  0.00  0.00    +0.000 C 
ATOM     11  C   UNL     1       1.603   2.539  20.547  0.00  0.00    +0.000 C 
ATOM     12  N   UNL     1       2.307   3.825  20.443  0.00  0.00    +0.000 N 
ATOM     13  C   UNL     1       2.193   4.749  21.559  0.00  0.00    +0.000 C 
ATOM     14  C   UNL     1       2.742   4.278  19.196  0.00  0.00    +0.000 C 
ATOM     15  N   UNL     1       3.863   4.957  19.111  0.00  0.00    +0.000 NA
ATOM     16  C   UNL     1       1.780   3.951  18.008  0.00  0.00    +0.000 C 
ENDBRANCH   1  15
BRANCH   7  17
ATOM     17  C   UNL     1       3.133   7.665  17.869  0.00  0.00    +0.000 C 
ATOM     18  O   UNL     1       2.732   8.514  17.073  0.00  0.00    +0.000 OA
ATOM     19  N   UNL     1       2.694   7.566  19.177  0.00  0.00    +0.000 N 
ATOM     20  H   UNL     1       3.218   6.937  19.786  0.00  0.00    +0.000 HD
BRANCH  19  21
ATOM     21  C   UNL     1       1.664   8.360  19.745  0.00  0.00    +0.000 A 
ATOM     22  C   UNL     1       1.037   9.408  19.057  0.00  0.00    +0.000 A 
ATOM     23  C   UNL     1       0.049  10.184  19.670  0.00  0.00    +0.000 A 
ATOM     24  C   UNL     1      -0.325   9.926  20.982  0.00  0.00    +0.000 A 
ATOM     25  C   UNL     1       0.276   8.874  21.671  0.00  0.00    +0.000 A 
ATOM     26  C   UNL     1       1.253   8.083  21.050  0.00  0.00    +0.000 A 
ENDBRANCH  19  21
ENDBRANCH   7  17
TORSDOF 3
ENDMDL
MODEL 8
REMARK VINA RESULT:      -7.0      2.239      4.693
REMARK  Name = 
REMARK  5 active torsions:
REMARK  status: ('A' for Active; 'I' for Inactive)
REMARK    1  A    between atoms: C_1  and  N_2
REMARK    2  A    between atoms: N_5  and  C_6
REMARK    3  A    between atoms: N_8  and  C_9
REMARK    4  A    between atoms: C_15  and  C_16
REMARK    5  A    between atoms: N_18  and  C_19
REMARK                            x       y       z     vdW  Elec       q    Type
REMARK                         _______ _______ _______ _____ _____    ______ ____
ROOT
ATOM      1  C   UNL     1       3.770   4.141  19.343  0.00  0.00    +0.000 A 
ATOM      2  C   UNL     1       4.643   3.056  19.542  0.00  0.00    +0.000 A 
ATOM      3  C   UNL     1       4.345   2.042  20.452  0.00  0.00    +0.000 A 
ATOM      4  F   UNL     1       5.112   0.945  20.485  0.00  0.00    +0.000 F 
ATOM      5  C   UNL     1       3.252   2.135  21.286  0.00  0.00    +0.000 A 
ATOM      6  C   UNL     1       2.473   3.283  21.230  0.00  0.00    +0.000 A 
ATOM      7  C   UNL     1       2.720   4.299  20.271  0.00  0.00    +0.000 A 
ENDROOT
BRANCH   1  15
ATOM      8  C   UNL     1       7.825   4.521  17.962  0.00  0.00    +0.000 C 
ATOM      9  N   UNL     1       7.533   5.872  18.433  0.00  0.00    +0.000 NA
ATOM     10  C   UNL     1       7.577   6.888  17.373  0.00  0.00    +0.000 C 
ATOM     11  C   UNL     1       6.452   6.780  16.327  0.00  0.00    +0.000 C 
ATOM     12  N   UNL     1       5.135   6.570  16.944  0.00  0.00    +0.000 N 
ATOM     13  C   UNL     1       4.067   7.488  16.585  0.00  0.00    +0.000 C 
ATOM     14  C   UNL     1       5.023   5.772  18.085  0.00  0.00    +0.000 C 
ATOM     15  N   UNL     1       3.952   5.033  18.253  0.00  0.00    +0.000 NA
ATOM     16  C   UNL     1       6.215   5.897  19.090  0.00  0.00    +0.000 C 
ENDBRANCH   1  15
BRANCH   7  17
ATOM     17  C   UNL     1       1.823   5.496  20.412  0.00  0.00    +0.000 C 
ATOM     18  O   UNL     1       0.631   5.284  20.638  0.00  0.00    +0.000 OA
ATOM     19  N   UNL     1       2.368   6.760  20.270  0.00  0.00    +0.000 N 
ATOM     20  H   UNL     1       3.324   6.806  19.917  0.00  0.00    +0.000 HD
BRANCH  19  21
ATOM     21  C   UNL     1       1.654   7.972  20.458  0.00  0.00    +0.000 A 
ATOM     22  C   UNL     1       1.179   8.395  21.707  0.00  0.00    +0.000 A 
ATOM     23  C   UNL     1       0.452   9.582  21.838  0.00  0.00    +0.000 A 
ATOM     24  C   UNL     1       0.188  10.363  20.721  0.00  0.00    +0.000 A 
ATOM     25  C   UNL     1       0.672   9.965  19.476  0.00  0.00    +0.000 A 
ATOM     26  C   UNL     1       1.417   8.785  19.348  0.00  0.00    +0.000 A 
ENDBRANCH  19  21
ENDBRANCH   7  17
TORSDOF 3
ENDMDL
MODEL 9
REMARK VINA RESULT:      -7.0      3.331      5.836
REMARK  Name = 
REMARK  5 active torsions:
REMARK  status: ('A' for Active; 'I' for Inactive)
REMARK    1  A    between atoms: C_1  and  N_2
REMARK    2  A    between atoms: N_5  and  C_6
REMARK    3  A    between atoms: N_8  and  C_9
REMARK    4  A    between atoms: C_15  and  C_16
REMARK    5  A    between atoms: N_18  and  C_19
REMARK                            x       y       z     vdW  Elec       q    Type
REMARK                         _______ _______ _______ _____ _____    ______ ____
ROOT
ATOM      1  C   UNL     1       6.176   4.632  18.171  0.00  0.00    +0.000 A 
ATOM      2  C   UNL     1       6.880   4.790  19.378  0.00  0.00    +0.000 A 
ATOM      3  C   UNL     1       7.723   5.880  19.590  0.00  0.00    +0.000 A 
ATOM      4  F   UNL     1       8.235   6.086  20.810  0.00  0.00    +0.000 F 
ATOM      5  C   UNL     1       8.003   6.769  18.575  0.00  0.00    +0.000 A 
ATOM      6  C   UNL     1       7.458   6.533  17.320  0.00  0.00    +0.000 A 
ATOM      7  C   UNL     1       6.548   5.467  17.096  0.00  0.00    +0.000 A 
ENDROOT
BRANCH   1  15
ATOM      8  C   UNL     1       2.183   6.225  18.310  0.00  0.00    +0.000 C 
ATOM      9  N   UNL     1       2.218   5.378  19.500  0.00  0.00    +0.000 NA
ATOM     10  C   UNL     1       1.263   4.262  19.455  0.00  0.00    +0.000 C 
ATOM     11  C   UNL     1       1.585   3.176  18.412  0.00  0.00    +0.000 C 
ATOM     12  N   UNL     1       3.003   2.792  18.426  0.00  0.00    +0.000 N 
ATOM     13  C   UNL     1       3.318   1.381  18.575  0.00  0.00    +0.000 C 
ATOM     14  C   UNL     1       3.982   3.760  18.661  0.00  0.00    +0.000 C 
ATOM     15  N   UNL     1       5.140   3.668  18.051  0.00  0.00    +0.000 NA
ATOM     16  C   UNL     1       3.581   4.857  19.701  0.00  0.00    +0.000 C 
ENDBRANCH   1  15
BRANCH   7  17
ATOM     17  C   UNL     1       6.123   5.323  15.662  0.00  0.00    +0.000 C 
ATOM     18  O   UNL     1       5.583   6.296  15.134  0.00  0.00    +0.000 OA
ATOM     19  N   UNL     1       6.342   4.119  15.018  0.00  0.00    +0.000 N 
ATOM     20  H   UNL     1       6.638   3.337  15.603  0.00  0.00    +0.000 HD
BRANCH  19  21
ATOM     21  C   UNL     1       6.066   3.876  13.648  0.00  0.00    +0.000 A 
ATOM     22  C   UNL     1       4.796   3.520  13.173  0.00  0.00    +0.000 A 
ATOM     23  C   UNL     1       4.579   3.258  11.817  0.00  0.00    +0.000 A 
ATOM     24  C   UNL     1       5.631   3.346  10.915  0.00  0.00    +0.000 A 
ATOM     25  C   UNL     1       6.894   3.719  11.369  0.00  0.00    +0.000 A 
ATOM     26  C   UNL     1       7.107   4.000  12.726  0.00  0.00    +0.000 A 
ENDBRANCH  19  21
ENDBRANCH   7  17
TORSDOF 3
ENDMDL
