MODEL 1
REMARK VINA RESULT:      -8.1      0.000      0.000
REMARK  Name = 
REMARK  6 active torsions:
REMARK  status: ('A' for Active; 'I' for Inactive)
REMARK    1  A    between atoms: C_1  and  C_2
REMARK    2  A    between atoms: C_4  and  N_5
REMARK    3  A    between atoms: N_5  and  C_6
REMARK    4  A    between atoms: C_9  and  O_10
REMARK    5  A    between atoms: O_10  and  C_11
REMARK    6  A    between atoms: C_11  and  C_12
REMARK                            x       y       z     vdW  Elec       q    Type
REMARK                         _______ _______ _______ _____ _____    ______ ____
ROOT
ATOM      1  C   UNL     1       5.247   5.321  16.641  0.00  0.00    +0.000 A 
ATOM      2  C   UNL     1       5.257   6.707  16.823  0.00  0.00    +0.000 A 
ATOM      3  C   UNL     1       4.198   7.353  17.461  0.00  0.00    +0.000 A 
ATOM      4  C   UNL     1       3.100   6.625  17.932  0.00  0.00    +0.000 A 
ATOM      5  C   UNL     1       3.100   5.233  17.780  0.00  0.00    +0.000 A 
ATOM      6 CL   UNL     1       1.805   4.261  18.391  0.00  0.00    +0.000 Cl
ATOM      7  C   UNL     1       4.159   4.590  17.130  0.00  0.00    +0.000 A 
ENDROOT
BRANCH   1   8
ATOM      8  N   UNL     1       6.368   4.694  16.068  0.00  0.00    +0.000 N 
ATOM      9  H   UNL     1       7.220   4.818  16.602  0.00  0.00    +0.000 HD
BRANCH   8  13
ATOM     10  C   UNL     1       5.522   2.687  11.691  0.00  0.00    +0.000 C 
ATOM     11  C   UNL     1       6.282   3.608  12.596  0.00  0.00    +0.000 A 
ATOM     12  C   UNL     1       5.984   3.680  13.939  0.00  0.00    +0.000 A 
ATOM     13  C   UNL     1       6.680   4.609  14.693  0.00  0.00    +0.000 A 
ATOM     14  N   UNL     1       7.627   5.393  14.156  0.00  0.00    +0.000 NA
ATOM     15  C   UNL     1       7.872   5.222  12.850  0.00  0.00    +0.000 A 
ATOM     16  N   UNL     1       7.243   4.365  12.033  0.00  0.00    +0.000 NA
ENDBRANCH   8  13
ENDBRANCH   1   8
BRANCH   4  17
ATOM     17  O   UNL     1       2.020   7.204  18.552  0.00  0.00    +0.000 OA
BRANCH  17  18
ATOM     18  C   UNL     1       2.157   7.389  19.962  0.00  0.00    +0.000 C 
BRANCH  18  19
ATOM     19  C   UNL     1       1.273   8.493  20.483  0.00  0.00    +0.000 A 
ATOM     20  C   UNL     1       0.827   9.543  19.667  0.00  0.00    +0.000 A 
ATOM     21  C   UNL     1       0.090  10.600  20.208  0.00  0.00    +0.000 A 
ATOM     22  C   UNL     1      -0.198  10.624  21.574  0.00  0.00    +0.000 A 
ATOM     23  C   UNL     1       0.246   9.587  22.383  0.00  0.00    +0.000 A 
ATOM     24  F   UNL     1      -0.017   9.613  23.697  0.00  0.00    +0.000 F 
ATOM     25  C   UNL     1       0.975   8.530  21.856  0.00  0.00    +0.000 A 
ENDBRANCH  18  19
ENDBRANCH  17  18
ENDBRANCH   4  17
TORSDOF 5
ENDMDL
MODEL 2
REMARK VINA RESULT:      -8.0      5.489      7.696
REMARK  Name = 
REMARK  6 active torsions:
REMARK  status: ('A' for Active; 'I' for Inactive)
REMARK    1  A    between atoms: C_1  and  C_2
REMARK    2  A    between atoms: C_4  and  N_5
REMARK    3  A    between atoms: N_5  and  C_6
REMARK    4  A    between atoms: C_9  and  O_10
REMARK    5  A    between atoms: O_10  and  C_11
REMARK    6  A    between atoms: C_11  and  C_12
REMARK                            x       y       z     vdW  Elec       q    Type
REMARK                         _______ _______ _______ _____ _____    ______ ____
ROOT
ATOM      1  C   UNL     1       5.550   5.145  17.499  0.00  0.00    +0.000 A 
ATOM      2  C   UNL     1       5.656   6.339  16.781  0.00  0.00    +0.000 A 
ATOM      3  C   UNL     1       6.623   7.290  17.110  0.00  0.00    +0.000 A 
ATOM      4  C   UNL     1       7.507   7.067  18.171  0.00  0.00    +0.000 A 
ATOM      5  C   UNL     1       7.426   5.858  18.873  0.00  0.00    +0.000 A 
ATOM      6 CL   UNL     1       8.526   5.487  20.157  0.00  0.00    +0.000 Cl
ATOM      7  C   UNL     1       6.449   4.912  18.547  0.00  0.00    +0.000 A 
ENDROOT
BRANCH   1   8
ATOM      8  N   UNL     1       4.620   4.174  17.088  0.00  0.00    +0.000 N 
ATOM      9  H   UNL     1       4.246   4.336  16.160  0.00  0.00    +0.000 HD
BRANCH   8  13
ATOM     10  C   UNL     1       1.132   4.530  20.494  0.00  0.00    +0.000 C 
ATOM     11  C   UNL     1       1.983   3.731  19.556  0.00  0.00    +0.000 A 
ATOM     12  C   UNL     1       2.946   4.342  18.784  0.00  0.00    +0.000 A 
ATOM     13  C   UNL     1       3.640   3.547  17.889  0.00  0.00    +0.000 A 
ATOM     14  N   UNL     1       3.411   2.229  17.785  0.00  0.00    +0.000 NA
ATOM     15  C   UNL     1       2.482   1.720  18.605  0.00  0.00    +0.000 A 
ATOM     16  N   UNL     1       1.747   2.407  19.492  0.00  0.00    +0.000 NA
ENDBRANCH   8  13
ENDBRANCH   1   8
BRANCH   4  17
ATOM     17  O   UNL     1       8.468   7.970  18.555  0.00  0.00    +0.000 OA
BRANCH  17  18
ATOM     18  C   UNL     1       8.288   9.297  18.056  0.00  0.00    +0.000 C 
BRANCH  18  19
ATOM     19  C   UNL     1       9.257  10.276  18.669  0.00  0.00    +0.000 A 
ATOM     20  C   UNL     1       9.326  10.494  20.053  0.00  0.00    +0.000 A 
ATOM     21  C   UNL     1      10.168  11.480  20.575  0.00  0.00    +0.000 A 
ATOM     22  C   UNL     1      10.942  12.264  19.718  0.00  0.00    +0.000 A 
ATOM     23  C   UNL     1      10.873  12.050  18.348  0.00  0.00    +0.000 A 
ATOM     24  F   UNL     1      11.604  12.811  17.521  0.00  0.00    +0.000 F 
ATOM     25  C   UNL     1      10.042  11.072  17.818  0.00  0.00    +0.000 A 
ENDBRANCH  18  19
ENDBRANCH  17  18
ENDBRANCH   4  17
TORSDOF 5
ENDMDL
MODEL 3
REMARK VINA RESULT:      -8.0      2.260      3.499
REMARK  Name = 
REMARK  6 active torsions:
REMARK  status: ('A' for Active; 'I' for Inactive)
REMARK    1  A    between atoms: C_1  and  C_2
REMARK    2  A    between atoms: C_4  and  N_5
REMARK    3  A    between atoms: N_5  and  C_6
REMARK    4  A    between atoms: C_9  and  O_10
REMARK    5  A    between atoms: O_10  and  C_11
REMARK    6  A    between atoms: C_11  and  C_12
REMARK                            x       y       z     vdW  Elec       q    Type
REMARK                         _______ _______ _______ _____ _____    ______ ____
ROOT
ATOM      1  C   UNL     1       3.431   5.013  19.234  0.00  0.00    +0.000 A 
ATOM      2  C   UNL     1       2.687   4.736  20.385  0.00  0.00    +0.000 A 
ATOM      3  C   UNL     1       1.800   5.678  20.908  0.00  0.00    +0.000 A 
ATOM      4  C   UNL     1       1.639   6.923  20.291  0.00  0.00    +0.000 A 
ATOM      5  C   UNL     1       2.358   7.193  19.121  0.00  0.00    +0.000 A 
ATOM      6 CL   UNL     1       2.165   8.688  18.269  0.00  0.00    +0.000 Cl
ATOM      7  C   UNL     1       3.254   6.251  18.605  0.00  0.00    +0.000 A 
ENDROOT
BRANCH   1   8
ATOM      8  N   UNL     1       4.252   4.011  18.688  0.00  0.00    +0.000 N 
ATOM      9  H   UNL     1       4.364   3.204  19.291  0.00  0.00    +0.000 HD
BRANCH   8  13
ATOM     10  C   UNL     1       6.441   4.196  14.321  0.00  0.00    +0.000 C 
ATOM     11  C   UNL     1       6.475   4.254  15.817  0.00  0.00    +0.000 A 
ATOM     12  C   UNL     1       5.329   4.057  16.556  0.00  0.00    +0.000 A 
ATOM     13  C   UNL     1       5.428   4.201  17.929  0.00  0.00    +0.000 A 
ATOM     14  N   UNL     1       6.592   4.494  18.530  0.00  0.00    +0.000 NA
ATOM     15  C   UNL     1       7.657   4.629  17.730  0.00  0.00    +0.000 A 
ATOM     16  N   UNL     1       7.662   4.527  16.393  0.00  0.00    +0.000 NA
ENDBRANCH   8  13
ENDBRANCH   1   8
BRANCH   4  17
ATOM     17  O   UNL     1       0.796   7.898  20.767  0.00  0.00    +0.000 OA
BRANCH  17  18
ATOM     18  C   UNL     1       1.353   8.743  21.775  0.00  0.00    +0.000 C 
BRANCH  18  19
ATOM     19  C   UNL     1       0.492   9.949  22.051  0.00  0.00    +0.000 A 
ATOM     20  C   UNL     1      -0.526   9.937  23.017  0.00  0.00    +0.000 A 
ATOM     21  C   UNL     1      -1.367  11.042  23.176  0.00  0.00    +0.000 A 
ATOM     22  C   UNL     1      -1.206  12.165  22.365  0.00  0.00    +0.000 A 
ATOM     23  C   UNL     1      -0.202  12.178  21.407  0.00  0.00    +0.000 A 
ATOM     24  F   UNL     1      -0.053  13.249  20.616  0.00  0.00    +0.000 F 
ATOM     25  C   UNL     1       0.643  11.087  21.242  0.00  0.00    +0.000 A 
ENDBRANCH  18  19
ENDBRANCH  17  18
ENDBRANCH   4  17
TORSDOF 5
ENDMDL
MODEL 4
REMARK VINA RESULT:      -8.0      2.112      3.268
REMARK  Name = 
REMARK  6 active torsions:
REMARK  status: ('A' for Active; 'I' for Inactive)
REMARK    1  A    between atoms: C_1  and  C_2
REMARK    2  A    between atoms: C_4  and  N_5
REMARK    3  A    between atoms: N_5  and  C_6
REMARK    4  A    between atoms: C_9  and  O_10
REMARK    5  A    between atoms: O_10  and  C_11
REMARK    6  A    between atoms: C_11  and  C_12
REMARK                            x       y       z     vdW  Elec       q    Type
REMARK                         _______ _______ _______ _____ _____    ______ ____
ROOT
ATOM      1  C   UNL     1       3.481   4.958  19.251  0.00  0.00    +0.000 A 
ATOM      2  C   UNL     1       2.723   4.646  20.382  0.00  0.00    +0.000 A 
ATOM      3  C   UNL     1       1.808   5.561  20.906  0.00  0.00    +0.000 A 
ATOM      4  C   UNL     1       1.634   6.814  20.308  0.00  0.00    +0.000 A 
ATOM      5  C   UNL     1       2.369   7.118  19.155  0.00  0.00    +0.000 A 
ATOM      6 CL   UNL     1       2.161   8.623  18.327  0.00  0.00    +0.000 Cl
ATOM      7  C   UNL     1       3.292   6.203  18.640  0.00  0.00    +0.000 A 
ENDROOT
BRANCH   1   8
ATOM      8  N   UNL     1       4.332   3.981  18.702  0.00  0.00    +0.000 N 
ATOM      9  H   UNL     1       4.477   3.182  19.308  0.00  0.00    +0.000 HD
BRANCH   8  13
ATOM     10  C   UNL     1       6.461   4.282  14.311  0.00  0.00    +0.000 C 
ATOM     11  C   UNL     1       6.513   4.316  15.808  0.00  0.00    +0.000 A 
ATOM     12  C   UNL     1       5.381   4.084  16.558  0.00  0.00    +0.000 A 
ATOM     13  C   UNL     1       5.494   4.207  17.932  0.00  0.00    +0.000 A 
ATOM     14  N   UNL     1       6.659   4.515  18.523  0.00  0.00    +0.000 NA
ATOM     15  C   UNL     1       7.712   4.684  17.712  0.00  0.00    +0.000 A 
ATOM     16  N   UNL     1       7.701   4.604  16.374  0.00  0.00    +0.000 NA
ENDBRANCH   8  13
ENDBRANCH   1   8
BRANCH   4  17
ATOM     17  O   UNL     1       0.763   7.763  20.784  0.00  0.00    +0.000 OA
BRANCH  17  18
ATOM     18  C   UNL     1       1.328   8.693  21.711  0.00  0.00    +0.000 C 
BRANCH  18  19
ATOM     19  C   UNL     1       0.547   9.980  21.778  0.00  0.00    +0.000 A 
ATOM     20  C   UNL     1       0.931  11.127  21.065  0.00  0.00    +0.000 A 
ATOM     21  C   UNL     1       0.239  12.330  21.229  0.00  0.00    +0.000 A 
ATOM     22  C   UNL     1      -0.837  12.402  22.115  0.00  0.00    +0.000 A 
ATOM     23  C   UNL     1      -1.216  11.270  22.823  0.00  0.00    +0.000 A 
ATOM     24  F   UNL     1      -2.240  11.339  23.685  0.00  0.00    +0.000 F 
ATOM     25  C   UNL     1      -0.539  10.068  22.666  0.00  0.00    +0.000 A 
ENDBRANCH  18  19
ENDBRANCH  17  18
ENDBRANCH   4  17
TORSDOF 5
ENDMDL
MODEL 5
REMARK VINA RESULT:      -8.0      1.227      1.567
REMARK  Name = 
REMARK  6 active torsions:
REMARK  status: ('A' for Active; 'I' for Inactive)
REMARK    1  A    between atoms: C_1  and  C_2
REMARK    2  A    between atoms: C_4  and  N_5
REMARK    3  A    between atoms: N_5  and  C_6
REMARK    4  A    between atoms: C_9  and  O_10
REMARK    5  A    between atoms: O_10  and  C_11
REMARK    6  A    between atoms: C_11  and  C_12
REMARK                            x       y       z     vdW  Elec       q    Type
REMARK                         _______ _______ _______ _____ _____    ______ ____
ROOT
ATOM      1  C   UNL     1       5.452   5.165  16.530  0.00  0.00    +0.000 A 
ATOM      2  C   UNL     1       5.361   6.503  16.924  0.00  0.00    +0.000 A 
ATOM      3  C   UNL     1       4.250   6.968  17.629  0.00  0.00    +0.000 A 
ATOM      4  C   UNL     1       3.201   6.102  17.956  0.00  0.00    +0.000 A 
ATOM      5  C   UNL     1       3.303   4.753  17.591  0.00  0.00    +0.000 A 
ATOM      6 CL   UNL     1       2.073   3.612  18.014  0.00  0.00    +0.000 Cl
ATOM      7  C   UNL     1       4.413   4.293  16.875  0.00  0.00    +0.000 A 
ENDROOT
BRANCH   1   8
ATOM      8  N   UNL     1       6.622   4.713  15.894  0.00  0.00    +0.000 N 
ATOM      9  H   UNL     1       7.475   5.011  16.352  0.00  0.00    +0.000 HD
BRANCH   8  13
ATOM     10  C   UNL     1       5.553   2.593  11.620  0.00  0.00    +0.000 C 
ATOM     11  C   UNL     1       6.340   3.556  12.455  0.00  0.00    +0.000 A 
ATOM     12  C   UNL     1       6.130   3.646  13.813  0.00  0.00    +0.000 A 
ATOM     13  C   UNL     1       6.844   4.611  14.503  0.00  0.00    +0.000 A 
ATOM     14  N   UNL     1       7.725   5.415  13.888  0.00  0.00    +0.000 NA
ATOM     15  C   UNL     1       7.887   5.226  12.572  0.00  0.00    +0.000 A 
ATOM     16  N   UNL     1       7.234   4.333  11.815  0.00  0.00    +0.000 NA
ENDBRANCH   8  13
ENDBRANCH   1   8
BRANCH   4  17
ATOM     17  O   UNL     1       2.075   6.501  18.632  0.00  0.00    +0.000 OA
BRANCH  17  18
ATOM     18  C   UNL     1       2.308   7.031  19.939  0.00  0.00    +0.000 C 
BRANCH  18  19
ATOM     19  C   UNL     1       1.458   8.243  20.225  0.00  0.00    +0.000 A 
ATOM     20  C   UNL     1       0.764   8.402  21.434  0.00  0.00    +0.000 A 
ATOM     21  C   UNL     1      -0.091   9.491  21.624  0.00  0.00    +0.000 A 
ATOM     22  C   UNL     1      -0.269  10.427  20.603  0.00  0.00    +0.000 A 
ATOM     23  C   UNL     1       0.415  10.269  19.406  0.00  0.00    +0.000 A 
ATOM     24  F   UNL     1       0.236  11.157  18.418  0.00  0.00    +0.000 F 
ATOM     25  C   UNL     1       1.270   9.193  19.207  0.00  0.00    +0.000 A 
ENDBRANCH  18  19
ENDBRANCH  17  18
ENDBRANCH   4  17
TORSDOF 5
ENDMDL
MODEL 6
REMARK VINA RESULT:      -7.9      4.394      8.745
REMARK  Name = 
REMARK  6 active torsions:
REMARK  status: ('A' for Active; 'I' for Inactive)
REMARK    1  A    between atoms: C_1  and  C_2
REMARK    2  A    between atoms: C_4  and  N_5
REMARK    3  A    between atoms: N_5  and  C_6
REMARK    4  A    between atoms: C_9  and  O_10
REMARK    5  A    between atoms: O_10  and  C_11
REMARK    6  A    between atoms: C_11  and  C_12
REMARK                            x       y       z     vdW  Elec       q    Type
REMARK                         _______ _______ _______ _____ _____    ______ ____
ROOT
ATOM      1  C   UNL     1       2.005   6.859  20.293  0.00  0.00    +0.000 A 
ATOM      2  C   UNL     1       2.550   7.139  19.037  0.00  0.00    +0.000 A 
ATOM      3  C   UNL     1       2.705   6.132  18.083  0.00  0.00    +0.000 A 
ATOM      4  C   UNL     1       2.319   4.818  18.366  0.00  0.00    +0.000 A 
ATOM      5  C   UNL     1       1.742   4.539  19.612  0.00  0.00    +0.000 A 
ATOM      6 CL   UNL     1       1.185   2.950  20.011  0.00  0.00    +0.000 Cl
ATOM      7  C   UNL     1       1.599   5.548  20.570  0.00  0.00    +0.000 A 
ENDROOT
BRANCH   1   8
ATOM      8  N   UNL     1       1.787   7.912  21.199  0.00  0.00    +0.000 N 
ATOM      9  H   UNL     1       1.782   7.619  22.169  0.00  0.00    +0.000 HD
BRANCH   8  13
ATOM     10  C   UNL     1      -1.360  11.103  23.152  0.00  0.00    +0.000 C 
ATOM     11  C   UNL     1      -0.631  10.516  21.982  0.00  0.00    +0.000 A 
ATOM     12  C   UNL     1       0.216   9.442  22.146  0.00  0.00    +0.000 A 
ATOM     13  C   UNL     1       0.910   9.006  21.031  0.00  0.00    +0.000 A 
ATOM     14  N   UNL     1       0.753   9.580  19.829  0.00  0.00    +0.000 NA
ATOM     15  C   UNL     1      -0.121  10.593  19.762  0.00  0.00    +0.000 A 
ATOM     16  N   UNL     1      -0.826  11.098  20.784  0.00  0.00    +0.000 NA
ENDBRANCH   8  13
ENDBRANCH   1   8
BRANCH   4  17
ATOM     17  O   UNL     1       2.461   3.780  17.478  0.00  0.00    +0.000 OA
BRANCH  17  18
ATOM     18  C   UNL     1       3.701   3.076  17.560  0.00  0.00    +0.000 C 
BRANCH  18  19
ATOM     19  C   UNL     1       4.858   3.891  17.039  0.00  0.00    +0.000 A 
ATOM     20  C   UNL     1       4.987   4.225  15.683  0.00  0.00    +0.000 A 
ATOM     21  C   UNL     1       6.122   4.897  15.222  0.00  0.00    +0.000 A 
ATOM     22  C   UNL     1       7.145   5.231  16.110  0.00  0.00    +0.000 A 
ATOM     23  C   UNL     1       7.021   4.898  17.452  0.00  0.00    +0.000 A 
ATOM     24  F   UNL     1       8.007   5.205  18.305  0.00  0.00    +0.000 F 
ATOM     25  C   UNL     1       5.895   4.234  17.922  0.00  0.00    +0.000 A 
ENDBRANCH  18  19
ENDBRANCH  17  18
ENDBRANCH   4  17
TORSDOF 5
ENDMDL
MODEL 7
REMARK VINA RESULT:      -7.8      4.596      8.831
REMARK  Name = 
REMARK  6 active torsions:
REMARK  status: ('A' for Active; 'I' for Inactive)
REMARK    1  A    between atoms: C_1  and  C_2
REMARK    2  A    between atoms: C_4  and  N_5
REMARK    3  A    between atoms: N_5  and  C_6
REMARK    4  A    between atoms: C_9  and  O_10
REMARK    5  A    between atoms: O_10  and  C_11
REMARK    6  A    between atoms: C_11  and  C_12
REMARK                            x       y       z     vdW  Elec       q    Type
REMARK                         _______ _______ _______ _____ _____    ______ ____
ROOT
ATOM      1  C   UNL     1       1.972   6.829  20.309  0.00  0.00    +0.000 A 
ATOM      2  C   UNL     1       2.507   7.136  19.055  0.00  0.00    +0.000 A 
ATOM      3  C   UNL     1       2.676   6.146  18.087  0.00  0.00    +0.000 A 
ATOM      4  C   UNL     1       2.315   4.821  18.353  0.00  0.00    +0.000 A 
ATOM      5  C   UNL     1       1.749   4.514  19.596  0.00  0.00    +0.000 A 
ATOM      6 CL   UNL     1       1.222   2.909  19.974  0.00  0.00    +0.000 Cl
ATOM      7  C   UNL     1       1.591   5.507  20.569  0.00  0.00    +0.000 A 
ENDROOT
BRANCH   1   8
ATOM      8  N   UNL     1       1.739   7.865  21.231  0.00  0.00    +0.000 N 
ATOM      9  H   UNL     1       1.699   7.551  22.194  0.00  0.00    +0.000 HD
BRANCH   8  13
ATOM     10  C   UNL     1      -1.375  11.098  23.168  0.00  0.00    +0.000 C 
ATOM     11  C   UNL     1      -0.644  10.505  22.003  0.00  0.00    +0.000 A 
ATOM     12  C   UNL     1       0.183   9.416  22.170  0.00  0.00    +0.000 A 
ATOM     13  C   UNL     1       0.881   8.973  21.060  0.00  0.00    +0.000 A 
ATOM     14  N   UNL     1       0.746   9.556  19.858  0.00  0.00    +0.000 NA
ATOM     15  C   UNL     1      -0.111  10.583  19.787  0.00  0.00    +0.000 A 
ATOM     16  N   UNL     1      -0.818  11.095  20.805  0.00  0.00    +0.000 NA
ENDBRANCH   8  13
ENDBRANCH   1   8
BRANCH   4  17
ATOM     17  O   UNL     1       2.472   3.799  17.449  0.00  0.00    +0.000 OA
BRANCH  17  18
ATOM     18  C   UNL     1       3.665   3.029  17.605  0.00  0.00    +0.000 C 
BRANCH  18  19
ATOM     19  C   UNL     1       4.903   3.812  17.248  0.00  0.00    +0.000 A 
ATOM     20  C   UNL     1       5.793   4.291  18.222  0.00  0.00    +0.000 A 
ATOM     21  C   UNL     1       6.876   5.096  17.860  0.00  0.00    +0.000 A 
ATOM     22  C   UNL     1       7.074   5.440  16.522  0.00  0.00    +0.000 A 
ATOM     23  C   UNL     1       6.193   4.970  15.558  0.00  0.00    +0.000 A 
ATOM     24  F   UNL     1       6.373   5.310  14.274  0.00  0.00    +0.000 F 
ATOM     25  C   UNL     1       5.116   4.166  15.905  0.00  0.00    +0.000 A 
ENDBRANCH  18  19
ENDBRANCH  17  18
ENDBRANCH   4  17
TORSDOF 5
ENDMDL
MODEL 8
REMARK VINA RESULT:      -7.7      4.312      6.112
REMARK  Name = 
REMARK  6 active torsions:
REMARK  status: ('A' for Active; 'I' for Inactive)
REMARK    1  A    between atoms: C_1  and  C_2
REMARK    2  A    between atoms: C_4  and  N_5
REMARK    3  A    between atoms: N_5  and  C_6
REMARK    4  A    between atoms: C_9  and  O_10
REMARK    5  A    between atoms: O_10  and  C_11
REMARK    6  A    between atoms: C_11  and  C_12
REMARK                            x       y       z     vdW  Elec       q    Type
REMARK                         _______ _______ _______ _____ _____    ______ ____
ROOT
ATOM      1  C   UNL     1       2.258   7.466  19.513  0.00  0.00    +0.000 A 
ATOM      2  C   UNL     1       2.104   7.968  18.218  0.00  0.00    +0.000 A 
ATOM      3  C   UNL     1       1.326   9.102  17.977  0.00  0.00    +0.000 A 
ATOM      4  C   UNL     1       0.680   9.758  19.030  0.00  0.00    +0.000 A 
ATOM      5  C   UNL     1       0.857   9.277  20.333  0.00  0.00    +0.000 A 
ATOM      6 CL   UNL     1       0.138  10.073  21.692  0.00  0.00    +0.000 Cl
ATOM      7  C   UNL     1       1.629   8.135  20.570  0.00  0.00    +0.000 A 
ENDROOT
BRANCH   1   8
ATOM      8  N   UNL     1       3.115   6.373  19.730  0.00  0.00    +0.000 N 
ATOM      9  H   UNL     1       4.083   6.637  19.874  0.00  0.00    +0.000 HD
BRANCH   8  13
ATOM     10  C   UNL     1       0.636   2.274  18.752  0.00  0.00    +0.000 C 
ATOM     11  C   UNL     1       1.863   3.128  18.659  0.00  0.00    +0.000 A 
ATOM     12  C   UNL     1       1.920   4.351  19.290  0.00  0.00    +0.000 A 
ATOM     13  C   UNL     1       3.059   5.113  19.094  0.00  0.00    +0.000 A 
ATOM     14  N   UNL     1       4.083   4.678  18.343  0.00  0.00    +0.000 NA
ATOM     15  C   UNL     1       3.949   3.460  17.802  0.00  0.00    +0.000 A 
ATOM     16  N   UNL     1       2.884   2.655  17.918  0.00  0.00    +0.000 NA
ENDBRANCH   8  13
ENDBRANCH   1   8
BRANCH   4  17
ATOM     17  O   UNL     1      -0.112  10.866  18.856  0.00  0.00    +0.000 OA
BRANCH  17  18
ATOM     18  C   UNL     1      -1.493  10.680  19.171  0.00  0.00    +0.000 C 
BRANCH  18  19
ATOM     19  C   UNL     1      -2.385  10.868  17.971  0.00  0.00    +0.000 A 
ATOM     20  C   UNL     1      -3.639  11.493  18.060  0.00  0.00    +0.000 A 
ATOM     21  C   UNL     1      -4.479  11.560  16.945  0.00  0.00    +0.000 A 
ATOM     22  C   UNL     1      -4.080  10.995  15.733  0.00  0.00    +0.000 A 
ATOM     23  C   UNL     1      -2.842  10.375  15.645  0.00  0.00    +0.000 A 
ATOM     24  F   UNL     1      -2.461   9.819  14.486  0.00  0.00    +0.000 F 
ATOM     25  C   UNL     1      -1.996  10.304  16.744  0.00  0.00    +0.000 A 
ENDBRANCH  18  19
ENDBRANCH  17  18
ENDBRANCH   4  17
TORSDOF 5
ENDMDL
MODEL 9
REMARK VINA RESULT:      -7.7      4.454      8.499
REMARK  Name = 
REMARK  6 active torsions:
REMARK  status: ('A' for Active; 'I' for Inactive)
REMARK    1  A    between atoms: C_1  and  C_2
REMARK    2  A    between atoms: C_4  and  N_5
REMARK    3  A    between atoms: N_5  and  C_6
REMARK    4  A    between atoms: C_9  and  O_10
REMARK    5  A    between atoms: O_10  and  C_11
REMARK    6  A    between atoms: C_11  and  C_12
REMARK                            x       y       z     vdW  Elec       q    Type
REMARK                         _______ _______ _______ _____ _____    ______ ____
ROOT
ATOM      1  C   UNL     1       1.910   7.178  20.354  0.00  0.00    +0.000 A 
ATOM      2  C   UNL     1       2.450   7.427  19.090  0.00  0.00    +0.000 A 
ATOM      3  C   UNL     1       2.630   6.392  18.171  0.00  0.00    +0.000 A 
ATOM      4  C   UNL     1       2.273   5.080  18.499  0.00  0.00    +0.000 A 
ATOM      5  C   UNL     1       1.702   4.830  19.753  0.00  0.00    +0.000 A 
ATOM      6 CL   UNL     1       1.180   3.243  20.205  0.00  0.00    +0.000 Cl
ATOM      7  C   UNL     1       1.533   5.869  20.675  0.00  0.00    +0.000 A 
ENDROOT
BRANCH   1   8
ATOM      8  N   UNL     1       1.666   8.256  21.224  0.00  0.00    +0.000 N 
ATOM      9  H   UNL     1       1.520   7.977  22.187  0.00  0.00    +0.000 HD
BRANCH   8  13
ATOM     10  C   UNL     1      -1.688  10.506  18.470  0.00  0.00    +0.000 C 
ATOM     11  C   UNL     1      -0.692  10.494  19.588  0.00  0.00    +0.000 A 
ATOM     12  C   UNL     1       0.059   9.370  19.850  0.00  0.00    +0.000 A 
ATOM     13  C   UNL     1       0.903   9.412  20.946  0.00  0.00    +0.000 A 
ATOM     14  N   UNL     1       1.012  10.506  21.715  0.00  0.00    +0.000 NA
ATOM     15  C   UNL     1       0.269  11.562  21.358  0.00  0.00    +0.000 A 
ATOM     16  N   UNL     1      -0.587  11.614  20.328  0.00  0.00    +0.000 NA
ENDBRANCH   8  13
ENDBRANCH   1   8
BRANCH   4  17
ATOM     17  O   UNL     1       2.441   4.016  17.647  0.00  0.00    +0.000 OA
BRANCH  17  18
ATOM     18  C   UNL     1       3.655   3.283  17.823  0.00  0.00    +0.000 C 
BRANCH  18  19
ATOM     19  C   UNL     1       4.841   3.984  17.212  0.00  0.00    +0.000 A 
ATOM     20  C   UNL     1       4.982   4.148  15.826  0.00  0.00    +0.000 A 
ATOM     21  C   UNL     1       6.142   4.716  15.292  0.00  0.00    +0.000 A 
ATOM     22  C   UNL     1       7.178   5.115  16.137  0.00  0.00    +0.000 A 
ATOM     23  C   UNL     1       7.042   4.950  17.509  0.00  0.00    +0.000 A 
ATOM     24  F   UNL     1       8.040   5.319  18.323  0.00  0.00    +0.000 F 
ATOM     25  C   UNL     1       5.892   4.391  18.051  0.00  0.00    +0.000 A 
ENDBRANCH  18  19
ENDBRANCH  17  18
ENDBRANCH   4  17
TORSDOF 5
ENDMDL
