MODEL 1
REMARK VINA RESULT:      -8.1      0.000      0.000
REMARK  Name = 
REMARK  9 active torsions:
REMARK  status: ('A' for Active; 'I' for Inactive)
REMARK    1  A    between atoms: C_2  and  O_3
REMARK    2  A    between atoms: C_2  and  C_4
REMARK    3  A    between atoms: C_4  and  S_5
REMARK    4  A    between atoms: S_5  and  C_6
REMARK    5  A    between atoms: C_9  and  C_10
REMARK    6  A    between atoms: C_10  and  O_11
REMARK    7  A    between atoms: O_11  and  C_12
REMARK    8  A    between atoms: N_22  and  C_23
REMARK    9  A    between atoms: C_23  and  C_24
REMARK                            x       y       z     vdW  Elec       q    Type
REMARK                         _______ _______ _______ _____ _____    ______ ____
ROOT
ATOM      1  C   UNL     1       5.299   6.155  17.548  0.00  0.00    +0.000 A 
ATOM      2  N   UNL     1       5.072   7.261  16.880  0.00  0.00    +0.000 NA
ATOM      3  N   UNL     1       3.815   7.697  17.216  0.00  0.00    +0.000 NA
ATOM      4  C   UNL     1       3.317   6.874  18.125  0.00  0.00    +0.000 A 
ATOM      5  N   UNL     1       4.248   5.888  18.383  0.00  0.00    +0.000 N 
ENDROOT
BRANCH   1   6
ATOM      6  S   UNL     1       6.741   5.213  17.445  0.00  0.00    +0.000 S 
BRANCH   6   7
ATOM      7  C   UNL     1       6.270   4.005  16.176  0.00  0.00    +0.000 C 
BRANCH   7   9
ATOM      8  O   UNL     1       7.538   5.397  14.660  0.00  0.00    +0.000 OA
ATOM      9  C   UNL     1       6.821   4.420  14.833  0.00  0.00    +0.000 C 
BRANCH   9  10
ATOM     10  O   UNL     1       6.415   3.638  13.803  0.00  0.00    +0.000 OA
ATOM     11  H   UNL     1       5.597   3.938  13.351  0.00  0.00    +0.000 HD
ENDBRANCH   9  10
ENDBRANCH   7   9
ENDBRANCH   6   7
ENDBRANCH   1   6
BRANCH   4  12
ATOM     12  C   UNL     1       1.989   6.994  18.792  0.00  0.00    +0.000 C 
BRANCH  12  13
ATOM     13  O   UNL     1       2.041   8.095  19.700  0.00  0.00    +0.000 OA
BRANCH  13  14
ATOM     14  C   UNL     1       1.137   9.127  19.577  0.00  0.00    +0.000 A 
ATOM     15  C   UNL     1       0.817   9.757  18.368  0.00  0.00    +0.000 A 
ATOM     16  C   UNL     1      -0.109  10.799  18.335  0.00  0.00    +0.000 A 
ATOM     17  C   UNL     1      -0.714  11.237  19.510  0.00  0.00    +0.000 A 
ATOM     18  C   UNL     1      -0.409  10.635  20.736  0.00  0.00    +0.000 A 
ATOM     19  C   UNL     1      -1.023  11.086  21.917  0.00  0.00    +0.000 A 
ATOM     20  C   UNL     1      -0.739  10.491  23.144  0.00  0.00    +0.000 A 
ATOM     21  C   UNL     1       0.167   9.440  23.207  0.00  0.00    +0.000 A 
ATOM     22  C   UNL     1       0.792   8.987  22.041  0.00  0.00    +0.000 A 
ATOM     23  C   UNL     1       0.523   9.567  20.781  0.00  0.00    +0.000 A 
ENDBRANCH  13  14
ENDBRANCH  12  13
ENDBRANCH   4  12
BRANCH   5  24
ATOM     24  C   UNL     1       4.226   4.956  19.499  0.00  0.00    +0.000 C 
BRANCH  24  25
ATOM     25  C   UNL     1       3.130   3.916  19.463  0.00  0.00    +0.000 A 
ATOM     26  C   UNL     1       2.164   3.778  20.471  0.00  0.00    +0.000 A 
ATOM     27  C   UNL     1       1.072   2.920  20.300  0.00  0.00    +0.000 A 
ATOM     28  C   UNL     1       0.927   2.190  19.122  0.00  0.00    +0.000 A 
ATOM     29  C   UNL     1       1.886   2.299  18.121  0.00  0.00    +0.000 A 
ATOM     30  C   UNL     1       2.977   3.153  18.290  0.00  0.00    +0.000 A 
ENDBRANCH  24  25
ENDBRANCH   5  24
TORSDOF 9
ENDMDL
MODEL 2
REMARK VINA RESULT:      -8.1      1.269      1.724
REMARK  Name = 
REMARK  9 active torsions:
REMARK  status: ('A' for Active; 'I' for Inactive)
REMARK    1  A    between atoms: C_2  and  O_3
REMARK    2  A    between atoms: C_2  and  C_4
REMARK    3  A    between atoms: C_4  and  S_5
REMARK    4  A    between atoms: S_5  and  C_6
REMARK    5  A    between atoms: C_9  and  C_10
REMARK    6  A    between atoms: C_10  and  O_11
REMARK    7  A    between atoms: O_11  and  C_12
REMARK    8  A    between atoms: N_22  and  C_23
REMARK    9  A    between atoms: C_23  and  C_24
REMARK                            x       y       z     vdW  Elec       q    Type
REMARK                         _______ _______ _______ _____ _____    ______ ____
ROOT
ATOM      1  C   UNL     1       4.368   5.474  17.633  0.00  0.00    +0.000 A 
ATOM      2  N   UNL     1       5.170   6.499  17.798  0.00  0.00    +0.000 NA
ATOM      3  N   UNL     1       4.392   7.628  17.850  0.00  0.00    +0.000 NA
ATOM      4  C   UNL     1       3.123   7.264  17.767  0.00  0.00    +0.000 A 
ATOM      5  N   UNL     1       3.065   5.890  17.652  0.00  0.00    +0.000 N 
ENDROOT
BRANCH   1   6
ATOM      6  S   UNL     1       4.877   3.831  17.484  0.00  0.00    +0.000 S 
BRANCH   6   7
ATOM      7  C   UNL     1       5.902   3.925  15.991  0.00  0.00    +0.000 C 
BRANCH   7   9
ATOM      8  O   UNL     1       8.051   4.162  17.074  0.00  0.00    +0.000 OA
ATOM      9  C   UNL     1       7.213   4.609  16.302  0.00  0.00    +0.000 C 
BRANCH   9  10
ATOM     10  O   UNL     1       7.372   5.804  15.683  0.00  0.00    +0.000 OA
ATOM     11  H   UNL     1       7.430   5.760  14.704  0.00  0.00    +0.000 HD
ENDBRANCH   9  10
ENDBRANCH   7   9
ENDBRANCH   6   7
ENDBRANCH   1   6
BRANCH   4  12
ATOM     12  C   UNL     1       1.939   8.170  17.818  0.00  0.00    +0.000 C 
BRANCH  12  13
ATOM     13  O   UNL     1       1.784   8.630  19.162  0.00  0.00    +0.000 OA
BRANCH  13  14
ATOM     14  C   UNL     1       1.117   9.809  19.409  0.00  0.00    +0.000 A 
ATOM     15  C   UNL     1       1.051  10.882  18.513  0.00  0.00    +0.000 A 
ATOM     16  C   UNL     1       0.354  12.044  18.847  0.00  0.00    +0.000 A 
ATOM     17  C   UNL     1      -0.270  12.155  20.086  0.00  0.00    +0.000 A 
ATOM     18  C   UNL     1      -0.216  11.103  21.008  0.00  0.00    +0.000 A 
ATOM     19  C   UNL     1      -0.848  11.225  22.258  0.00  0.00    +0.000 A 
ATOM     20  C   UNL     1      -0.813  10.184  23.183  0.00  0.00    +0.000 A 
ATOM     21  C   UNL     1      -0.140   9.009  22.872  0.00  0.00    +0.000 A 
ATOM     22  C   UNL     1       0.500   8.877  21.637  0.00  0.00    +0.000 A 
ATOM     23  C   UNL     1       0.480   9.912  20.676  0.00  0.00    +0.000 A 
ENDBRANCH  13  14
ENDBRANCH  12  13
ENDBRANCH   4  12
BRANCH   5  24
ATOM     24  C   UNL     1       1.880   5.063  17.814  0.00  0.00    +0.000 C 
BRANCH  24  25
ATOM     25  C   UNL     1       1.756   4.346  19.139  0.00  0.00    +0.000 A 
ATOM     26  C   UNL     1       1.438   2.985  19.252  0.00  0.00    +0.000 A 
ATOM     27  C   UNL     1       1.513   2.335  20.489  0.00  0.00    +0.000 A 
ATOM     28  C   UNL     1       1.906   3.034  21.629  0.00  0.00    +0.000 A 
ATOM     29  C   UNL     1       2.205   4.389  21.539  0.00  0.00    +0.000 A 
ATOM     30  C   UNL     1       2.130   5.039  20.306  0.00  0.00    +0.000 A 
ENDBRANCH  24  25
ENDBRANCH   5  24
TORSDOF 9
ENDMDL
MODEL 3
REMARK VINA RESULT:      -8.0      3.827      8.928
REMARK  Name = 
REMARK  9 active torsions:
REMARK  status: ('A' for Active; 'I' for Inactive)
REMARK    1  A    between atoms: C_2  and  O_3
REMARK    2  A    between atoms: C_2  and  C_4
REMARK    3  A    between atoms: C_4  and  S_5
REMARK    4  A    between atoms: S_5  and  C_6
REMARK    5  A    between atoms: C_9  and  C_10
REMARK    6  A    between atoms: C_10  and  O_11
REMARK    7  A    between atoms: O_11  and  C_12
REMARK    8  A    between atoms: N_22  and  C_23
REMARK    9  A    between atoms: C_23  and  C_24
REMARK                            x       y       z     vdW  Elec       q    Type
REMARK                         _______ _______ _______ _____ _____    ______ ____
ROOT
ATOM      1  C   UNL     1       0.230  10.720  21.634  0.00  0.00    +0.000 A 
ATOM      2  N   UNL     1       0.859   9.917  22.459  0.00  0.00    +0.000 NA
ATOM      3  N   UNL     1       1.401   8.901  21.713  0.00  0.00    +0.000 NA
ATOM      4  C   UNL     1       1.135   9.130  20.439  0.00  0.00    +0.000 A 
ATOM      5  N   UNL     1       0.408  10.300  20.344  0.00  0.00    +0.000 N 
ENDROOT
BRANCH   1   6
ATOM      6  S   UNL     1      -0.636  12.139  22.099  0.00  0.00    +0.000 S 
BRANCH   6   7
ATOM      7  C   UNL     1      -1.878  11.430  23.215  0.00  0.00    +0.000 C 
BRANCH   7   9
ATOM      8  O   UNL     1      -4.176  12.171  23.337  0.00  0.00    +0.000 OA
ATOM      9  C   UNL     1      -2.986  12.428  23.461  0.00  0.00    +0.000 C 
BRANCH   9  10
ATOM     10  O   UNL     1      -2.550  13.667  23.790  0.00  0.00    +0.000 OA
ATOM     11  H   UNL     1      -2.935  14.038  24.614  0.00  0.00    +0.000 HD
ENDBRANCH   9  10
ENDBRANCH   7   9
ENDBRANCH   6   7
ENDBRANCH   1   6
BRANCH   4  12
ATOM     12  C   UNL     1       1.566   8.294  19.282  0.00  0.00    +0.000 C 
BRANCH  12  13
ATOM     13  O   UNL     1       2.382   7.230  19.776  0.00  0.00    +0.000 OA
BRANCH  13  14
ATOM     14  C   UNL     1       2.876   6.285  18.905  0.00  0.00    +0.000 A 
ATOM     15  C   UNL     1       3.833   6.545  17.917  0.00  0.00    +0.000 A 
ATOM     16  C   UNL     1       4.276   5.526  17.073  0.00  0.00    +0.000 A 
ATOM     17  C   UNL     1       3.756   4.241  17.194  0.00  0.00    +0.000 A 
ATOM     18  C   UNL     1       2.792   3.950  18.165  0.00  0.00    +0.000 A 
ATOM     19  C   UNL     1       2.272   2.649  18.278  0.00  0.00    +0.000 A 
ATOM     20  C   UNL     1       1.319   2.340  19.246  0.00  0.00    +0.000 A 
ATOM     21  C   UNL     1       0.870   3.330  20.111  0.00  0.00    +0.000 A 
ATOM     22  C   UNL     1       1.372   4.630  20.005  0.00  0.00    +0.000 A 
ATOM     23  C   UNL     1       2.341   4.975  19.036  0.00  0.00    +0.000 A 
ENDBRANCH  13  14
ENDBRANCH  12  13
ENDBRANCH   4  12
BRANCH   5  24
ATOM     24  C   UNL     1       0.152  11.057  19.129  0.00  0.00    +0.000 C 
BRANCH  24  25
ATOM     25  C   UNL     1      -1.209  10.850  18.503  0.00  0.00    +0.000 A 
ATOM     26  C   UNL     1      -2.323  11.648  18.801  0.00  0.00    +0.000 A 
ATOM     27  C   UNL     1      -3.506  11.525  18.062  0.00  0.00    +0.000 A 
ATOM     28  C   UNL     1      -3.592  10.608  17.016  0.00  0.00    +0.000 A 
ATOM     29  C   UNL     1      -2.503   9.795  16.721  0.00  0.00    +0.000 A 
ATOM     30  C   UNL     1      -1.323   9.915  17.458  0.00  0.00    +0.000 A 
ENDBRANCH  24  25
ENDBRANCH   5  24
TORSDOF 9
ENDMDL
MODEL 4
REMARK VINA RESULT:      -7.9      2.518      4.058
REMARK  Name = 
REMARK  9 active torsions:
REMARK  status: ('A' for Active; 'I' for Inactive)
REMARK    1  A    between atoms: C_2  and  O_3
REMARK    2  A    between atoms: C_2  and  C_4
REMARK    3  A    between atoms: C_4  and  S_5
REMARK    4  A    between atoms: S_5  and  C_6
REMARK    5  A    between atoms: C_9  and  C_10
REMARK    6  A    between atoms: C_10  and  O_11
REMARK    7  A    between atoms: O_11  and  C_12
REMARK    8  A    between atoms: N_22  and  C_23
REMARK    9  A    between atoms: C_23  and  C_24
REMARK                            x       y       z     vdW  Elec       q    Type
REMARK                         _______ _______ _______ _____ _____    ______ ____
ROOT
ATOM      1  C   UNL     1       1.961   3.540  19.661  0.00  0.00    +0.000 A 
ATOM      2  N   UNL     1       1.560   3.850  20.871  0.00  0.00    +0.000 NA
ATOM      3  N   UNL     1       1.731   5.203  21.028  0.00  0.00    +0.000 NA
ATOM      4  C   UNL     1       2.186   5.701  19.890  0.00  0.00    +0.000 A 
ATOM      5  N   UNL     1       2.322   4.671  18.981  0.00  0.00    +0.000 N 
ENDROOT
BRANCH   1   6
ATOM      6  S   UNL     1       1.965   1.946  18.996  0.00  0.00    +0.000 S 
BRANCH   6   7
ATOM      7  C   UNL     1       3.746   1.659  18.811  0.00  0.00    +0.000 C 
BRANCH   7   9
ATOM      8  O   UNL     1       4.290   1.894  21.155  0.00  0.00    +0.000 OA
ATOM      9  C   UNL     1       4.491   2.229  19.995  0.00  0.00    +0.000 C 
BRANCH   9  10
ATOM     10  O   UNL     1       5.386   3.194  19.672  0.00  0.00    +0.000 OA
ATOM     11  H   UNL     1       5.264   4.048  20.141  0.00  0.00    +0.000 HD
ENDBRANCH   9  10
ENDBRANCH   7   9
ENDBRANCH   6   7
ENDBRANCH   1   6
BRANCH   4  12
ATOM     12  C   UNL     1       2.478   7.136  19.609  0.00  0.00    +0.000 C 
BRANCH  12  13
ATOM     13  O   UNL     1       1.746   7.935  20.540  0.00  0.00    +0.000 OA
BRANCH  13  14
ATOM     14  C   UNL     1       1.097   9.069  20.107  0.00  0.00    +0.000 A 
ATOM     15  C   UNL     1       1.181   9.580  18.806  0.00  0.00    +0.000 A 
ATOM     16  C   UNL     1       0.492  10.740  18.454  0.00  0.00    +0.000 A 
ATOM     17  C   UNL     1      -0.276  11.414  19.399  0.00  0.00    +0.000 A 
ATOM     18  C   UNL     1      -0.373  10.935  20.711  0.00  0.00    +0.000 A 
ATOM     19  C   UNL     1      -1.149  11.624  21.659  0.00  0.00    +0.000 A 
ATOM     20  C   UNL     1      -1.266  11.155  22.966  0.00  0.00    +0.000 A 
ATOM     21  C   UNL     1      -0.603   9.993  23.343  0.00  0.00    +0.000 A 
ATOM     22  C   UNL     1       0.178   9.303  22.412  0.00  0.00    +0.000 A 
ATOM     23  C   UNL     1       0.314   9.750  21.079  0.00  0.00    +0.000 A 
ENDBRANCH  13  14
ENDBRANCH  12  13
ENDBRANCH   4  12
BRANCH   5  24
ATOM     24  C   UNL     1       2.522   4.811  17.548  0.00  0.00    +0.000 C 
BRANCH  24  25
ATOM     25  C   UNL     1       3.959   4.939  17.095  0.00  0.00    +0.000 A 
ATOM     26  C   UNL     1       4.641   3.931  16.400  0.00  0.00    +0.000 A 
ATOM     27  C   UNL     1       5.907   4.172  15.853  0.00  0.00    +0.000 A 
ATOM     28  C   UNL     1       6.506   5.423  15.989  0.00  0.00    +0.000 A 
ATOM     29  C   UNL     1       5.851   6.429  16.692  0.00  0.00    +0.000 A 
ATOM     30  C   UNL     1       4.591   6.189  17.241  0.00  0.00    +0.000 A 
ENDBRANCH  24  25
ENDBRANCH   5  24
TORSDOF 9
ENDMDL
MODEL 5
REMARK VINA RESULT:      -7.9      2.185      3.182
REMARK  Name = 
REMARK  9 active torsions:
REMARK  status: ('A' for Active; 'I' for Inactive)
REMARK    1  A    between atoms: C_2  and  O_3
REMARK    2  A    between atoms: C_2  and  C_4
REMARK    3  A    between atoms: C_4  and  S_5
REMARK    4  A    between atoms: S_5  and  C_6
REMARK    5  A    between atoms: C_9  and  C_10
REMARK    6  A    between atoms: C_10  and  O_11
REMARK    7  A    between atoms: O_11  and  C_12
REMARK    8  A    between atoms: N_22  and  C_23
REMARK    9  A    between atoms: C_23  and  C_24
REMARK                            x       y       z     vdW  Elec       q    Type
REMARK                         _______ _______ _______ _____ _____    ______ ____
ROOT
ATOM      1  C   UNL     1       4.457   6.218  17.485  0.00  0.00    +0.000 A 
ATOM      2  N   UNL     1       4.449   7.245  16.669  0.00  0.00    +0.000 NA
ATOM      3  N   UNL     1       3.463   8.101  17.091  0.00  0.00    +0.000 NA
ATOM      4  C   UNL     1       2.921   7.603  18.190  0.00  0.00    +0.000 A 
ATOM      5  N   UNL     1       3.548   6.410  18.490  0.00  0.00    +0.000 N 
ENDROOT
BRANCH   1   6
ATOM      6  S   UNL     1       5.509   4.856  17.355  0.00  0.00    +0.000 S 
BRANCH   6   7
ATOM      7  C   UNL     1       7.130   5.669  17.422  0.00  0.00    +0.000 C 
BRANCH   7   9
ATOM      8  O   UNL     1       7.057   5.348  19.817  0.00  0.00    +0.000 OA
ATOM      9  C   UNL     1       7.508   5.957  18.856  0.00  0.00    +0.000 C 
BRANCH   9  10
ATOM     10  O   UNL     1       8.368   6.993  19.003  0.00  0.00    +0.000 OA
ATOM     11  H   UNL     1       9.084   7.037  18.332  0.00  0.00    +0.000 HD
ENDBRANCH   9  10
ENDBRANCH   7   9
ENDBRANCH   6   7
ENDBRANCH   1   6
BRANCH   4  12
ATOM     12  C   UNL     1       1.835   8.227  19.000  0.00  0.00    +0.000 C 
BRANCH  12  13
ATOM     13  O   UNL     1       1.230   9.260  18.220  0.00  0.00    +0.000 OA
BRANCH  13  14
ATOM     14  C   UNL     1       0.481  10.235  18.839  0.00  0.00    +0.000 A 
ATOM     15  C   UNL     1       0.924  11.004  19.922  0.00  0.00    +0.000 A 
ATOM     16  C   UNL     1       0.096  11.971  20.492  0.00  0.00    +0.000 A 
ATOM     17  C   UNL     1      -1.191  12.169  20.000  0.00  0.00    +0.000 A 
ATOM     18  C   UNL     1      -1.669  11.411  18.925  0.00  0.00    +0.000 A 
ATOM     19  C   UNL     1      -2.970  11.617  18.436  0.00  0.00    +0.000 A 
ATOM     20  C   UNL     1      -3.457  10.879  17.360  0.00  0.00    +0.000 A 
ATOM     21  C   UNL     1      -2.650   9.920  16.762  0.00  0.00    +0.000 A 
ATOM     22  C   UNL     1      -1.356   9.698  17.242  0.00  0.00    +0.000 A 
ATOM     23  C   UNL     1      -0.832  10.432  18.329  0.00  0.00    +0.000 A 
ENDBRANCH  13  14
ENDBRANCH  12  13
ENDBRANCH   4  12
BRANCH   5  24
ATOM     24  C   UNL     1       3.457   5.683  19.746  0.00  0.00    +0.000 C 
BRANCH  24  25
ATOM     25  C   UNL     1       2.420   4.584  19.794  0.00  0.00    +0.000 A 
ATOM     26  C   UNL     1       1.838   4.023  18.648  0.00  0.00    +0.000 A 
ATOM     27  C   UNL     1       1.020   2.891  18.745  0.00  0.00    +0.000 A 
ATOM     28  C   UNL     1       0.774   2.304  19.985  0.00  0.00    +0.000 A 
ATOM     29  C   UNL     1       1.327   2.860  21.134  0.00  0.00    +0.000 A 
ATOM     30  C   UNL     1       2.141   3.989  21.039  0.00  0.00    +0.000 A 
ENDBRANCH  24  25
ENDBRANCH   5  24
TORSDOF 9
ENDMDL
MODEL 6
REMARK VINA RESULT:      -7.9      2.934      6.065
REMARK  Name = 
REMARK  9 active torsions:
REMARK  status: ('A' for Active; 'I' for Inactive)
REMARK    1  A    between atoms: C_2  and  O_3
REMARK    2  A    between atoms: C_2  and  C_4
REMARK    3  A    between atoms: C_4  and  S_5
REMARK    4  A    between atoms: S_5  and  C_6
REMARK    5  A    between atoms: C_9  and  C_10
REMARK    6  A    between atoms: C_10  and  O_11
REMARK    7  A    between atoms: O_11  and  C_12
REMARK    8  A    between atoms: N_22  and  C_23
REMARK    9  A    between atoms: C_23  and  C_24
REMARK                            x       y       z     vdW  Elec       q    Type
REMARK                         _______ _______ _______ _____ _____    ______ ____
ROOT
ATOM      1  C   UNL     1       6.797   6.130  17.570  0.00  0.00    +0.000 A 
ATOM      2  N   UNL     1       7.188   5.392  18.582  0.00  0.00    +0.000 NA
ATOM      3  N   UNL     1       6.413   4.260  18.592  0.00  0.00    +0.000 NA
ATOM      4  C   UNL     1       5.595   4.305  17.553  0.00  0.00    +0.000 A 
ATOM      5  N   UNL     1       5.828   5.475  16.859  0.00  0.00    +0.000 N 
ENDROOT
BRANCH   1   6
ATOM      6  S   UNL     1       7.456   7.670  17.152  0.00  0.00    +0.000 S 
BRANCH   6   7
ATOM      7  C   UNL     1       8.432   8.037  18.636  0.00  0.00    +0.000 C 
BRANCH   7   9
ATOM      8  O   UNL     1       8.419  10.319  17.839  0.00  0.00    +0.000 OA
ATOM      9  C   UNL     1       8.744   9.514  18.701  0.00  0.00    +0.000 C 
BRANCH   9  10
ATOM     10  O   UNL     1       9.465   9.879  19.788  0.00  0.00    +0.000 OA
ATOM     11  H   UNL     1      10.404   9.593  19.780  0.00  0.00    +0.000 HD
ENDBRANCH   9  10
ENDBRANCH   7   9
ENDBRANCH   6   7
ENDBRANCH   1   6
BRANCH   4  12
ATOM     12  C   UNL     1       4.604   3.261  17.164  0.00  0.00    +0.000 C 
BRANCH  12  13
ATOM     13  O   UNL     1       3.293   3.808  17.317  0.00  0.00    +0.000 OA
BRANCH  13  14
ATOM     14  C   UNL     1       2.727   3.888  18.570  0.00  0.00    +0.000 A 
ATOM     15  C   UNL     1       2.422   2.782  19.372  0.00  0.00    +0.000 A 
ATOM     16  C   UNL     1       1.845   2.956  20.630  0.00  0.00    +0.000 A 
ATOM     17  C   UNL     1       1.551   4.234  21.096  0.00  0.00    +0.000 A 
ATOM     18  C   UNL     1       1.835   5.361  20.315  0.00  0.00    +0.000 A 
ATOM     19  C   UNL     1       1.532   6.647  20.793  0.00  0.00    +0.000 A 
ATOM     20  C   UNL     1       1.818   7.779  20.033  0.00  0.00    +0.000 A 
ATOM     21  C   UNL     1       2.407   7.639  18.783  0.00  0.00    +0.000 A 
ATOM     22  C   UNL     1       2.706   6.365  18.291  0.00  0.00    +0.000 A 
ATOM     23  C   UNL     1       2.431   5.198  19.038  0.00  0.00    +0.000 A 
ENDBRANCH  13  14
ENDBRANCH  12  13
ENDBRANCH   4  12
BRANCH   5  24
ATOM     24  C   UNL     1       5.355   5.789  15.521  0.00  0.00    +0.000 C 
BRANCH  24  25
ATOM     25  C   UNL     1       6.000   5.009  14.397  0.00  0.00    +0.000 A 
ATOM     26  C   UNL     1       5.347   3.986  13.695  0.00  0.00    +0.000 A 
ATOM     27  C   UNL     1       5.926   3.422  12.552  0.00  0.00    +0.000 A 
ATOM     28  C   UNL     1       7.163   3.873  12.095  0.00  0.00    +0.000 A 
ATOM     29  C   UNL     1       7.834   4.873  12.790  0.00  0.00    +0.000 A 
ATOM     30  C   UNL     1       7.258   5.434  13.931  0.00  0.00    +0.000 A 
ENDBRANCH  24  25
ENDBRANCH   5  24
TORSDOF 9
ENDMDL
MODEL 7
REMARK VINA RESULT:      -7.9      1.110      1.428
REMARK  Name = 
REMARK  9 active torsions:
REMARK  status: ('A' for Active; 'I' for Inactive)
REMARK    1  A    between atoms: C_2  and  O_3
REMARK    2  A    between atoms: C_2  and  C_4
REMARK    3  A    between atoms: C_4  and  S_5
REMARK    4  A    between atoms: S_5  and  C_6
REMARK    5  A    between atoms: C_9  and  C_10
REMARK    6  A    between atoms: C_10  and  O_11
REMARK    7  A    between atoms: O_11  and  C_12
REMARK    8  A    between atoms: N_22  and  C_23
REMARK    9  A    between atoms: C_23  and  C_24
REMARK                            x       y       z     vdW  Elec       q    Type
REMARK                         _______ _______ _______ _____ _____    ______ ____
ROOT
ATOM      1  C   UNL     1       4.633   6.150  17.918  0.00  0.00    +0.000 A 
ATOM      2  N   UNL     1       4.939   6.979  16.949  0.00  0.00    +0.000 NA
ATOM      3  N   UNL     1       3.894   7.858  16.812  0.00  0.00    +0.000 NA
ATOM      4  C   UNL     1       2.990   7.579  17.737  0.00  0.00    +0.000 A 
ATOM      5  N   UNL     1       3.439   6.507  18.483  0.00  0.00    +0.000 N 
ENDROOT
BRANCH   1   6
ATOM      6  S   UNL     1       5.624   4.841  18.453  0.00  0.00    +0.000 S 
BRANCH   6   7
ATOM      7  C   UNL     1       7.152   5.173  17.535  0.00  0.00    +0.000 C 
BRANCH   7   9
ATOM      8  O   UNL     1       7.525   5.213  15.146  0.00  0.00    +0.000 OA
ATOM      9  C   UNL     1       7.030   4.659  16.119  0.00  0.00    +0.000 C 
BRANCH   9  10
ATOM     10  O   UNL     1       6.277   3.540  16.001  0.00  0.00    +0.000 OA
ATOM     11  H   UNL     1       6.166   3.208  15.083  0.00  0.00    +0.000 HD
ENDBRANCH   9  10
ENDBRANCH   7   9
ENDBRANCH   6   7
ENDBRANCH   1   6
BRANCH   4  12
ATOM     12  C   UNL     1       1.711   8.309  17.970  0.00  0.00    +0.000 C 
BRANCH  12  13
ATOM     13  O   UNL     1       1.800   8.979  19.229  0.00  0.00    +0.000 OA
BRANCH  13  14
ATOM     14  C   UNL     1       1.044  10.108  19.458  0.00  0.00    +0.000 A 
ATOM     15  C   UNL     1       0.909  11.166  18.552  0.00  0.00    +0.000 A 
ATOM     16  C   UNL     1       0.125  12.275  18.869  0.00  0.00    +0.000 A 
ATOM     17  C   UNL     1      -0.521  12.349  20.100  0.00  0.00    +0.000 A 
ATOM     18  C   UNL     1      -0.399  11.312  21.032  0.00  0.00    +0.000 A 
ATOM     19  C   UNL     1      -1.053  11.396  22.273  0.00  0.00    +0.000 A 
ATOM     20  C   UNL     1      -0.951  10.368  23.208  0.00  0.00    +0.000 A 
ATOM     21  C   UNL     1      -0.189   9.244  22.915  0.00  0.00    +0.000 A 
ATOM     22  C   UNL     1       0.473   9.150  21.688  0.00  0.00    +0.000 A 
ATOM     23  C   UNL     1       0.388  10.174  20.718  0.00  0.00    +0.000 A 
ENDBRANCH  13  14
ENDBRANCH  12  13
ENDBRANCH   4  12
BRANCH   5  24
ATOM     24  C   UNL     1       2.898   6.059  19.756  0.00  0.00    +0.000 C 
BRANCH  24  25
ATOM     25  C   UNL     1       2.066   4.798  19.707  0.00  0.00    +0.000 A 
ATOM     26  C   UNL     1       1.675   4.178  18.511  0.00  0.00    +0.000 A 
ATOM     27  C   UNL     1       1.060   2.920  18.527  0.00  0.00    +0.000 A 
ATOM     28  C   UNL     1       0.829   2.264  19.735  0.00  0.00    +0.000 A 
ATOM     29  C   UNL     1       1.192   2.874  20.932  0.00  0.00    +0.000 A 
ATOM     30  C   UNL     1       1.803   4.129  20.917  0.00  0.00    +0.000 A 
ENDBRANCH  24  25
ENDBRANCH   5  24
TORSDOF 9
ENDMDL
MODEL 8
REMARK VINA RESULT:      -7.9      1.199      1.410
REMARK  Name = 
REMARK  9 active torsions:
REMARK  status: ('A' for Active; 'I' for Inactive)
REMARK    1  A    between atoms: C_2  and  O_3
REMARK    2  A    between atoms: C_2  and  C_4
REMARK    3  A    between atoms: C_4  and  S_5
REMARK    4  A    between atoms: S_5  and  C_6
REMARK    5  A    between atoms: C_9  and  C_10
REMARK    6  A    between atoms: C_10  and  O_11
REMARK    7  A    between atoms: O_11  and  C_12
REMARK    8  A    between atoms: N_22  and  C_23
REMARK    9  A    between atoms: C_23  and  C_24
REMARK                            x       y       z     vdW  Elec       q    Type
REMARK                         _______ _______ _______ _____ _____    ______ ____
ROOT
ATOM      1  C   UNL     1       4.537   6.316  18.123  0.00  0.00    +0.000 A 
ATOM      2  N   UNL     1       4.941   7.123  17.171  0.00  0.00    +0.000 NA
ATOM      3  N   UNL     1       3.915   7.995  16.905  0.00  0.00    +0.000 NA
ATOM      4  C   UNL     1       2.920   7.734  17.737  0.00  0.00    +0.000 A 
ATOM      5  N   UNL     1       3.289   6.682  18.551  0.00  0.00    +0.000 N 
ENDROOT
BRANCH   1   6
ATOM      6  S   UNL     1       5.468   5.024  18.790  0.00  0.00    +0.000 S 
BRANCH   6   7
ATOM      7  C   UNL     1       5.899   4.104  17.288  0.00  0.00    +0.000 C 
BRANCH   7   9
ATOM      8  O   UNL     1       7.562   4.999  15.777  0.00  0.00    +0.000 OA
ATOM      9  C   UNL     1       7.299   4.459  16.844  0.00  0.00    +0.000 C 
BRANCH   9  10
ATOM     10  O   UNL     1       8.266   4.086  17.716  0.00  0.00    +0.000 OA
ATOM     11  H   UNL     1       8.035   4.193  18.665  0.00  0.00    +0.000 HD
ENDBRANCH   9  10
ENDBRANCH   7   9
ENDBRANCH   6   7
ENDBRANCH   1   6
BRANCH   4  12
ATOM     12  C   UNL     1       1.622   8.465  17.817  0.00  0.00    +0.000 C 
BRANCH  12  13
ATOM     13  O   UNL     1       1.479   8.980  19.142  0.00  0.00    +0.000 OA
BRANCH  13  14
ATOM     14  C   UNL     1       0.626  10.036  19.377  0.00  0.00    +0.000 A 
ATOM     15  C   UNL     1       0.248  10.977  18.412  0.00  0.00    +0.000 A 
ATOM     16  C   UNL     1      -0.620  12.018  18.738  0.00  0.00    +0.000 A 
ATOM     17  C   UNL     1      -1.108  12.144  20.036  0.00  0.00    +0.000 A 
ATOM     18  C   UNL     1      -0.743  11.225  21.026  0.00  0.00    +0.000 A 
ATOM     19  C   UNL     1      -1.239  11.361  22.334  0.00  0.00    +0.000 A 
ATOM     20  C   UNL     1      -0.894  10.449  23.330  0.00  0.00    +0.000 A 
ATOM     21  C   UNL     1      -0.044   9.392  23.031  0.00  0.00    +0.000 A 
ATOM     22  C   UNL     1       0.464   9.249  21.737  0.00  0.00    +0.000 A 
ATOM     23  C   UNL     1       0.131  10.155  20.704  0.00  0.00    +0.000 A 
ENDBRANCH  13  14
ENDBRANCH  12  13
ENDBRANCH   4  12
BRANCH   5  24
ATOM     24  C   UNL     1       2.618   6.262  19.770  0.00  0.00    +0.000 C 
BRANCH  24  25
ATOM     25  C   UNL     1       2.099   4.842  19.777  0.00  0.00    +0.000 A 
ATOM     26  C   UNL     1       1.828   4.127  20.952  0.00  0.00    +0.000 A 
ATOM     27  C   UNL     1       1.182   2.885  20.899  0.00  0.00    +0.000 A 
ATOM     28  C   UNL     1       0.797   2.344  19.674  0.00  0.00    +0.000 A 
ATOM     29  C   UNL     1       1.076   3.031  18.497  0.00  0.00    +0.000 A 
ATOM     30  C   UNL     1       1.721   4.268  18.549  0.00  0.00    +0.000 A 
ENDBRANCH  24  25
ENDBRANCH   5  24
TORSDOF 9
ENDMDL
MODEL 9
REMARK VINA RESULT:      -7.9      0.738      2.084
REMARK  Name = 
REMARK  9 active torsions:
REMARK  status: ('A' for Active; 'I' for Inactive)
REMARK    1  A    between atoms: C_2  and  O_3
REMARK    2  A    between atoms: C_2  and  C_4
REMARK    3  A    between atoms: C_4  and  S_5
REMARK    4  A    between atoms: S_5  and  C_6
REMARK    5  A    between atoms: C_9  and  C_10
REMARK    6  A    between atoms: C_10  and  O_11
REMARK    7  A    between atoms: O_11  and  C_12
REMARK    8  A    between atoms: N_22  and  C_23
REMARK    9  A    between atoms: C_23  and  C_24
REMARK                            x       y       z     vdW  Elec       q    Type
REMARK                         _______ _______ _______ _____ _____    ______ ____
ROOT
ATOM      1  C   UNL     1       4.867   5.979  17.415  0.00  0.00    +0.000 A 
ATOM      2  N   UNL     1       4.611   7.146  16.873  0.00  0.00    +0.000 NA
ATOM      3  N   UNL     1       3.572   7.707  17.572  0.00  0.00    +0.000 NA
ATOM      4  C   UNL     1       3.247   6.892  18.562  0.00  0.00    +0.000 A 
ATOM      5  N   UNL     1       4.070   5.785  18.511  0.00  0.00    +0.000 N 
ENDROOT
BRANCH   1   6
ATOM      6  S   UNL     1       6.080   4.877  16.871  0.00  0.00    +0.000 S 
BRANCH   6   7
ATOM      7  C   UNL     1       5.423   4.423  15.243  0.00  0.00    +0.000 C 
BRANCH   7   9
ATOM      8  O   UNL     1       6.525   3.775  13.191  0.00  0.00    +0.000 OA
ATOM      9  C   UNL     1       6.525   4.452  14.210  0.00  0.00    +0.000 C 
BRANCH   9  10
ATOM     10  O   UNL     1       7.558   5.270  14.528  0.00  0.00    +0.000 OA
ATOM     11  H   UNL     1       8.444   4.943  14.260  0.00  0.00    +0.000 HD
ENDBRANCH   9  10
ENDBRANCH   7   9
ENDBRANCH   6   7
ENDBRANCH   1   6
BRANCH   4  12
ATOM     12  C   UNL     1       2.191   7.128  19.589  0.00  0.00    +0.000 C 
BRANCH  12  13
ATOM     13  O   UNL     1       1.682   8.451  19.414  0.00  0.00    +0.000 OA
BRANCH  13  14
ATOM     14  C   UNL     1       1.028   9.075  20.453  0.00  0.00    +0.000 A 
ATOM     15  C   UNL     1       1.153   8.711  21.799  0.00  0.00    +0.000 A 
ATOM     16  C   UNL     1       0.448   9.397  22.788  0.00  0.00    +0.000 A 
ATOM     17  C   UNL     1      -0.403  10.443  22.444  0.00  0.00    +0.000 A 
ATOM     18  C   UNL     1      -0.558  10.826  21.107  0.00  0.00    +0.000 A 
ATOM     19  C   UNL     1      -1.422  11.882  20.769  0.00  0.00    +0.000 A 
ATOM     20  C   UNL     1      -1.580  12.283  19.445  0.00  0.00    +0.000 A 
ATOM     21  C   UNL     1      -0.879  11.629  18.439  0.00  0.00    +0.000 A 
ATOM     22  C   UNL     1      -0.023  10.572  18.759  0.00  0.00    +0.000 A 
ATOM     23  C   UNL     1       0.161  10.143  20.092  0.00  0.00    +0.000 A 
ENDBRANCH  13  14
ENDBRANCH  12  13
ENDBRANCH   4  12
BRANCH   5  24
ATOM     24  C   UNL     1       4.241   4.792  19.558  0.00  0.00    +0.000 C 
BRANCH  24  25
ATOM     25  C   UNL     1       3.107   3.803  19.715  0.00  0.00    +0.000 A 
ATOM     26  C   UNL     1       2.415   3.609  20.918  0.00  0.00    +0.000 A 
ATOM     27  C   UNL     1       1.263   2.814  20.959  0.00  0.00    +0.000 A 
ATOM     28  C   UNL     1       0.786   2.205  19.799  0.00  0.00    +0.000 A 
ATOM     29  C   UNL     1       1.472   2.372  18.601  0.00  0.00    +0.000 A 
ATOM     30  C   UNL     1       2.622   3.162  18.560  0.00  0.00    +0.000 A 
ENDBRANCH  24  25
ENDBRANCH   5  24
TORSDOF 9
ENDMDL
