MODEL 1
REMARK VINA RESULT:      -7.8      0.000      0.000
REMARK  Name = 
REMARK  4 active torsions:
REMARK  status: ('A' for Active; 'I' for Inactive)
REMARK    1  A    between atoms: C_1  and  C_2
REMARK    2  A    between atoms: C_2  and  C_3
REMARK    3  A    between atoms: C_2  and  N_18
REMARK    4  A    between atoms: N_9  and  C_10
REMARK                            x       y       z     vdW  Elec       q    Type
REMARK                         _______ _______ _______ _____ _____    ______ ____
ROOT
ATOM      1  C   UNL     1       5.538   5.094  18.219  0.00  0.00    +0.000 A 
ATOM      2  N   UNL     1       4.652   6.028  18.441  0.00  0.00    +0.000 NA
ATOM      3  C   UNL     1       3.641   5.621  19.248  0.00  0.00    +0.000 A 
ATOM      4  C   UNL     1       3.470   4.381  19.818  0.00  0.00    +0.000 A 
ATOM      5  C   UNL     1       2.286   4.463  20.554  0.00  0.00    +0.000 A 
ATOM      6  N   UNL     1       1.727   5.678  20.471  0.00  0.00    +0.000 NA
ATOM      7  N   UNL     1       2.580   6.376  19.675  0.00  0.00    +0.000 N 
ATOM      8  C   UNL     1       4.446   3.358  19.571  0.00  0.00    +0.000 A 
ATOM      9  O   UNL     1       4.392   2.215  20.007  0.00  0.00    +0.000 OA
ATOM     10  N   UNL     1       5.473   3.812  18.759  0.00  0.00    +0.000 N 
ATOM     11  H   UNL     1       6.169   3.132  18.486  0.00  0.00    +0.000 HD
ENDROOT
BRANCH   7  12
ATOM     12  C   UNL     1       2.347   7.780  19.405  0.00  0.00    +0.000 C 
ATOM     13  C   UNL     1       1.845   8.077  17.994  0.00  0.00    +0.000 C 
ATOM     14  C   UNL     1       1.252   9.477  18.101  0.00  0.00    +0.000 C 
ATOM     15  C   UNL     1       0.782   9.632  19.546  0.00  0.00    +0.000 C 
ATOM     16  C   UNL     1       1.276   8.402  20.303  0.00  0.00    +0.000 C 
ENDBRANCH   7  12
BRANCH   1  18
ATOM     17  C   UNL     1       7.875   4.421  17.771  0.00  0.00    +0.000 C 
ATOM     18  C   UNL     1       6.759   5.378  17.322  0.00  0.00    +0.000 C 
BRANCH  18  19
ATOM     19  N   UNL     1       6.369   5.221  15.889  0.00  0.00    +0.000 NA
ATOM     20  C   UNL     1       7.579   5.056  15.043  0.00  0.00    +0.000 C 
ATOM     21  C   UNL     1       7.225   4.955  13.557  0.00  0.00    +0.000 C 
ATOM     22  C   UNL     1       6.234   3.831  13.288  0.00  0.00    +0.000 C 
ATOM     23  C   UNL     1       5.043   3.945  14.226  0.00  0.00    +0.000 C 
ATOM     24  C   UNL     1       5.495   4.045  15.683  0.00  0.00    +0.000 C 
ENDBRANCH  18  19
ENDBRANCH   1  18
TORSDOF 3
ENDMDL
MODEL 2
REMARK VINA RESULT:      -7.7      1.498      6.716
REMARK  Name = 
REMARK  4 active torsions:
REMARK  status: ('A' for Active; 'I' for Inactive)
REMARK    1  A    between atoms: C_1  and  C_2
REMARK    2  A    between atoms: C_2  and  C_3
REMARK    3  A    between atoms: C_2  and  N_18
REMARK    4  A    between atoms: N_9  and  C_10
REMARK                            x       y       z     vdW  Elec       q    Type
REMARK                         _______ _______ _______ _____ _____    ______ ____
ROOT
ATOM      1  C   UNL     1       3.982   5.627  17.898  0.00  0.00    +0.000 A 
ATOM      2  N   UNL     1       4.521   5.445  16.722  0.00  0.00    +0.000 NA
ATOM      3  C   UNL     1       5.832   5.100  16.786  0.00  0.00    +0.000 A 
ATOM      4  C   UNL     1       6.601   4.937  17.914  0.00  0.00    +0.000 A 
ATOM      5  C   UNL     1       7.873   4.584  17.457  0.00  0.00    +0.000 A 
ATOM      6  N   UNL     1       7.923   4.517  16.119  0.00  0.00    +0.000 NA
ATOM      7  N   UNL     1       6.658   4.825  15.729  0.00  0.00    +0.000 N 
ATOM      8  C   UNL     1       6.004   5.139  19.204  0.00  0.00    +0.000 A 
ATOM      9  O   UNL     1       6.591   5.042  20.274  0.00  0.00    +0.000 OA
ATOM     10  N   UNL     1       4.663   5.473  19.102  0.00  0.00    +0.000 N 
ATOM     11  H   UNL     1       4.185   5.693  19.965  0.00  0.00    +0.000 HD
ENDROOT
BRANCH   7  12
ATOM     12  C   UNL     1       6.294   4.787  14.327  0.00  0.00    +0.000 C 
ATOM     13  C   UNL     1       7.472   4.913  13.364  0.00  0.00    +0.000 C 
ATOM     14  C   UNL     1       6.924   4.394  12.040  0.00  0.00    +0.000 C 
ATOM     15  C   UNL     1       5.832   3.387  12.397  0.00  0.00    +0.000 C 
ATOM     16  C   UNL     1       5.629   3.474  13.907  0.00  0.00    +0.000 C 
ENDBRANCH   7  12
BRANCH   1  18
ATOM     17  C   UNL     1       1.779   4.865  18.723  0.00  0.00    +0.000 C 
ATOM     18  C   UNL     1       2.497   6.026  18.019  0.00  0.00    +0.000 C 
BRANCH  18  19
ATOM     19  N   UNL     1       2.391   7.329  18.740  0.00  0.00    +0.000 NA
ATOM     20  C   UNL     1       1.725   8.340  17.879  0.00  0.00    +0.000 C 
ATOM     21  C   UNL     1       1.653   9.709  18.560  0.00  0.00    +0.000 C 
ATOM     22  C   UNL     1       0.963   9.630  19.915  0.00  0.00    +0.000 C 
ATOM     23  C   UNL     1       1.581   8.526  20.757  0.00  0.00    +0.000 C 
ATOM     24  C   UNL     1       1.614   7.202  19.992  0.00  0.00    +0.000 C 
ENDBRANCH  18  19
ENDBRANCH   1  18
TORSDOF 3
ENDMDL
MODEL 3
REMARK VINA RESULT:      -7.6      1.397      2.642
REMARK  Name = 
REMARK  4 active torsions:
REMARK  status: ('A' for Active; 'I' for Inactive)
REMARK    1  A    between atoms: C_1  and  C_2
REMARK    2  A    between atoms: C_2  and  C_3
REMARK    3  A    between atoms: C_2  and  N_18
REMARK    4  A    between atoms: N_9  and  C_10
REMARK                            x       y       z     vdW  Elec       q    Type
REMARK                         _______ _______ _______ _____ _____    ______ ____
ROOT
ATOM      1  C   UNL     1       4.738   4.196  17.267  0.00  0.00    +0.000 A 
ATOM      2  N   UNL     1       4.114   5.214  17.796  0.00  0.00    +0.000 NA
ATOM      3  C   UNL     1       3.135   4.846  18.660  0.00  0.00    +0.000 A 
ATOM      4  C   UNL     1       2.759   3.570  19.007  0.00  0.00    +0.000 A 
ATOM      5  C   UNL     1       1.713   3.719  19.921  0.00  0.00    +0.000 A 
ATOM      6  N   UNL     1       1.433   5.008  20.156  0.00  0.00    +0.000 NA
ATOM      7  N   UNL     1       2.324   5.682  19.382  0.00  0.00    +0.000 N 
ATOM      8  C   UNL     1       3.448   2.454  18.423  0.00  0.00    +0.000 A 
ATOM      9  O   UNL     1       3.190   1.277  18.639  0.00  0.00    +0.000 OA
ATOM     10  N   UNL     1       4.451   2.865  17.560  0.00  0.00    +0.000 N 
ATOM     11  H   UNL     1       4.943   2.139  17.058  0.00  0.00    +0.000 HD
ENDROOT
BRANCH   7  12
ATOM     12  C   UNL     1       2.381   7.129  19.420  0.00  0.00    +0.000 C 
ATOM     13  C   UNL     1       1.944   7.813  18.126  0.00  0.00    +0.000 C 
ATOM     14  C   UNL     1       1.649   9.247  18.548  0.00  0.00    +0.000 C 
ATOM     15  C   UNL     1       1.225   9.181  20.015  0.00  0.00    +0.000 C 
ATOM     16  C   UNL     1       1.461   7.746  20.477  0.00  0.00    +0.000 C 
ENDBRANCH   7  12
BRANCH   1  18
ATOM     17  C   UNL     1       5.262   5.102  15.026  0.00  0.00    +0.000 C 
ATOM     18  C   UNL     1       5.882   4.424  16.258  0.00  0.00    +0.000 C 
BRANCH  18  19
ATOM     19  N   UNL     1       6.963   5.223  16.907  0.00  0.00    +0.000 NA
ATOM     20  C   UNL     1       6.679   6.675  16.776  0.00  0.00    +0.000 C 
ATOM     21  C   UNL     1       7.798   7.531  17.374  0.00  0.00    +0.000 C 
ATOM     22  C   UNL     1       8.065   7.173  18.830  0.00  0.00    +0.000 C 
ATOM     23  C   UNL     1       8.257   5.672  18.977  0.00  0.00    +0.000 C 
ATOM     24  C   UNL     1       7.095   4.904  18.345  0.00  0.00    +0.000 C 
ENDBRANCH  18  19
ENDBRANCH   1  18
TORSDOF 3
ENDMDL
MODEL 4
REMARK VINA RESULT:      -7.4      3.178      6.748
REMARK  Name = 
REMARK  4 active torsions:
REMARK  status: ('A' for Active; 'I' for Inactive)
REMARK    1  A    between atoms: C_1  and  C_2
REMARK    2  A    between atoms: C_2  and  C_3
REMARK    3  A    between atoms: C_2  and  N_18
REMARK    4  A    between atoms: N_9  and  C_10
REMARK                            x       y       z     vdW  Elec       q    Type
REMARK                         _______ _______ _______ _____ _____    ______ ____
ROOT
ATOM      1  C   UNL     1       4.626   3.668  17.811  0.00  0.00    +0.000 A 
ATOM      2  N   UNL     1       4.979   3.986  16.595  0.00  0.00    +0.000 NA
ATOM      3  C   UNL     1       6.032   4.841  16.554  0.00  0.00    +0.000 A 
ATOM      4  C   UNL     1       6.720   5.376  17.618  0.00  0.00    +0.000 A 
ATOM      5  C   UNL     1       7.707   6.190  17.059  0.00  0.00    +0.000 A 
ATOM      6  N   UNL     1       7.666   6.180  15.719  0.00  0.00    +0.000 NA
ATOM      7  N   UNL     1       6.639   5.338  15.430  0.00  0.00    +0.000 N 
ATOM      8  C   UNL     1       6.327   5.023  18.953  0.00  0.00    +0.000 A 
ATOM      9  O   UNL     1       6.850   5.448  19.975  0.00  0.00    +0.000 OA
ATOM     10  N   UNL     1       5.262   4.136  18.957  0.00  0.00    +0.000 N 
ATOM     11  H   UNL     1       4.884   3.887  19.861  0.00  0.00    +0.000 HD
ENDROOT
BRANCH   7  12
ATOM     12  C   UNL     1       6.325   5.009  14.055  0.00  0.00    +0.000 C 
ATOM     13  C   UNL     1       7.513   5.092  13.098  0.00  0.00    +0.000 C 
ATOM     14  C   UNL     1       7.065   4.287  11.884  0.00  0.00    +0.000 C 
ATOM     15  C   UNL     1       6.077   3.244  12.405  0.00  0.00    +0.000 C 
ATOM     16  C   UNL     1       5.819   3.577  13.872  0.00  0.00    +0.000 C 
ENDBRANCH   7  12
BRANCH   1  18
ATOM     17  C   UNL     1       4.029   1.285  18.097  0.00  0.00    +0.000 C 
ATOM     18  C   UNL     1       3.445   2.706  18.051  0.00  0.00    +0.000 C 
BRANCH  18  19
ATOM     19  N   UNL     1       2.726   3.103  19.297  0.00  0.00    +0.000 NA
ATOM     20  C   UNL     1       1.271   2.832  19.161  0.00  0.00    +0.000 C 
ATOM     21  C   UNL     1       0.489   3.285  20.396  0.00  0.00    +0.000 C 
ATOM     22  C   UNL     1       1.029   2.651  21.671  0.00  0.00    +0.000 C 
ATOM     23  C   UNL     1       2.534   2.844  21.758  0.00  0.00    +0.000 C 
ATOM     24  C   UNL     1       3.227   2.368  20.479  0.00  0.00    +0.000 C 
ENDBRANCH  18  19
ENDBRANCH   1  18
TORSDOF 3
ENDMDL
MODEL 5
REMARK VINA RESULT:      -7.4      2.470      6.542
REMARK  Name = 
REMARK  4 active torsions:
REMARK  status: ('A' for Active; 'I' for Inactive)
REMARK    1  A    between atoms: C_1  and  C_2
REMARK    2  A    between atoms: C_2  and  C_3
REMARK    3  A    between atoms: C_2  and  N_18
REMARK    4  A    between atoms: N_9  and  C_10
REMARK                            x       y       z     vdW  Elec       q    Type
REMARK                         _______ _______ _______ _____ _____    ______ ____
ROOT
ATOM      1  C   UNL     1       4.616   3.330  17.705  0.00  0.00    +0.000 A 
ATOM      2  N   UNL     1       4.994   3.748  16.526  0.00  0.00    +0.000 NA
ATOM      3  C   UNL     1       6.007   4.648  16.581  0.00  0.00    +0.000 A 
ATOM      4  C   UNL     1       6.635   5.137  17.702  0.00  0.00    +0.000 A 
ATOM      5  C   UNL     1       7.601   6.031  17.235  0.00  0.00    +0.000 A 
ATOM      6  N   UNL     1       7.604   6.113  15.898  0.00  0.00    +0.000 NA
ATOM      7  N   UNL     1       6.627   5.248  15.516  0.00  0.00    +0.000 N 
ATOM      8  C   UNL     1       6.216   4.676  18.995  0.00  0.00    +0.000 A 
ATOM      9  O   UNL     1       6.685   5.051  20.062  0.00  0.00    +0.000 OA
ATOM     10  N   UNL     1       5.193   3.745  18.902  0.00  0.00    +0.000 N 
ATOM     11  H   UNL     1       4.799   3.418  19.773  0.00  0.00    +0.000 HD
ENDROOT
BRANCH   7  12
ATOM     12  C   UNL     1       6.373   5.003  14.111  0.00  0.00    +0.000 C 
ATOM     13  C   UNL     1       7.610   5.091  13.220  0.00  0.00    +0.000 C 
ATOM     14  C   UNL     1       7.199   4.367  11.944  0.00  0.00    +0.000 C 
ATOM     15  C   UNL     1       6.150   3.336  12.359  0.00  0.00    +0.000 C 
ATOM     16  C   UNL     1       5.828   3.601  13.827  0.00  0.00    +0.000 C 
ENDBRANCH   7  12
BRANCH   1  18
ATOM     17  C   UNL     1       4.071   1.055  18.505  0.00  0.00    +0.000 C 
ATOM     18  C   UNL     1       3.474   2.303  17.837  0.00  0.00    +0.000 C 
BRANCH  18  19
ATOM     19  N   UNL     1       2.344   2.913  18.598  0.00  0.00    +0.000 NA
ATOM     20  C   UNL     1       2.363   2.446  20.008  0.00  0.00    +0.000 C 
ATOM     21  C   UNL     1       1.182   3.001  20.808  0.00  0.00    +0.000 C 
ATOM     22  C   UNL     1       1.127   4.522  20.754  0.00  0.00    +0.000 C 
ATOM     23  C   UNL     1       1.209   5.000  19.313  0.00  0.00    +0.000 C 
ATOM     24  C   UNL     1       2.414   4.390  18.597  0.00  0.00    +0.000 C 
ENDBRANCH  18  19
ENDBRANCH   1  18
TORSDOF 3
ENDMDL
MODEL 6
REMARK VINA RESULT:      -7.3      1.876      6.269
REMARK  Name = 
REMARK  4 active torsions:
REMARK  status: ('A' for Active; 'I' for Inactive)
REMARK    1  A    between atoms: C_1  and  C_2
REMARK    2  A    between atoms: C_2  and  C_3
REMARK    3  A    between atoms: C_2  and  N_18
REMARK    4  A    between atoms: N_9  and  C_10
REMARK                            x       y       z     vdW  Elec       q    Type
REMARK                         _______ _______ _______ _____ _____    ______ ____
ROOT
ATOM      1  C   UNL     1       4.380   6.052  18.287  0.00  0.00    +0.000 A 
ATOM      2  N   UNL     1       4.762   5.777  17.069  0.00  0.00    +0.000 NA
ATOM      3  C   UNL     1       6.014   5.260  17.008  0.00  0.00    +0.000 A 
ATOM      4  C   UNL     1       6.872   5.015  18.055  0.00  0.00    +0.000 A 
ATOM      5  C   UNL     1       8.029   4.485  17.480  0.00  0.00    +0.000 A 
ATOM      6  N   UNL     1       7.926   4.387  16.147  0.00  0.00    +0.000 NA
ATOM      7  N   UNL     1       6.679   4.856  15.880  0.00  0.00    +0.000 N 
ATOM      8  C   UNL     1       6.448   5.319  19.392  0.00  0.00    +0.000 A 
ATOM      9  O   UNL     1       7.128   5.163  20.398  0.00  0.00    +0.000 OA
ATOM     10  N   UNL     1       5.159   5.829  19.419  0.00  0.00    +0.000 N 
ATOM     11  H   UNL     1       4.809   6.128  20.319  0.00  0.00    +0.000 HD
ENDROOT
BRANCH   7  12
ATOM     12  C   UNL     1       6.165   4.842  14.526  0.00  0.00    +0.000 C 
ATOM     13  C   UNL     1       7.240   4.797  13.442  0.00  0.00    +0.000 C 
ATOM     14  C   UNL     1       6.492   4.331  12.199  0.00  0.00    +0.000 C 
ATOM     15  C   UNL     1       5.324   3.481  12.698  0.00  0.00    +0.000 C 
ATOM     16  C   UNL     1       5.297   3.620  14.218  0.00  0.00    +0.000 C 
ENDBRANCH   7  12
BRANCH   1  18
ATOM     17  C   UNL     1       2.644   7.536  17.338  0.00  0.00    +0.000 C 
ATOM     18  C   UNL     1       2.982   6.651  18.548  0.00  0.00    +0.000 C 
BRANCH  18  19
ATOM     19  N   UNL     1       2.006   5.546  18.781  0.00  0.00    +0.000 NA
ATOM     20  C   UNL     1       2.366   4.360  17.961  0.00  0.00    +0.000 C 
ATOM     21  C   UNL     1       1.351   3.226  18.125  0.00  0.00    +0.000 C 
ATOM     22  C   UNL     1       1.178   2.828  19.584  0.00  0.00    +0.000 C 
ATOM     23  C   UNL     1       0.909   4.058  20.436  0.00  0.00    +0.000 C 
ATOM     24  C   UNL     1       1.969   5.135  20.201  0.00  0.00    +0.000 C 
ENDBRANCH  18  19
ENDBRANCH   1  18
TORSDOF 3
ENDMDL
MODEL 7
REMARK VINA RESULT:      -7.3      2.140      6.765
REMARK  Name = 
REMARK  4 active torsions:
REMARK  status: ('A' for Active; 'I' for Inactive)
REMARK    1  A    between atoms: C_1  and  C_2
REMARK    2  A    between atoms: C_2  and  C_3
REMARK    3  A    between atoms: C_2  and  N_18
REMARK    4  A    between atoms: N_9  and  C_10
REMARK                            x       y       z     vdW  Elec       q    Type
REMARK                         _______ _______ _______ _____ _____    ______ ____
ROOT
ATOM      1  C   UNL     1       2.497   6.816  19.584  0.00  0.00    +0.000 A 
ATOM      2  N   UNL     1       3.681   6.396  19.228  0.00  0.00    +0.000 NA
ATOM      3  C   UNL     1       3.864   5.071  19.451  0.00  0.00    +0.000 A 
ATOM      4  C   UNL     1       2.967   4.180  19.991  0.00  0.00    +0.000 A 
ATOM      5  C   UNL     1       3.624   2.947  20.013  0.00  0.00    +0.000 A 
ATOM      6  N   UNL     1       4.865   3.033  19.514  0.00  0.00    +0.000 NA
ATOM      7  N   UNL     1       4.988   4.340  19.165  0.00  0.00    +0.000 N 
ATOM      8  C   UNL     1       1.666   4.646  20.381  0.00  0.00    +0.000 A 
ATOM      9  O   UNL     1       0.794   3.953  20.888  0.00  0.00    +0.000 OA
ATOM     10  N   UNL     1       1.508   5.999  20.124  0.00  0.00    +0.000 N 
ATOM     11  H   UNL     1       0.640   6.419  20.428  0.00  0.00    +0.000 HD
ENDROOT
BRANCH   7  12
ATOM     12  C   UNL     1       6.190   4.815  18.512  0.00  0.00    +0.000 C 
ATOM     13  C   UNL     1       5.941   5.730  17.315  0.00  0.00    +0.000 C 
ATOM     14  C   UNL     1       7.274   6.439  17.108  0.00  0.00    +0.000 C 
ATOM     15  C   UNL     1       7.943   6.496  18.481  0.00  0.00    +0.000 C 
ATOM     16  C   UNL     1       7.085   5.658  19.424  0.00  0.00    +0.000 C 
ENDBRANCH   7  12
BRANCH   1  18
ATOM     17  C   UNL     1       1.741   8.488  17.926  0.00  0.00    +0.000 C 
ATOM     18  C   UNL     1       2.111   8.299  19.405  0.00  0.00    +0.000 C 
BRANCH  18  19
ATOM     19  N   UNL     1       1.010   8.643  20.352  0.00  0.00    +0.000 NA
ATOM     20  C   UNL     1       1.561   8.909  21.707  0.00  0.00    +0.000 C 
ATOM     21  C   UNL     1       0.456   9.204  22.723  0.00  0.00    +0.000 C 
ATOM     22  C   UNL     1      -0.430  10.359  22.275  0.00  0.00    +0.000 C 
ATOM     23  C   UNL     1      -0.912  10.131  20.852  0.00  0.00    +0.000 C 
ATOM     24  C   UNL     1       0.260   9.839  19.913  0.00  0.00    +0.000 C 
ENDBRANCH  18  19
ENDBRANCH   1  18
TORSDOF 3
ENDMDL
MODEL 8
REMARK VINA RESULT:      -7.2      0.361      1.081
REMARK  Name = 
REMARK  4 active torsions:
REMARK  status: ('A' for Active; 'I' for Inactive)
REMARK    1  A    between atoms: C_1  and  C_2
REMARK    2  A    between atoms: C_2  and  C_3
REMARK    3  A    between atoms: C_2  and  N_18
REMARK    4  A    between atoms: N_9  and  C_10
REMARK                            x       y       z     vdW  Elec       q    Type
REMARK                         _______ _______ _______ _____ _____    ______ ____
ROOT
ATOM      1  C   UNL     1       5.507   4.944  18.388  0.00  0.00    +0.000 A 
ATOM      2  N   UNL     1       4.638   5.897  18.592  0.00  0.00    +0.000 NA
ATOM      3  C   UNL     1       3.601   5.512  19.377  0.00  0.00    +0.000 A 
ATOM      4  C   UNL     1       3.393   4.276  19.944  0.00  0.00    +0.000 A 
ATOM      5  C   UNL     1       2.195   4.383  20.655  0.00  0.00    +0.000 A 
ATOM      6  N   UNL     1       1.664   5.610  20.559  0.00  0.00    +0.000 NA
ATOM      7  N   UNL     1       2.548   6.289  19.782  0.00  0.00    +0.000 N 
ATOM      8  C   UNL     1       4.351   3.232  19.717  0.00  0.00    +0.000 A 
ATOM      9  O   UNL     1       4.264   2.091  20.152  0.00  0.00    +0.000 OA
ATOM     10  N   UNL     1       5.404   3.665  18.927  0.00  0.00    +0.000 N 
ATOM     11  H   UNL     1       6.091   2.970  18.668  0.00  0.00    +0.000 HD
ENDROOT
BRANCH   7  12
ATOM     12  C   UNL     1       2.350   7.698  19.507  0.00  0.00    +0.000 C 
ATOM     13  C   UNL     1       1.896   8.006  18.082  0.00  0.00    +0.000 C 
ATOM     14  C   UNL     1       1.328   9.417  18.173  0.00  0.00    +0.000 C 
ATOM     15  C   UNL     1       0.818   9.580  19.604  0.00  0.00    +0.000 C 
ATOM     16  C   UNL     1       1.265   8.340  20.374  0.00  0.00    +0.000 C 
ENDBRANCH   7  12
BRANCH   1  18
ATOM     17  C   UNL     1       7.974   4.770  18.345  0.00  0.00    +0.000 C 
ATOM     18  C   UNL     1       6.753   5.202  17.517  0.00  0.00    +0.000 C 
BRANCH  18  19
ATOM     19  N   UNL     1       6.613   4.472  16.222  0.00  0.00    +0.000 NA
ATOM     20  C   UNL     1       5.179   4.366  15.846  0.00  0.00    +0.000 C 
ATOM     21  C   UNL     1       4.988   3.567  14.554  0.00  0.00    +0.000 C 
ATOM     22  C   UNL     1       5.796   4.152  13.403  0.00  0.00    +0.000 C 
ATOM     23  C   UNL     1       7.242   4.353  13.825  0.00  0.00    +0.000 C 
ATOM     24  C   UNL     1       7.332   5.154  15.125  0.00  0.00    +0.000 C 
ENDBRANCH  18  19
ENDBRANCH   1  18
TORSDOF 3
ENDMDL
MODEL 9
REMARK VINA RESULT:      -7.1      3.107      6.961
REMARK  Name = 
REMARK  4 active torsions:
REMARK  status: ('A' for Active; 'I' for Inactive)
REMARK    1  A    between atoms: C_1  and  C_2
REMARK    2  A    between atoms: C_2  and  C_3
REMARK    3  A    between atoms: C_2  and  N_18
REMARK    4  A    between atoms: N_9  and  C_10
REMARK                            x       y       z     vdW  Elec       q    Type
REMARK                         _______ _______ _______ _____ _____    ______ ____
ROOT
ATOM      1  C   UNL     1       4.504   3.452  17.600  0.00  0.00    +0.000 A 
ATOM      2  N   UNL     1       4.953   3.423  16.374  0.00  0.00    +0.000 NA
ATOM      3  C   UNL     1       5.952   4.313  16.152  0.00  0.00    +0.000 A 
ATOM      4  C   UNL     1       6.503   5.196  17.051  0.00  0.00    +0.000 A 
ATOM      5  C   UNL     1       7.489   5.889  16.345  0.00  0.00    +0.000 A 
ATOM      6  N   UNL     1       7.577   5.477  15.073  0.00  0.00    +0.000 NA
ATOM      7  N   UNL     1       6.634   4.503  14.979  0.00  0.00    +0.000 N 
ATOM      8  C   UNL     1       6.006   5.225  18.398  0.00  0.00    +0.000 A 
ATOM      9  O   UNL     1       6.403   5.978  19.278  0.00  0.00    +0.000 OA
ATOM     10  N   UNL     1       4.999   4.293  18.593  0.00  0.00    +0.000 N 
ATOM     11  H   UNL     1       4.553   4.293  19.500  0.00  0.00    +0.000 HD
ENDROOT
BRANCH   7  12
ATOM     12  C   UNL     1       6.472   3.755  13.749  0.00  0.00    +0.000 C 
ATOM     13  C   UNL     1       5.060   3.790  13.169  0.00  0.00    +0.000 C 
ATOM     14  C   UNL     1       5.246   3.361  11.718  0.00  0.00    +0.000 C 
ATOM     15  C   UNL     1       6.662   3.783  11.327  0.00  0.00    +0.000 C 
ATOM     16  C   UNL     1       7.341   4.276  12.602  0.00  0.00    +0.000 C 
ENDBRANCH   7  12
BRANCH   1  18
ATOM     17  C   UNL     1       3.970   1.101  18.149  0.00  0.00    +0.000 C 
ATOM     18  C   UNL     1       3.364   2.509  18.034  0.00  0.00    +0.000 C 
BRANCH  18  19
ATOM     19  N   UNL     1       2.759   3.011  19.302  0.00  0.00    +0.000 NA
ATOM     20  C   UNL     1       1.276   2.988  19.209  0.00  0.00    +0.000 C 
ATOM     21  C   UNL     1       0.618   3.556  20.469  0.00  0.00    +0.000 C 
ATOM     22  C   UNL     1       1.081   2.831  21.725  0.00  0.00    +0.000 C 
ATOM     23  C   UNL     1       2.599   2.768  21.767  0.00  0.00    +0.000 C 
ATOM     24  C   UNL     1       3.164   2.194  20.466  0.00  0.00    +0.000 C 
ENDBRANCH  18  19
ENDBRANCH   1  18
TORSDOF 3
ENDMDL
