MODEL 1
REMARK VINA RESULT:      -8.7      0.000      0.000
REMARK  Name = 
REMARK  9 active torsions:
REMARK  status: ('A' for Active; 'I' for Inactive)
REMARK    1  A    between atoms: C_1  and  C_2
REMARK    2  A    between atoms: C_2  and  C_3
REMARK    3  A    between atoms: C_2  and  N_17
REMARK    4  A    between atoms: C_3  and  O_4
REMARK    5  A    between atoms: O_4  and  C_5
REMARK    6  A    between atoms: C_10  and  C_11
REMARK    7  A    between atoms: C_20  and  N_21
REMARK    8  A    between atoms: N_21  and  S_22
REMARK    9  A    between atoms: S_22  and  C_25
REMARK                            x       y       z     vdW  Elec       q    Type
REMARK                         _______ _______ _______ _____ _____    ______ ____
ROOT
ATOM      1  N   UNL     1       2.091   3.420  19.404  0.00  0.00    +0.000 NA
ATOM      2  C   UNL     1       1.601   4.029  18.157  0.00  0.00    +0.000 C 
ATOM      3  C   UNL     1       2.148   3.347  16.909  0.00  0.00    +0.000 C 
ATOM      4  C   UNL     1       3.665   3.393  16.872  0.00  0.00    +0.000 C 
ATOM      5  C   UNL     1       4.182   2.736  18.153  0.00  0.00    +0.000 C 
ATOM      6  C   UNL     1       3.567   3.347  19.415  0.00  0.00    +0.000 C 
ENDROOT
BRANCH   1   8
ATOM      7  C   UNL     1       1.629   3.353  21.890  0.00  0.00    +0.000 C 
ATOM      8  C   UNL     1       1.587   4.179  20.589  0.00  0.00    +0.000 C 
BRANCH   8   9
ATOM      9  C   UNL     1       2.318   5.518  20.862  0.00  0.00    +0.000 C 
BRANCH   9  10
ATOM     10  O   UNL     1       1.427   6.628  20.710  0.00  0.00    +0.000 OA
BRANCH  10  11
ATOM     11  C   UNL     1       1.764   7.525  19.723  0.00  0.00    +0.000 A 
ATOM     12  C   UNL     1       2.511   7.119  18.602  0.00  0.00    +0.000 A 
ATOM     13  C   UNL     1       2.886   8.031  17.621  0.00  0.00    +0.000 A 
ATOM     14  C   UNL     1       2.477   9.350  17.724  0.00  0.00    +0.000 A 
ATOM     15  C   UNL     1       1.689   9.751  18.804  0.00  0.00    +0.000 A 
ATOM     16  C   UNL     1       1.318   8.864  19.844  0.00  0.00    +0.000 A 
BRANCH  16  17
ATOM     17  C   UNL     1       0.542   9.390  21.005  0.00  0.00    +0.000 A 
ATOM     18  C   UNL     1       0.722   8.921  22.318  0.00  0.00    +0.000 A 
ATOM     19  C   UNL     1       0.001   9.452  23.395  0.00  0.00    +0.000 A 
ATOM     20  C   UNL     1      -0.944  10.456  23.184  0.00  0.00    +0.000 A 
ATOM     21  C   UNL     1      -1.166  10.921  21.893  0.00  0.00    +0.000 A 
ATOM     22  C   UNL     1      -0.431  10.398  20.825  0.00  0.00    +0.000 A 
ENDBRANCH  16  17
ENDBRANCH  10  11
ENDBRANCH   9  10
ENDBRANCH   8   9
ENDBRANCH   1   8
BRANCH   4  23
ATOM     23  N   UNL     1       4.208   4.774  16.766  0.00  0.00    +0.000 NA
ATOM     24  H   UNL     1       4.203   5.320  17.629  0.00  0.00    +0.000 HD
BRANCH  23  25
ATOM     25  S   UNL     1       5.649   5.069  15.933  0.00  0.00    +0.000 S 
ATOM     26  O   UNL     1       6.194   3.764  15.622  0.00  0.00    +0.000 OA
ATOM     27  O   UNL     1       5.383   6.047  14.906  0.00  0.00    +0.000 OA
BRANCH  25  28
ATOM     28  C   UNL     1       6.712   5.787  17.161  0.00  0.00    +0.000 A 
ATOM     29  C   UNL     1       7.179   4.998  18.221  0.00  0.00    +0.000 A 
ATOM     30  C   UNL     1       7.994   5.570  19.199  0.00  0.00    +0.000 A 
ATOM     31  C   UNL     1       8.351   6.920  19.110  0.00  0.00    +0.000 A 
ATOM     32  C   UNL     1       7.896   7.689  18.038  0.00  0.00    +0.000 A 
ATOM     33 CL   UNL     1       8.344   9.347  17.934  0.00  0.00    +0.000 Cl
ATOM     34  C   UNL     1       7.079   7.133  17.059  0.00  0.00    +0.000 A 
ENDBRANCH  25  28
ENDBRANCH  23  25
ENDBRANCH   4  23
TORSDOF 8
ENDMDL
MODEL 2
REMARK VINA RESULT:      -8.4      4.463      8.028
REMARK  Name = 
REMARK  9 active torsions:
REMARK  status: ('A' for Active; 'I' for Inactive)
REMARK    1  A    between atoms: C_1  and  C_2
REMARK    2  A    between atoms: C_2  and  C_3
REMARK    3  A    between atoms: C_2  and  N_17
REMARK    4  A    between atoms: C_3  and  O_4
REMARK    5  A    between atoms: O_4  and  C_5
REMARK    6  A    between atoms: C_10  and  C_11
REMARK    7  A    between atoms: C_20  and  N_21
REMARK    8  A    between atoms: N_21  and  S_22
REMARK    9  A    between atoms: S_22  and  C_25
REMARK                            x       y       z     vdW  Elec       q    Type
REMARK                         _______ _______ _______ _____ _____    ______ ____
ROOT
ATOM      1  N   UNL     1       0.807   8.731  19.833  0.00  0.00    +0.000 NA
ATOM      2  C   UNL     1       0.747   9.605  21.014  0.00  0.00    +0.000 C 
ATOM      3  C   UNL     1      -0.375  10.632  20.936  0.00  0.00    +0.000 C 
ATOM      4  C   UNL     1      -0.226  11.525  19.716  0.00  0.00    +0.000 C 
ATOM      5  C   UNL     1      -0.191  10.623  18.481  0.00  0.00    +0.000 C 
ATOM      6  C   UNL     1       0.869   9.523  18.588  0.00  0.00    +0.000 C 
ENDROOT
BRANCH   1   8
ATOM      7  C   UNL     1       1.653   6.522  20.730  0.00  0.00    +0.000 C 
ATOM      8  C   UNL     1       1.974   7.800  19.931  0.00  0.00    +0.000 C 
BRANCH   8   9
ATOM      9  C   UNL     1       2.571   7.362  18.569  0.00  0.00    +0.000 C 
BRANCH   9  10
ATOM     10  O   UNL     1       3.824   6.695  18.750  0.00  0.00    +0.000 OA
BRANCH  10  11
ATOM     11  C   UNL     1       4.256   5.947  17.679  0.00  0.00    +0.000 A 
ATOM     12  C   UNL     1       5.039   6.526  16.663  0.00  0.00    +0.000 A 
ATOM     13  C   UNL     1       5.446   5.783  15.560  0.00  0.00    +0.000 A 
ATOM     14  C   UNL     1       5.115   4.441  15.482  0.00  0.00    +0.000 A 
ATOM     15  C   UNL     1       4.386   3.844  16.512  0.00  0.00    +0.000 A 
ATOM     16  C   UNL     1       3.920   4.572  17.633  0.00  0.00    +0.000 A 
BRANCH  16  17
ATOM     17  C   UNL     1       3.076   3.879  18.651  0.00  0.00    +0.000 A 
ATOM     18  C   UNL     1       3.578   3.439  19.887  0.00  0.00    +0.000 A 
ATOM     19  C   UNL     1       2.757   2.817  20.836  0.00  0.00    +0.000 A 
ATOM     20  C   UNL     1       1.409   2.594  20.563  0.00  0.00    +0.000 A 
ATOM     21  C   UNL     1       0.887   2.992  19.338  0.00  0.00    +0.000 A 
ATOM     22  C   UNL     1       1.708   3.627  18.401  0.00  0.00    +0.000 A 
ENDBRANCH  16  17
ENDBRANCH  10  11
ENDBRANCH   9  10
ENDBRANCH   8   9
ENDBRANCH   1   8
BRANCH   4  23
ATOM     23  N   UNL     1       0.999  12.367  19.752  0.00  0.00    +0.000 NA
ATOM     24  H   UNL     1       1.543  12.398  18.888  0.00  0.00    +0.000 HD
BRANCH  23  25
ATOM     25  S   UNL     1       0.959  13.913  20.436  0.00  0.00    +0.000 S 
ATOM     26  O   UNL     1      -0.401  14.378  20.268  0.00  0.00    +0.000 OA
ATOM     27  O   UNL     1       1.587  13.848  21.733  0.00  0.00    +0.000 OA
BRANCH  25  28
ATOM     28  C   UNL     1       1.969  14.888  19.347  0.00  0.00    +0.000 A 
ATOM     29  C   UNL     1       1.473  16.095  18.837  0.00  0.00    +0.000 A 
ATOM     30  C   UNL     1       2.256  16.848  17.961  0.00  0.00    +0.000 A 
ATOM     31  C   UNL     1       3.535  16.402  17.609  0.00  0.00    +0.000 A 
ATOM     32  C   UNL     1       4.025  15.208  18.139  0.00  0.00    +0.000 A 
ATOM     33 CL   UNL     1       5.600  14.669  17.704  0.00  0.00    +0.000 Cl
ATOM     34  C   UNL     1       3.252  14.445  19.009  0.00  0.00    +0.000 A 
ENDBRANCH  25  28
ENDBRANCH  23  25
ENDBRANCH   4  23
TORSDOF 8
ENDMDL
MODEL 3
REMARK VINA RESULT:      -8.3      4.620      9.477
REMARK  Name = 
REMARK  9 active torsions:
REMARK  status: ('A' for Active; 'I' for Inactive)
REMARK    1  A    between atoms: C_1  and  C_2
REMARK    2  A    between atoms: C_2  and  C_3
REMARK    3  A    between atoms: C_2  and  N_17
REMARK    4  A    between atoms: C_3  and  O_4
REMARK    5  A    between atoms: O_4  and  C_5
REMARK    6  A    between atoms: C_10  and  C_11
REMARK    7  A    between atoms: C_20  and  N_21
REMARK    8  A    between atoms: N_21  and  S_22
REMARK    9  A    between atoms: S_22  and  C_25
REMARK                            x       y       z     vdW  Elec       q    Type
REMARK                         _______ _______ _______ _____ _____    ______ ____
ROOT
ATOM      1  N   UNL     1       1.991   8.854  19.330  0.00  0.00    +0.000 NA
ATOM      2  C   UNL     1       1.530   9.702  18.219  0.00  0.00    +0.000 C 
ATOM      3  C   UNL     1       1.165  11.113  18.662  0.00  0.00    +0.000 C 
ATOM      4  C   UNL     1       0.065  11.098  19.709  0.00  0.00    +0.000 C 
ATOM      5  C   UNL     1       0.549  10.241  20.880  0.00  0.00    +0.000 C 
ATOM      6  C   UNL     1       1.012   8.851  20.436  0.00  0.00    +0.000 C 
ENDROOT
BRANCH   1   8
ATOM      7  C   UNL     1       3.384   7.400  17.799  0.00  0.00    +0.000 C 
ATOM      8  C   UNL     1       2.258   7.464  18.849  0.00  0.00    +0.000 C 
BRANCH   8   9
ATOM      9  C   UNL     1       2.602   6.446  19.967  0.00  0.00    +0.000 C 
BRANCH   9  10
ATOM     10  O   UNL     1       3.567   5.492  19.510  0.00  0.00    +0.000 OA
BRANCH  10  11
ATOM     11  C   UNL     1       3.063   4.254  19.183  0.00  0.00    +0.000 A 
ATOM     12  C   UNL     1       1.941   3.731  19.851  0.00  0.00    +0.000 A 
ATOM     13  C   UNL     1       1.452   2.464  19.550  0.00  0.00    +0.000 A 
ATOM     14  C   UNL     1       2.048   1.726  18.542  0.00  0.00    +0.000 A 
ATOM     15  C   UNL     1       3.127   2.259  17.834  0.00  0.00    +0.000 A 
ATOM     16  C   UNL     1       3.680   3.527  18.135  0.00  0.00    +0.000 A 
BRANCH  16  17
ATOM     17  C   UNL     1       4.885   3.991  17.387  0.00  0.00    +0.000 A 
ATOM     18  C   UNL     1       6.109   4.279  18.014  0.00  0.00    +0.000 A 
ATOM     19  C   UNL     1       7.233   4.685  17.284  0.00  0.00    +0.000 A 
ATOM     20  C   UNL     1       7.157   4.840  15.901  0.00  0.00    +0.000 A 
ATOM     21  C   UNL     1       5.952   4.591  15.254  0.00  0.00    +0.000 A 
ATOM     22  C   UNL     1       4.838   4.170  15.986  0.00  0.00    +0.000 A 
ENDBRANCH  16  17
ENDBRANCH  10  11
ENDBRANCH   9  10
ENDBRANCH   8   9
ENDBRANCH   1   8
BRANCH   4  23
ATOM     23  N   UNL     1      -1.224  10.561  19.198  0.00  0.00    +0.000 NA
ATOM     24  H   UNL     1      -1.925  10.339  19.908  0.00  0.00    +0.000 HD
BRANCH  23  25
ATOM     25  S   UNL     1      -1.988  11.279  17.872  0.00  0.00    +0.000 S 
ATOM     26  O   UNL     1      -1.384  12.587  17.734  0.00  0.00    +0.000 OA
ATOM     27  O   UNL     1      -1.996  10.326  16.788  0.00  0.00    +0.000 OA
BRANCH  25  28
ATOM     28  C   UNL     1      -3.654  11.542  18.429  0.00  0.00    +0.000 A 
ATOM     29  C   UNL     1      -4.722  10.996  17.704  0.00  0.00    +0.000 A 
ATOM     30  C   UNL     1      -6.032  11.225  18.128  0.00  0.00    +0.000 A 
ATOM     31  C   UNL     1      -6.271  11.984  19.279  0.00  0.00    +0.000 A 
ATOM     32  C   UNL     1      -5.198  12.505  20.003  0.00  0.00    +0.000 A 
ATOM     33 CL   UNL     1      -5.501  13.434  21.420  0.00  0.00    +0.000 Cl
ATOM     34  C   UNL     1      -3.887  12.289  19.588  0.00  0.00    +0.000 A 
ENDBRANCH  25  28
ENDBRANCH  23  25
ENDBRANCH   4  23
TORSDOF 8
ENDMDL
MODEL 4
REMARK VINA RESULT:      -8.2      4.777      8.679
REMARK  Name = 
REMARK  9 active torsions:
REMARK  status: ('A' for Active; 'I' for Inactive)
REMARK    1  A    between atoms: C_1  and  C_2
REMARK    2  A    between atoms: C_2  and  C_3
REMARK    3  A    between atoms: C_2  and  N_17
REMARK    4  A    between atoms: C_3  and  O_4
REMARK    5  A    between atoms: O_4  and  C_5
REMARK    6  A    between atoms: C_10  and  C_11
REMARK    7  A    between atoms: C_20  and  N_21
REMARK    8  A    between atoms: N_21  and  S_22
REMARK    9  A    between atoms: S_22  and  C_25
REMARK                            x       y       z     vdW  Elec       q    Type
REMARK                         _______ _______ _______ _____ _____    ______ ____
ROOT
ATOM      1  N   UNL     1       0.886   9.264  19.640  0.00  0.00    +0.000 NA
ATOM      2  C   UNL     1       0.389   9.753  20.936  0.00  0.00    +0.000 C 
ATOM      3  C   UNL     1      -0.585  10.916  20.798  0.00  0.00    +0.000 C 
ATOM      4  C   UNL     1       0.055  12.093  20.083  0.00  0.00    +0.000 C 
ATOM      5  C   UNL     1       0.549  11.598  18.722  0.00  0.00    +0.000 C 
ATOM      6  C   UNL     1       1.452  10.368  18.839  0.00  0.00    +0.000 C 
ENDROOT
BRANCH   1   8
ATOM      7  C   UNL     1       1.350   7.005  20.679  0.00  0.00    +0.000 C 
ATOM      8  C   UNL     1       1.895   8.180  19.843  0.00  0.00    +0.000 C 
BRANCH   8   9
ATOM      9  C   UNL     1       2.485   7.589  18.537  0.00  0.00    +0.000 C 
BRANCH   9  10
ATOM     10  O   UNL     1       3.663   6.823  18.808  0.00  0.00    +0.000 OA
BRANCH  10  11
ATOM     11  C   UNL     1       4.108   6.038  17.770  0.00  0.00    +0.000 A 
ATOM     12  C   UNL     1       4.927   6.573  16.759  0.00  0.00    +0.000 A 
ATOM     13  C   UNL     1       5.348   5.791  15.688  0.00  0.00    +0.000 A 
ATOM     14  C   UNL     1       4.996   4.454  15.641  0.00  0.00    +0.000 A 
ATOM     15  C   UNL     1       4.231   3.899  16.668  0.00  0.00    +0.000 A 
ATOM     16  C   UNL     1       3.750   4.667  17.756  0.00  0.00    +0.000 A 
BRANCH  16  17
ATOM     17  C   UNL     1       2.869   4.019  18.770  0.00  0.00    +0.000 A 
ATOM     18  C   UNL     1       1.538   3.652  18.504  0.00  0.00    +0.000 A 
ATOM     19  C   UNL     1       0.742   3.018  19.466  0.00  0.00    +0.000 A 
ATOM     20  C   UNL     1       1.249   2.755  20.738  0.00  0.00    +0.000 A 
ATOM     21  C   UNL     1       2.552   3.131  21.042  0.00  0.00    +0.000 A 
ATOM     22  C   UNL     1       3.347   3.748  20.072  0.00  0.00    +0.000 A 
ENDBRANCH  16  17
ENDBRANCH  10  11
ENDBRANCH   9  10
ENDBRANCH   8   9
ENDBRANCH   1   8
BRANCH   4  23
ATOM     23  N   UNL     1       1.189  12.691  20.837  0.00  0.00    +0.000 NA
ATOM     24  H   UNL     1       2.101  12.643  20.380  0.00  0.00    +0.000 HD
BRANCH  23  25
ATOM     25  S   UNL     1       1.024  14.199  21.584  0.00  0.00    +0.000 S 
ATOM     26  O   UNL     1      -0.230  14.142  22.304  0.00  0.00    +0.000 OA
ATOM     27  O   UNL     1       2.268  14.513  22.244  0.00  0.00    +0.000 OA
BRANCH  25  28
ATOM     28  C   UNL     1       0.783  15.322  20.229  0.00  0.00    +0.000 A 
ATOM     29  C   UNL     1      -0.477  15.900  20.023  0.00  0.00    +0.000 A 
ATOM     30  C   UNL     1      -0.673  16.762  18.943  0.00  0.00    +0.000 A 
ATOM     31  C   UNL     1       0.391  17.056  18.083  0.00  0.00    +0.000 A 
ATOM     32  C   UNL     1       1.646  16.491  18.311  0.00  0.00    +0.000 A 
ATOM     33 CL   UNL     1       2.949  16.862  17.250  0.00  0.00    +0.000 Cl
ATOM     34  C   UNL     1       1.853  15.625  19.380  0.00  0.00    +0.000 A 
ENDBRANCH  25  28
ENDBRANCH  23  25
ENDBRANCH   4  23
TORSDOF 8
ENDMDL
MODEL 5
REMARK VINA RESULT:      -8.2      4.627      9.508
REMARK  Name = 
REMARK  9 active torsions:
REMARK  status: ('A' for Active; 'I' for Inactive)
REMARK    1  A    between atoms: C_1  and  C_2
REMARK    2  A    between atoms: C_2  and  C_3
REMARK    3  A    between atoms: C_2  and  N_17
REMARK    4  A    between atoms: C_3  and  O_4
REMARK    5  A    between atoms: O_4  and  C_5
REMARK    6  A    between atoms: C_10  and  C_11
REMARK    7  A    between atoms: C_20  and  N_21
REMARK    8  A    between atoms: N_21  and  S_22
REMARK    9  A    between atoms: S_22  and  C_25
REMARK                            x       y       z     vdW  Elec       q    Type
REMARK                         _______ _______ _______ _____ _____    ______ ____
ROOT
ATOM      1  N   UNL     1       2.111   8.786  19.275  0.00  0.00    +0.000 NA
ATOM      2  C   UNL     1       1.769   9.644  18.130  0.00  0.00    +0.000 C 
ATOM      3  C   UNL     1       1.448  11.077  18.536  0.00  0.00    +0.000 C 
ATOM      4  C   UNL     1       0.284  11.130  19.509  0.00  0.00    +0.000 C 
ATOM      5  C   UNL     1       0.645  10.262  20.716  0.00  0.00    +0.000 C 
ATOM      6  C   UNL     1       1.064   8.845  20.315  0.00  0.00    +0.000 C 
ENDROOT
BRANCH   1   8
ATOM      7  C   UNL     1       3.458   7.258  17.775  0.00  0.00    +0.000 C 
ATOM      8  C   UNL     1       2.336   7.378  18.824  0.00  0.00    +0.000 C 
BRANCH   8   9
ATOM      9  C   UNL     1       2.652   6.375  19.963  0.00  0.00    +0.000 C 
BRANCH   9  10
ATOM     10  O   UNL     1       3.668   5.449  19.562  0.00  0.00    +0.000 OA
BRANCH  10  11
ATOM     11  C   UNL     1       3.227   4.178  19.273  0.00  0.00    +0.000 A 
ATOM     12  C   UNL     1       2.188   3.588  20.015  0.00  0.00    +0.000 A 
ATOM     13  C   UNL     1       1.765   2.289  19.751  0.00  0.00    +0.000 A 
ATOM     14  C   UNL     1       2.343   1.583  18.710  0.00  0.00    +0.000 A 
ATOM     15  C   UNL     1       3.336   2.180  17.932  0.00  0.00    +0.000 A 
ATOM     16  C   UNL     1       3.822   3.484  18.191  0.00  0.00    +0.000 A 
BRANCH  16  17
ATOM     17  C   UNL     1       4.943   4.020  17.364  0.00  0.00    +0.000 A 
ATOM     18  C   UNL     1       6.213   4.305  17.893  0.00  0.00    +0.000 A 
ATOM     19  C   UNL     1       7.257   4.780  17.088  0.00  0.00    +0.000 A 
ATOM     20  C   UNL     1       7.049   5.010  15.729  0.00  0.00    +0.000 A 
ATOM     21  C   UNL     1       5.796   4.766  15.181  0.00  0.00    +0.000 A 
ATOM     22  C   UNL     1       4.763   4.276  15.986  0.00  0.00    +0.000 A 
ENDBRANCH  16  17
ENDBRANCH  10  11
ENDBRANCH   9  10
ENDBRANCH   8   9
ENDBRANCH   1   8
BRANCH   4  23
ATOM     23  N   UNL     1      -0.996  10.654  18.919  0.00  0.00    +0.000 NA
ATOM     24  H   UNL     1      -1.595  10.106  19.539  0.00  0.00    +0.000 HD
BRANCH  23  25
ATOM     25  S   UNL     1      -1.958  11.697  18.000  0.00  0.00    +0.000 S 
ATOM     26  O   UNL     1      -1.197  12.921  17.873  0.00  0.00    +0.000 OA
ATOM     27  O   UNL     1      -2.433  10.972  16.846  0.00  0.00    +0.000 OA
BRANCH  25  28
ATOM     28  C   UNL     1      -3.332  12.060  19.066  0.00  0.00    +0.000 A 
ATOM     29  C   UNL     1      -3.099  12.604  20.337  0.00  0.00    +0.000 A 
ATOM     30  C   UNL     1      -4.177  12.864  21.184  0.00  0.00    +0.000 A 
ATOM     31  C   UNL     1      -5.482  12.596  20.756  0.00  0.00    +0.000 A 
ATOM     32  C   UNL     1      -5.702  12.073  19.481  0.00  0.00    +0.000 A 
ATOM     33 CL   UNL     1      -7.311  11.750  18.963  0.00  0.00    +0.000 Cl
ATOM     34  C   UNL     1      -4.636  11.803  18.629  0.00  0.00    +0.000 A 
ENDBRANCH  25  28
ENDBRANCH  23  25
ENDBRANCH   4  23
TORSDOF 8
ENDMDL
MODEL 6
REMARK VINA RESULT:      -8.2      4.827      8.190
REMARK  Name = 
REMARK  9 active torsions:
REMARK  status: ('A' for Active; 'I' for Inactive)
REMARK    1  A    between atoms: C_1  and  C_2
REMARK    2  A    between atoms: C_2  and  C_3
REMARK    3  A    between atoms: C_2  and  N_17
REMARK    4  A    between atoms: C_3  and  O_4
REMARK    5  A    between atoms: O_4  and  C_5
REMARK    6  A    between atoms: C_10  and  C_11
REMARK    7  A    between atoms: C_20  and  N_21
REMARK    8  A    between atoms: N_21  and  S_22
REMARK    9  A    between atoms: S_22  and  C_25
REMARK                            x       y       z     vdW  Elec       q    Type
REMARK                         _______ _______ _______ _____ _____    ______ ____
ROOT
ATOM      1  N   UNL     1       0.907   9.403  19.241  0.00  0.00    +0.000 NA
ATOM      2  C   UNL     1       0.151   9.756  20.453  0.00  0.00    +0.000 C 
ATOM      3  C   UNL     1      -0.834  10.897  20.227  0.00  0.00    +0.000 C 
ATOM      4  C   UNL     1      -0.126  12.153  19.751  0.00  0.00    +0.000 C 
ATOM      5  C   UNL     1       0.640  11.800  18.474  0.00  0.00    +0.000 C 
ATOM      6  C   UNL     1       1.562  10.592  18.659  0.00  0.00    +0.000 C 
ENDROOT
BRANCH   1   8
ATOM      7  C   UNL     1       1.390   7.297  20.556  0.00  0.00    +0.000 C 
ATOM      8  C   UNL     1       1.909   8.336  19.543  0.00  0.00    +0.000 C 
BRANCH   8   9
ATOM      9  C   UNL     1       2.427   7.562  18.304  0.00  0.00    +0.000 C 
BRANCH   9  10
ATOM     10  O   UNL     1       3.683   6.934  18.580  0.00  0.00    +0.000 OA
BRANCH  10  11
ATOM     11  C   UNL     1       4.143   6.078  17.605  0.00  0.00    +0.000 A 
ATOM     12  C   UNL     1       4.962   6.546  16.562  0.00  0.00    +0.000 A 
ATOM     13  C   UNL     1       5.398   5.692  15.554  0.00  0.00    +0.000 A 
ATOM     14  C   UNL     1       5.060   4.351  15.604  0.00  0.00    +0.000 A 
ATOM     15  C   UNL     1       4.294   3.866  16.665  0.00  0.00    +0.000 A 
ATOM     16  C   UNL     1       3.798   4.707  17.690  0.00  0.00    +0.000 A 
BRANCH  16  17
ATOM     17  C   UNL     1       2.917   4.126  18.746  0.00  0.00    +0.000 A 
ATOM     18  C   UNL     1       3.379   3.803  20.033  0.00  0.00    +0.000 A 
ATOM     19  C   UNL     1       2.524   3.285  21.014  0.00  0.00    +0.000 A 
ATOM     20  C   UNL     1       1.181   3.051  20.725  0.00  0.00    +0.000 A 
ATOM     21  C   UNL     1       0.699   3.333  19.453  0.00  0.00    +0.000 A 
ATOM     22  C   UNL     1       1.554   3.865  18.483  0.00  0.00    +0.000 A 
ENDBRANCH  16  17
ENDBRANCH  10  11
ENDBRANCH   9  10
ENDBRANCH   8   9
ENDBRANCH   1   8
BRANCH   4  23
ATOM     23  N   UNL     1       0.815  12.714  20.756  0.00  0.00    +0.000 NA
ATOM     24  H   UNL     1       1.759  12.325  20.747  0.00  0.00    +0.000 HD
BRANCH  23  25
ATOM     25  S   UNL     1       0.906  14.383  21.009  0.00  0.00    +0.000 S 
ATOM     26  O   UNL     1      -0.371  14.914  20.581  0.00  0.00    +0.000 OA
ATOM     27  O   UNL     1       1.418  14.609  22.340  0.00  0.00    +0.000 OA
BRANCH  25  28
ATOM     28  C   UNL     1       2.109  14.930  19.822  0.00  0.00    +0.000 A 
ATOM     29  C   UNL     1       3.408  14.406  19.860  0.00  0.00    +0.000 A 
ATOM     30  C   UNL     1       4.360  14.854  18.943  0.00  0.00    +0.000 A 
ATOM     31  C   UNL     1       4.010  15.811  17.985  0.00  0.00    +0.000 A 
ATOM     32  C   UNL     1       2.708  16.310  17.944  0.00  0.00    +0.000 A 
ATOM     33 CL   UNL     1       2.285  17.483  16.759  0.00  0.00    +0.000 Cl
ATOM     34  C   UNL     1       1.751  15.876  18.856  0.00  0.00    +0.000 A 
ENDBRANCH  25  28
ENDBRANCH  23  25
ENDBRANCH   4  23
TORSDOF 8
ENDMDL
MODEL 7
REMARK VINA RESULT:      -8.2      4.625      8.949
REMARK  Name = 
REMARK  9 active torsions:
REMARK  status: ('A' for Active; 'I' for Inactive)
REMARK    1  A    between atoms: C_1  and  C_2
REMARK    2  A    between atoms: C_2  and  C_3
REMARK    3  A    between atoms: C_2  and  N_17
REMARK    4  A    between atoms: C_3  and  O_4
REMARK    5  A    between atoms: O_4  and  C_5
REMARK    6  A    between atoms: C_10  and  C_11
REMARK    7  A    between atoms: C_20  and  N_21
REMARK    8  A    between atoms: N_21  and  S_22
REMARK    9  A    between atoms: S_22  and  C_25
REMARK                            x       y       z     vdW  Elec       q    Type
REMARK                         _______ _______ _______ _____ _____    ______ ____
ROOT
ATOM      1  N   UNL     1       1.650   8.766  20.288  0.00  0.00    +0.000 NA
ATOM      2  C   UNL     1       1.578   9.445  18.985  0.00  0.00    +0.000 C 
ATOM      3  C   UNL     1       1.051  10.871  19.087  0.00  0.00    +0.000 C 
ATOM      4  C   UNL     1      -0.340  10.905  19.696  0.00  0.00    +0.000 C 
ATOM      5  C   UNL     1      -0.265  10.225  21.064  0.00  0.00    +0.000 C 
ATOM      6  C   UNL     1       0.353   8.827  20.991  0.00  0.00    +0.000 C 
ENDROOT
BRANCH   1   8
ATOM      7  C   UNL     1       1.016   6.328  20.520  0.00  0.00    +0.000 C 
ATOM      8  C   UNL     1       2.097   7.349  20.114  0.00  0.00    +0.000 C 
BRANCH   8   9
ATOM      9  C   UNL     1       2.567   6.988  18.682  0.00  0.00    +0.000 C 
BRANCH   9  10
ATOM     10  O   UNL     1       3.947   6.607  18.677  0.00  0.00    +0.000 OA
BRANCH  10  11
ATOM     11  C   UNL     1       4.348   5.855  17.597  0.00  0.00    +0.000 A 
ATOM     12  C   UNL     1       5.153   6.413  16.587  0.00  0.00    +0.000 A 
ATOM     13  C   UNL     1       5.529   5.667  15.475  0.00  0.00    +0.000 A 
ATOM     14  C   UNL     1       5.146   4.341  15.383  0.00  0.00    +0.000 A 
ATOM     15  C   UNL     1       4.394   3.761  16.407  0.00  0.00    +0.000 A 
ATOM     16  C   UNL     1       3.958   4.494  17.536  0.00  0.00    +0.000 A 
BRANCH  16  17
ATOM     17  C   UNL     1       3.088   3.824  18.547  0.00  0.00    +0.000 A 
ATOM     18  C   UNL     1       1.758   3.452  18.283  0.00  0.00    +0.000 A 
ATOM     19  C   UNL     1       0.973   2.798  19.240  0.00  0.00    +0.000 A 
ATOM     20  C   UNL     1       1.490   2.519  20.504  0.00  0.00    +0.000 A 
ATOM     21  C   UNL     1       2.792   2.899  20.806  0.00  0.00    +0.000 A 
ATOM     22  C   UNL     1       3.577   3.537  19.841  0.00  0.00    +0.000 A 
ENDBRANCH  16  17
ENDBRANCH  10  11
ENDBRANCH   9  10
ENDBRANCH   8   9
ENDBRANCH   1   8
BRANCH   4  23
ATOM     23  N   UNL     1      -1.364  10.227  18.858  0.00  0.00    +0.000 NA
ATOM     24  H   UNL     1      -2.045   9.657  19.363  0.00  0.00    +0.000 HD
BRANCH  23  25
ATOM     25  S   UNL     1      -2.155  11.067  17.622  0.00  0.00    +0.000 S 
ATOM     26  O   UNL     1      -1.479  12.343  17.522  0.00  0.00    +0.000 OA
ATOM     27  O   UNL     1      -2.285  10.183  16.489  0.00  0.00    +0.000 OA
BRANCH  25  28
ATOM     28  C   UNL     1      -3.767  11.396  18.293  0.00  0.00    +0.000 A 
ATOM     29  C   UNL     1      -4.901  10.866  17.663  0.00  0.00    +0.000 A 
ATOM     30  C   UNL     1      -6.168  11.146  18.175  0.00  0.00    +0.000 A 
ATOM     31  C   UNL     1      -6.299  11.940  19.321  0.00  0.00    +0.000 A 
ATOM     32  C   UNL     1      -5.161  12.444  19.951  0.00  0.00    +0.000 A 
ATOM     33 CL   UNL     1      -5.331  13.415  21.361  0.00  0.00    +0.000 Cl
ATOM     34  C   UNL     1      -3.891  12.177  19.446  0.00  0.00    +0.000 A 
ENDBRANCH  25  28
ENDBRANCH  23  25
ENDBRANCH   4  23
TORSDOF 8
ENDMDL
MODEL 8
REMARK VINA RESULT:      -8.1      4.473      7.821
REMARK  Name = 
REMARK  9 active torsions:
REMARK  status: ('A' for Active; 'I' for Inactive)
REMARK    1  A    between atoms: C_1  and  C_2
REMARK    2  A    between atoms: C_2  and  C_3
REMARK    3  A    between atoms: C_2  and  N_17
REMARK    4  A    between atoms: C_3  and  O_4
REMARK    5  A    between atoms: O_4  and  C_5
REMARK    6  A    between atoms: C_10  and  C_11
REMARK    7  A    between atoms: C_20  and  N_21
REMARK    8  A    between atoms: N_21  and  S_22
REMARK    9  A    between atoms: S_22  and  C_25
REMARK                            x       y       z     vdW  Elec       q    Type
REMARK                         _______ _______ _______ _____ _____    ______ ____
ROOT
ATOM      1  N   UNL     1       1.019   8.783  19.848  0.00  0.00    +0.000 NA
ATOM      2  C   UNL     1       0.974   9.514  21.125  0.00  0.00    +0.000 C 
ATOM      3  C   UNL     1      -0.034  10.656  21.120  0.00  0.00    +0.000 C 
ATOM      4  C   UNL     1       0.277  11.665  20.028  0.00  0.00    +0.000 C 
ATOM      5  C   UNL     1       0.297  10.916  18.694  0.00  0.00    +0.000 C 
ATOM      6  C   UNL     1       1.234   9.706  18.716  0.00  0.00    +0.000 C 
ENDROOT
BRANCH   1   8
ATOM      7  C   UNL     1       1.622   6.448  20.611  0.00  0.00    +0.000 C 
ATOM      8  C   UNL     1       2.079   7.730  19.887  0.00  0.00    +0.000 C 
BRANCH   8   9
ATOM      9  C   UNL     1       2.629   7.311  18.499  0.00  0.00    +0.000 C 
BRANCH   9  10
ATOM     10  O   UNL     1       3.908   6.680  18.625  0.00  0.00    +0.000 OA
BRANCH  10  11
ATOM     11  C   UNL     1       4.325   5.968  17.524  0.00  0.00    +0.000 A 
ATOM     12  C   UNL     1       5.089   6.580  16.514  0.00  0.00    +0.000 A 
ATOM     13  C   UNL     1       5.480   5.874  15.382  0.00  0.00    +0.000 A 
ATOM     14  C   UNL     1       5.155   4.533  15.269  0.00  0.00    +0.000 A 
ATOM     15  C   UNL     1       4.446   3.901  16.292  0.00  0.00    +0.000 A 
ATOM     16  C   UNL     1       3.995   4.593  17.443  0.00  0.00    +0.000 A 
BRANCH  16  17
ATOM     17  C   UNL     1       3.171   3.865  18.452  0.00  0.00    +0.000 A 
ATOM     18  C   UNL     1       3.697   3.383  19.663  0.00  0.00    +0.000 A 
ATOM     19  C   UNL     1       2.896   2.728  20.606  0.00  0.00    +0.000 A 
ATOM     20  C   UNL     1       1.542   2.513  20.352  0.00  0.00    +0.000 A 
ATOM     21  C   UNL     1       0.996   2.953  19.152  0.00  0.00    +0.000 A 
ATOM     22  C   UNL     1       1.799   3.620  18.221  0.00  0.00    +0.000 A 
ENDBRANCH  16  17
ENDBRANCH  10  11
ENDBRANCH   9  10
ENDBRANCH   8   9
ENDBRANCH   1   8
BRANCH   4  23
ATOM     23  N   UNL     1       1.575  12.363  20.227  0.00  0.00    +0.000 NA
ATOM     24  H   UNL     1       2.304  12.150  19.543  0.00  0.00    +0.000 HD
BRANCH  23  25
ATOM     25  S   UNL     1       1.616  14.016  20.582  0.00  0.00    +0.000 S 
ATOM     26  O   UNL     1       0.451  14.583  19.937  0.00  0.00    +0.000 OA
ATOM     27  O   UNL     1       1.852  14.167  21.997  0.00  0.00    +0.000 OA
BRANCH  25  28
ATOM     28  C   UNL     1       3.032  14.609  19.688  0.00  0.00    +0.000 A 
ATOM     29  C   UNL     1       2.903  14.958  18.337  0.00  0.00    +0.000 A 
ATOM     30  C   UNL     1       4.021  15.399  17.628  0.00  0.00    +0.000 A 
ATOM     31  C   UNL     1       5.259  15.505  18.272  0.00  0.00    +0.000 A 
ATOM     32  C   UNL     1       5.370  15.174  19.623  0.00  0.00    +0.000 A 
ATOM     33 CL   UNL     1       6.895  15.310  20.408  0.00  0.00    +0.000 Cl
ATOM     34  C   UNL     1       4.264  14.726  20.339  0.00  0.00    +0.000 A 
ENDBRANCH  25  28
ENDBRANCH  23  25
ENDBRANCH   4  23
TORSDOF 8
ENDMDL
MODEL 9
REMARK VINA RESULT:      -8.1      5.120      9.864
REMARK  Name = 
REMARK  9 active torsions:
REMARK  status: ('A' for Active; 'I' for Inactive)
REMARK    1  A    between atoms: C_1  and  C_2
REMARK    2  A    between atoms: C_2  and  C_3
REMARK    3  A    between atoms: C_2  and  N_17
REMARK    4  A    between atoms: C_3  and  O_4
REMARK    5  A    between atoms: O_4  and  C_5
REMARK    6  A    between atoms: C_10  and  C_11
REMARK    7  A    between atoms: C_20  and  N_21
REMARK    8  A    between atoms: N_21  and  S_22
REMARK    9  A    between atoms: S_22  and  C_25
REMARK                            x       y       z     vdW  Elec       q    Type
REMARK                         _______ _______ _______ _____ _____    ______ ____
ROOT
ATOM      1  N   UNL     1       0.934  10.117  20.529  0.00  0.00    +0.000 NA
ATOM      2  C   UNL     1       0.674  11.509  20.129  0.00  0.00    +0.000 C 
ATOM      3  C   UNL     1       0.420  12.430  21.316  0.00  0.00    +0.000 C 
ATOM      4  C   UNL     1      -0.770  11.962  22.136  0.00  0.00    +0.000 C 
ATOM      5  C   UNL     1      -0.493  10.524  22.579  0.00  0.00    +0.000 C 
ATOM      6  C   UNL     1      -0.140   9.607  21.405  0.00  0.00    +0.000 C 
ENDROOT
BRANCH   1   8
ATOM      7  C   UNL     1       1.583  10.029  18.086  0.00  0.00    +0.000 C 
ATOM      8  C   UNL     1       1.097   9.249  19.323  0.00  0.00    +0.000 C 
BRANCH   8   9
ATOM      9  C   UNL     1       2.048   8.040  19.517  0.00  0.00    +0.000 C 
BRANCH   9  10
ATOM     10  O   UNL     1       2.000   7.165  18.384  0.00  0.00    +0.000 OA
BRANCH  10  11
ATOM     11  C   UNL     1       3.210   6.636  17.997  0.00  0.00    +0.000 A 
ATOM     12  C   UNL     1       4.113   7.388  17.223  0.00  0.00    +0.000 A 
ATOM     13  C   UNL     1       5.320   6.843  16.798  0.00  0.00    +0.000 A 
ATOM     14  C   UNL     1       5.660   5.557  17.182  0.00  0.00    +0.000 A 
ATOM     15  C   UNL     1       4.796   4.823  17.996  0.00  0.00    +0.000 A 
ATOM     16  C   UNL     1       3.542   5.325  18.419  0.00  0.00    +0.000 A 
BRANCH  16  17
ATOM     17  C   UNL     1       2.639   4.447  19.220  0.00  0.00    +0.000 A 
ATOM     18  C   UNL     1       1.688   3.593  18.635  0.00  0.00    +0.000 A 
ATOM     19  C   UNL     1       0.873   2.757  19.409  0.00  0.00    +0.000 A 
ATOM     20  C   UNL     1       0.970   2.771  20.799  0.00  0.00    +0.000 A 
ATOM     21  C   UNL     1       1.880   3.625  21.410  0.00  0.00    +0.000 A 
ATOM     22  C   UNL     1       2.702   4.445  20.631  0.00  0.00    +0.000 A 
ENDBRANCH  16  17
ENDBRANCH  10  11
ENDBRANCH   9  10
ENDBRANCH   8   9
ENDBRANCH   1   8
BRANCH   4  23
ATOM     23  N   UNL     1      -2.054  12.014  21.388  0.00  0.00    +0.000 NA
ATOM     24  H   UNL     1      -2.375  11.128  20.993  0.00  0.00    +0.000 HD
BRANCH  23  25
ATOM     25  S   UNL     1      -3.381  12.851  22.018  0.00  0.00    +0.000 S 
ATOM     26  O   UNL     1      -3.734  12.160  23.240  0.00  0.00    +0.000 OA
ATOM     27  O   UNL     1      -3.074  14.260  22.002  0.00  0.00    +0.000 OA
BRANCH  25  28
ATOM     28  C   UNL     1      -4.683  12.524  20.855  0.00  0.00    +0.000 A 
ATOM     29  C   UNL     1      -6.008  12.436  21.303  0.00  0.00    +0.000 A 
ATOM     30  C   UNL     1      -7.027  12.154  20.393  0.00  0.00    +0.000 A 
ATOM     31  C   UNL     1      -6.725  11.976  19.039  0.00  0.00    +0.000 A 
ATOM     32  C   UNL     1      -5.404  12.086  18.601  0.00  0.00    +0.000 A 
ATOM     33 CL   UNL     1      -5.042  11.869  16.934  0.00  0.00    +0.000 Cl
ATOM     34  C   UNL     1      -4.378  12.361  19.500  0.00  0.00    +0.000 A 
ENDBRANCH  25  28
ENDBRANCH  23  25
ENDBRANCH   4  23
TORSDOF 8
ENDMDL
