MODEL 1
REMARK VINA RESULT:      -7.0      0.000      0.000
REMARK  Name = 
REMARK  12 active torsions:
REMARK  status: ('A' for Active; 'I' for Inactive)
REMARK    1  A    between atoms: C_1  and  C_2
REMARK    2  A    between atoms: C_2  and  C_3
REMARK    3  A    between atoms: C_3  and  C_4
REMARK    4  A    between atoms: C_3  and  N_11
REMARK    5  A    between atoms: C_4  and  O_6
REMARK    6  A    between atoms: O_6  and  C_7
REMARK    7  A    between atoms: C_7  and  C_8
REMARK    8  A    between atoms: C_7  and  C_9
REMARK    9  A    between atoms: C_7  and  C_10
REMARK   10  A    between atoms: N_14  and  S_15
REMARK   11  A    between atoms: S_15  and  C_18
REMARK   12  A    between atoms: C_18  and  C_19
REMARK                            x       y       z     vdW  Elec       q    Type
REMARK                         _______ _______ _______ _____ _____    ______ ____
ROOT
ATOM      1  N   UNL     1       4.206   5.041  18.342  0.00  0.00    +0.000 NA
ATOM      2  C   UNL     1       4.063   5.033  16.869  0.00  0.00    +0.000 C 
ATOM      3  C   UNL     1       4.833   6.145  16.127  0.00  0.00    +0.000 C 
ATOM      4  N   UNL     1       6.287   6.143  16.467  0.00  0.00    +0.000 NA
ATOM      5  C   UNL     1       6.446   6.231  17.959  0.00  0.00    +0.000 C 
ATOM      6  C   UNL     1       5.658   5.109  18.673  0.00  0.00    +0.000 C 
ENDROOT
BRANCH   4   7
ATOM      7  S   UNL     1       7.267   4.959  15.720  0.00  0.00    +0.000 S 
ATOM      8  O   UNL     1       7.921   5.587  14.597  0.00  0.00    +0.000 OA
ATOM      9  O   UNL     1       8.039   4.287  16.743  0.00  0.00    +0.000 OA
BRANCH   7  10
ATOM     10  C   UNL     1       6.060   3.799  15.079  0.00  0.00    +0.000 C 
ATOM     11  C   UNL     1       6.098   3.763  13.563  0.00  0.00    +0.000 C 
ENDBRANCH   7  10
ENDBRANCH   4   7
BRANCH   1  12
ATOM     12  C   UNL     1       3.389   6.094  19.015  0.00  0.00    +0.000 C 
BRANCH  12  14
ATOM     13  C   UNL     1       2.458   8.306  18.103  0.00  0.00    +0.000 C 
ATOM     14  C   UNL     1       2.391   6.785  18.059  0.00  0.00    +0.000 C 
ENDBRANCH  12  14
BRANCH  12  15
ATOM     15  C   UNL     1       2.587   5.496  20.185  0.00  0.00    +0.000 C 
ATOM     16  O   UNL     1       1.737   6.139  20.788  0.00  0.00    +0.000 OA
BRANCH  15  17
ATOM     17  O   UNL     1       2.952   4.210  20.449  0.00  0.00    +0.000 OA
BRANCH  17  18
ATOM     18  C   UNL     1       2.037   3.116  20.190  0.00  0.00    +0.000 C 
ATOM     19  C   UNL     1       2.737   1.966  19.457  0.00  0.00    +0.000 C 
ATOM     20  C   UNL     1       1.591   2.619  21.576  0.00  0.00    +0.000 C 
ATOM     21  C   UNL     1       0.795   3.603  19.432  0.00  0.00    +0.000 C 
ENDBRANCH  17  18
ENDBRANCH  15  17
ENDBRANCH  12  15
ENDBRANCH   1  12
TORSDOF 7
ENDMDL
MODEL 2
REMARK VINA RESULT:      -6.6      2.553      6.302
REMARK  Name = 
REMARK  12 active torsions:
REMARK  status: ('A' for Active; 'I' for Inactive)
REMARK    1  A    between atoms: C_1  and  C_2
REMARK    2  A    between atoms: C_2  and  C_3
REMARK    3  A    between atoms: C_3  and  C_4
REMARK    4  A    between atoms: C_3  and  N_11
REMARK    5  A    between atoms: C_4  and  O_6
REMARK    6  A    between atoms: O_6  and  C_7
REMARK    7  A    between atoms: C_7  and  C_8
REMARK    8  A    between atoms: C_7  and  C_9
REMARK    9  A    between atoms: C_7  and  C_10
REMARK   10  A    between atoms: N_14  and  S_15
REMARK   11  A    between atoms: S_15  and  C_18
REMARK   12  A    between atoms: C_18  and  C_19
REMARK                            x       y       z     vdW  Elec       q    Type
REMARK                         _______ _______ _______ _____ _____    ______ ____
ROOT
ATOM      1  N   UNL     1       5.174   3.902  18.343  0.00  0.00    +0.000 NA
ATOM      2  C   UNL     1       4.307   4.507  19.379  0.00  0.00    +0.000 C 
ATOM      3  C   UNL     1       2.946   5.031  18.874  0.00  0.00    +0.000 C 
ATOM      4  N   UNL     1       2.171   3.977  18.154  0.00  0.00    +0.000 NA
ATOM      5  C   UNL     1       3.015   3.411  17.048  0.00  0.00    +0.000 C 
ATOM      6  C   UNL     1       4.372   2.901  17.584  0.00  0.00    +0.000 C 
ENDROOT
BRANCH   4   7
ATOM      7  S   UNL     1       1.371   2.804  19.105  0.00  0.00    +0.000 S 
ATOM      8  O   UNL     1       0.091   2.549  18.487  0.00  0.00    +0.000 OA
ATOM      9  O   UNL     1       2.291   1.721  19.371  0.00  0.00    +0.000 OA
BRANCH   7  10
ATOM     10  C   UNL     1       1.078   3.679  20.642  0.00  0.00    +0.000 C 
ATOM     11  C   UNL     1       1.812   3.013  21.791  0.00  0.00    +0.000 C 
ENDBRANCH   7  10
ENDBRANCH   4   7
BRANCH   1  12
ATOM     12  C   UNL     1       5.853   4.907  17.473  0.00  0.00    +0.000 C 
BRANCH  12  14
ATOM     13  C   UNL     1       6.850   7.273  17.428  0.00  0.00    +0.000 C 
ATOM     14  C   UNL     1       6.507   6.055  18.276  0.00  0.00    +0.000 C 
ENDBRANCH  12  14
BRANCH  12  15
ATOM     15  C   UNL     1       6.950   4.239  16.624  0.00  0.00    +0.000 C 
ATOM     16  O   UNL     1       8.126   4.230  16.968  0.00  0.00    +0.000 OA
BRANCH  15  17
ATOM     17  O   UNL     1       6.449   3.695  15.480  0.00  0.00    +0.000 OA
BRANCH  17  18
ATOM     18  C   UNL     1       6.296   4.501  14.285  0.00  0.00    +0.000 C 
ATOM     19  C   UNL     1       5.726   3.676  13.126  0.00  0.00    +0.000 C 
ATOM     20  C   UNL     1       5.279   5.595  14.657  0.00  0.00    +0.000 C 
ATOM     21  C   UNL     1       7.617   5.182  13.905  0.00  0.00    +0.000 C 
ENDBRANCH  17  18
ENDBRANCH  15  17
ENDBRANCH  12  15
ENDBRANCH   1  12
TORSDOF 7
ENDMDL
MODEL 3
REMARK VINA RESULT:      -6.6      0.600      1.121
REMARK  Name = 
REMARK  12 active torsions:
REMARK  status: ('A' for Active; 'I' for Inactive)
REMARK    1  A    between atoms: C_1  and  C_2
REMARK    2  A    between atoms: C_2  and  C_3
REMARK    3  A    between atoms: C_3  and  C_4
REMARK    4  A    between atoms: C_3  and  N_11
REMARK    5  A    between atoms: C_4  and  O_6
REMARK    6  A    between atoms: O_6  and  C_7
REMARK    7  A    between atoms: C_7  and  C_8
REMARK    8  A    between atoms: C_7  and  C_9
REMARK    9  A    between atoms: C_7  and  C_10
REMARK   10  A    between atoms: N_14  and  S_15
REMARK   11  A    between atoms: S_15  and  C_18
REMARK   12  A    between atoms: C_18  and  C_19
REMARK                            x       y       z     vdW  Elec       q    Type
REMARK                         _______ _______ _______ _____ _____    ______ ____
ROOT
ATOM      1  N   UNL     1       4.329   4.952  18.384  0.00  0.00    +0.000 NA
ATOM      2  C   UNL     1       4.136   4.946  16.916  0.00  0.00    +0.000 C 
ATOM      3  C   UNL     1       4.850   6.082  16.154  0.00  0.00    +0.000 C 
ATOM      4  N   UNL     1       6.315   6.118  16.445  0.00  0.00    +0.000 NA
ATOM      5  C   UNL     1       6.521   6.205  17.931  0.00  0.00    +0.000 C 
ATOM      6  C   UNL     1       5.789   5.059  18.666  0.00  0.00    +0.000 C 
ENDROOT
BRANCH   4   7
ATOM      7  S   UNL     1       7.301   4.965  15.660  0.00  0.00    +0.000 S 
ATOM      8  O   UNL     1       7.944   5.631  14.552  0.00  0.00    +0.000 OA
ATOM      9  O   UNL     1       8.083   4.271  16.659  0.00  0.00    +0.000 OA
BRANCH   7  10
ATOM     10  C   UNL     1       6.101   3.814  14.991  0.00  0.00    +0.000 C 
ATOM     11  C   UNL     1       6.190   3.759  13.477  0.00  0.00    +0.000 C 
ENDBRANCH   7  10
ENDBRANCH   4   7
BRANCH   1  12
ATOM     12  C   UNL     1       3.507   5.980  19.089  0.00  0.00    +0.000 C 
BRANCH  12  14
ATOM     13  C   UNL     1       2.117   8.117  18.785  0.00  0.00    +0.000 C 
ATOM     14  C   UNL     1       2.706   6.879  18.120  0.00  0.00    +0.000 C 
ENDBRANCH  12  14
BRANCH  12  15
ATOM     15  C   UNL     1       2.507   5.311  20.050  0.00  0.00    +0.000 C 
ATOM     16  O   UNL     1       2.463   5.591  21.241  0.00  0.00    +0.000 OA
BRANCH  15  17
ATOM     17  O   UNL     1       1.723   4.396  19.414  0.00  0.00    +0.000 OA
BRANCH  17  18
ATOM     18  C   UNL     1       1.717   3.009  19.837  0.00  0.00    +0.000 C 
ATOM     19  C   UNL     1       1.171   2.864  21.263  0.00  0.00    +0.000 C 
ATOM     20  C   UNL     1       0.763   2.290  18.869  0.00  0.00    +0.000 C 
ATOM     21  C   UNL     1       3.110   2.382  19.694  0.00  0.00    +0.000 C 
ENDBRANCH  17  18
ENDBRANCH  15  17
ENDBRANCH  12  15
ENDBRANCH   1  12
TORSDOF 7
ENDMDL
MODEL 4
REMARK VINA RESULT:      -6.4      2.148      6.029
REMARK  Name = 
REMARK  12 active torsions:
REMARK  status: ('A' for Active; 'I' for Inactive)
REMARK    1  A    between atoms: C_1  and  C_2
REMARK    2  A    between atoms: C_2  and  C_3
REMARK    3  A    between atoms: C_3  and  C_4
REMARK    4  A    between atoms: C_3  and  N_11
REMARK    5  A    between atoms: C_4  and  O_6
REMARK    6  A    between atoms: O_6  and  C_7
REMARK    7  A    between atoms: C_7  and  C_8
REMARK    8  A    between atoms: C_7  and  C_9
REMARK    9  A    between atoms: C_7  and  C_10
REMARK   10  A    between atoms: N_14  and  S_15
REMARK   11  A    between atoms: S_15  and  C_18
REMARK   12  A    between atoms: C_18  and  C_19
REMARK                            x       y       z     vdW  Elec       q    Type
REMARK                         _______ _______ _______ _____ _____    ______ ____
ROOT
ATOM      1  N   UNL     1       5.447   4.937  18.887  0.00  0.00    +0.000 NA
ATOM      2  C   UNL     1       4.282   5.786  19.228  0.00  0.00    +0.000 C 
ATOM      3  C   UNL     1       3.129   5.763  18.202  0.00  0.00    +0.000 C 
ATOM      4  N   UNL     1       2.649   4.375  17.931  0.00  0.00    +0.000 NA
ATOM      5  C   UNL     1       3.812   3.523  17.507  0.00  0.00    +0.000 C 
ATOM      6  C   UNL     1       4.951   3.573  18.550  0.00  0.00    +0.000 C 
ENDROOT
BRANCH   4   7
ATOM      7  S   UNL     1       1.631   3.654  19.098  0.00  0.00    +0.000 S 
ATOM      8  O   UNL     1       1.186   4.700  19.987  0.00  0.00    +0.000 OA
ATOM      9  O   UNL     1       0.676   2.807  18.418  0.00  0.00    +0.000 OA
BRANCH   7  10
ATOM     10  C   UNL     1       2.763   2.601  20.007  0.00  0.00    +0.000 C 
ATOM     11  C   UNL     1       2.534   2.726  21.502  0.00  0.00    +0.000 C 
ENDBRANCH   7  10
ENDBRANCH   4   7
BRANCH   1  12
ATOM     12  C   UNL     1       6.330   5.529  17.840  0.00  0.00    +0.000 C 
BRANCH  12  14
ATOM     13  C   UNL     1       7.572   7.740  17.434  0.00  0.00    +0.000 C 
ATOM     14  C   UNL     1       7.301   6.593  18.400  0.00  0.00    +0.000 C 
ENDBRANCH  12  14
BRANCH  12  15
ATOM     15  C   UNL     1       7.169   4.436  17.154  0.00  0.00    +0.000 C 
ATOM     16  O   UNL     1       8.261   4.087  17.585  0.00  0.00    +0.000 OA
BRANCH  15  17
ATOM     17  O   UNL     1       6.555   3.943  16.042  0.00  0.00    +0.000 OA
BRANCH  17  18
ATOM     18  C   UNL     1       6.387   4.771  14.865  0.00  0.00    +0.000 C 
ATOM     19  C   UNL     1       7.723   5.371  14.411  0.00  0.00    +0.000 C 
ATOM     20  C   UNL     1       5.875   3.822  13.767  0.00  0.00    +0.000 C 
ATOM     21  C   UNL     1       5.325   5.854  15.097  0.00  0.00    +0.000 C 
ENDBRANCH  17  18
ENDBRANCH  15  17
ENDBRANCH  12  15
ENDBRANCH   1  12
TORSDOF 7
ENDMDL
MODEL 5
REMARK VINA RESULT:      -6.4      2.387      6.287
REMARK  Name = 
REMARK  12 active torsions:
REMARK  status: ('A' for Active; 'I' for Inactive)
REMARK    1  A    between atoms: C_1  and  C_2
REMARK    2  A    between atoms: C_2  and  C_3
REMARK    3  A    between atoms: C_3  and  C_4
REMARK    4  A    between atoms: C_3  and  N_11
REMARK    5  A    between atoms: C_4  and  O_6
REMARK    6  A    between atoms: O_6  and  C_7
REMARK    7  A    between atoms: C_7  and  C_8
REMARK    8  A    between atoms: C_7  and  C_9
REMARK    9  A    between atoms: C_7  and  C_10
REMARK   10  A    between atoms: N_14  and  S_15
REMARK   11  A    between atoms: S_15  and  C_18
REMARK   12  A    between atoms: C_18  and  C_19
REMARK                            x       y       z     vdW  Elec       q    Type
REMARK                         _______ _______ _______ _____ _____    ______ ____
ROOT
ATOM      1  N   UNL     1       4.893   4.534  17.605  0.00  0.00    +0.000 NA
ATOM      2  C   UNL     1       3.533   4.785  17.078  0.00  0.00    +0.000 C 
ATOM      3  C   UNL     1       2.712   3.521  16.748  0.00  0.00    +0.000 C 
ATOM      4  N   UNL     1       2.611   2.597  17.917  0.00  0.00    +0.000 NA
ATOM      5  C   UNL     1       3.992   2.272  18.412  0.00  0.00    +0.000 C 
ATOM      6  C   UNL     1       4.791   3.557  18.726  0.00  0.00    +0.000 C 
ENDROOT
BRANCH   4   7
ATOM      7  S   UNL     1       1.497   3.005  19.147  0.00  0.00    +0.000 S 
ATOM      8  O   UNL     1       1.506   4.443  19.276  0.00  0.00    +0.000 OA
ATOM      9  O   UNL     1       0.261   2.293  18.905  0.00  0.00    +0.000 OA
BRANCH   7  10
ATOM     10  C   UNL     1       2.262   2.313  20.613  0.00  0.00    +0.000 C 
ATOM     11  C   UNL     1       2.098   3.246  21.799  0.00  0.00    +0.000 C 
ENDBRANCH   7  10
ENDBRANCH   4   7
BRANCH   1  12
ATOM     12  C   UNL     1       5.876   4.137  16.554  0.00  0.00    +0.000 C 
BRANCH  12  14
ATOM     13  C   UNL     1       6.230   3.896  14.023  0.00  0.00    +0.000 C 
ATOM     14  C   UNL     1       5.460   4.593  15.137  0.00  0.00    +0.000 C 
ENDBRANCH  12  14
BRANCH  12  15
ATOM     15  C   UNL     1       7.264   4.731  16.854  0.00  0.00    +0.000 C 
ATOM     16  O   UNL     1       8.190   4.046  17.271  0.00  0.00    +0.000 OA
BRANCH  15  17
ATOM     17  O   UNL     1       7.309   6.071  16.612  0.00  0.00    +0.000 OA
BRANCH  17  18
ATOM     18  C   UNL     1       7.260   7.020  17.706  0.00  0.00    +0.000 C 
ATOM     19  C   UNL     1       8.155   8.234  17.430  0.00  0.00    +0.000 C 
ATOM     20  C   UNL     1       5.797   7.492  17.774  0.00  0.00    +0.000 C 
ATOM     21  C   UNL     1       7.609   6.346  19.039  0.00  0.00    +0.000 C 
ENDBRANCH  17  18
ENDBRANCH  15  17
ENDBRANCH  12  15
ENDBRANCH   1  12
TORSDOF 7
ENDMDL
MODEL 6
REMARK VINA RESULT:      -6.2      2.480      6.199
REMARK  Name = 
REMARK  12 active torsions:
REMARK  status: ('A' for Active; 'I' for Inactive)
REMARK    1  A    between atoms: C_1  and  C_2
REMARK    2  A    between atoms: C_2  and  C_3
REMARK    3  A    between atoms: C_3  and  C_4
REMARK    4  A    between atoms: C_3  and  N_11
REMARK    5  A    between atoms: C_4  and  O_6
REMARK    6  A    between atoms: O_6  and  C_7
REMARK    7  A    between atoms: C_7  and  C_8
REMARK    8  A    between atoms: C_7  and  C_9
REMARK    9  A    between atoms: C_7  and  C_10
REMARK   10  A    between atoms: N_14  and  S_15
REMARK   11  A    between atoms: S_15  and  C_18
REMARK   12  A    between atoms: C_18  and  C_19
REMARK                            x       y       z     vdW  Elec       q    Type
REMARK                         _______ _______ _______ _____ _____    ______ ____
ROOT
ATOM      1  N   UNL     1       4.888   4.477  17.669  0.00  0.00    +0.000 NA
ATOM      2  C   UNL     1       3.492   4.623  17.198  0.00  0.00    +0.000 C 
ATOM      3  C   UNL     1       2.744   3.299  16.936  0.00  0.00    +0.000 C 
ATOM      4  N   UNL     1       2.756   2.402  18.130  0.00  0.00    +0.000 NA
ATOM      5  C   UNL     1       4.177   2.183  18.570  0.00  0.00    +0.000 C 
ATOM      6  C   UNL     1       4.900   3.526  18.817  0.00  0.00    +0.000 C 
ENDROOT
BRANCH   4   7
ATOM      7  S   UNL     1       1.672   2.769  19.399  0.00  0.00    +0.000 S 
ATOM      8  O   UNL     1       0.370   2.283  19.007  0.00  0.00    +0.000 OA
ATOM      9  O   UNL     1       2.269   2.354  20.649  0.00  0.00    +0.000 OA
BRANCH   7  10
ATOM     10  C   UNL     1       1.625   4.560  19.369  0.00  0.00    +0.000 C 
ATOM     11  C   UNL     1       2.031   5.134  20.714  0.00  0.00    +0.000 C 
ENDBRANCH   7  10
ENDBRANCH   4   7
BRANCH   1  12
ATOM     12  C   UNL     1       5.848   4.117  16.585  0.00  0.00    +0.000 C 
BRANCH  12  14
ATOM     13  C   UNL     1       6.128   3.923  14.040  0.00  0.00    +0.000 C 
ATOM     14  C   UNL     1       5.389   4.596  15.189  0.00  0.00    +0.000 C 
ENDBRANCH  12  14
BRANCH  12  15
ATOM     15  C   UNL     1       7.235   4.726  16.861  0.00  0.00    +0.000 C 
ATOM     16  O   UNL     1       8.166   4.058  17.292  0.00  0.00    +0.000 OA
BRANCH  15  17
ATOM     17  O   UNL     1       7.271   6.060  16.582  0.00  0.00    +0.000 OA
BRANCH  17  18
ATOM     18  C   UNL     1       7.143   7.039  17.643  0.00  0.00    +0.000 C 
ATOM     19  C   UNL     1       5.685   7.478  17.822  0.00  0.00    +0.000 C 
ATOM     20  C   UNL     1       7.600   6.318  18.923  0.00  0.00    +0.000 C 
ATOM     21  C   UNL     1       8.074   8.235  17.407  0.00  0.00    +0.000 C 
ENDBRANCH  17  18
ENDBRANCH  15  17
ENDBRANCH  12  15
ENDBRANCH   1  12
TORSDOF 7
ENDMDL
MODEL 7
REMARK VINA RESULT:      -6.2      2.524      6.293
REMARK  Name = 
REMARK  12 active torsions:
REMARK  status: ('A' for Active; 'I' for Inactive)
REMARK    1  A    between atoms: C_1  and  C_2
REMARK    2  A    between atoms: C_2  and  C_3
REMARK    3  A    between atoms: C_3  and  C_4
REMARK    4  A    between atoms: C_3  and  N_11
REMARK    5  A    between atoms: C_4  and  O_6
REMARK    6  A    between atoms: O_6  and  C_7
REMARK    7  A    between atoms: C_7  and  C_8
REMARK    8  A    between atoms: C_7  and  C_9
REMARK    9  A    between atoms: C_7  and  C_10
REMARK   10  A    between atoms: N_14  and  S_15
REMARK   11  A    between atoms: S_15  and  C_18
REMARK   12  A    between atoms: C_18  and  C_19
REMARK                            x       y       z     vdW  Elec       q    Type
REMARK                         _______ _______ _______ _____ _____    ______ ____
ROOT
ATOM      1  N   UNL     1       5.206   4.071  18.497  0.00  0.00    +0.000 NA
ATOM      2  C   UNL     1       4.222   4.717  19.395  0.00  0.00    +0.000 C 
ATOM      3  C   UNL     1       2.884   5.106  18.733  0.00  0.00    +0.000 C 
ATOM      4  N   UNL     1       2.231   3.943  18.062  0.00  0.00    +0.000 NA
ATOM      5  C   UNL     1       3.196   3.327  17.089  0.00  0.00    +0.000 C 
ATOM      6  C   UNL     1       4.527   2.955  17.780  0.00  0.00    +0.000 C 
ENDROOT
BRANCH   4   7
ATOM      7  S   UNL     1       1.416   2.818  19.058  0.00  0.00    +0.000 S 
ATOM      8  O   UNL     1       0.156   2.514  18.423  0.00  0.00    +0.000 OA
ATOM      9  O   UNL     1       2.339   1.761  19.410  0.00  0.00    +0.000 OA
BRANCH   7  10
ATOM     10  C   UNL     1       1.075   3.776  20.534  0.00  0.00    +0.000 C 
ATOM     11  C   UNL     1       1.743   3.156  21.748  0.00  0.00    +0.000 C 
ENDBRANCH   7  10
ENDBRANCH   4   7
BRANCH   1  12
ATOM     12  C   UNL     1       5.903   5.030  17.589  0.00  0.00    +0.000 C 
BRANCH  12  14
ATOM     13  C   UNL     1       7.494   5.649  19.507  0.00  0.00    +0.000 C 
ATOM     14  C   UNL     1       6.640   6.155  18.351  0.00  0.00    +0.000 C 
ENDBRANCH  12  14
BRANCH  12  15
ATOM     15  C   UNL     1       6.935   4.297  16.712  0.00  0.00    +0.000 C 
ATOM     16  O   UNL     1       8.119   4.232  17.017  0.00  0.00    +0.000 OA
BRANCH  15  17
ATOM     17  O   UNL     1       6.368   3.764  15.594  0.00  0.00    +0.000 OA
BRANCH  17  18
ATOM     18  C   UNL     1       6.076   4.601  14.447  0.00  0.00    +0.000 C 
ATOM     19  C   UNL     1       5.253   5.831  14.849  0.00  0.00    +0.000 C 
ATOM     20  C   UNL     1       7.444   5.073  13.925  0.00  0.00    +0.000 C 
ATOM     21  C   UNL     1       5.390   3.795  13.335  0.00  0.00    +0.000 C 
ENDBRANCH  17  18
ENDBRANCH  15  17
ENDBRANCH  12  15
ENDBRANCH   1  12
TORSDOF 7
ENDMDL
MODEL 8
REMARK VINA RESULT:      -6.2      2.362      6.213
REMARK  Name = 
REMARK  12 active torsions:
REMARK  status: ('A' for Active; 'I' for Inactive)
REMARK    1  A    between atoms: C_1  and  C_2
REMARK    2  A    between atoms: C_2  and  C_3
REMARK    3  A    between atoms: C_3  and  C_4
REMARK    4  A    between atoms: C_3  and  N_11
REMARK    5  A    between atoms: C_4  and  O_6
REMARK    6  A    between atoms: O_6  and  C_7
REMARK    7  A    between atoms: C_7  and  C_8
REMARK    8  A    between atoms: C_7  and  C_9
REMARK    9  A    between atoms: C_7  and  C_10
REMARK   10  A    between atoms: N_14  and  S_15
REMARK   11  A    between atoms: S_15  and  C_18
REMARK   12  A    between atoms: C_18  and  C_19
REMARK                            x       y       z     vdW  Elec       q    Type
REMARK                         _______ _______ _______ _____ _____    ______ ____
ROOT
ATOM      1  N   UNL     1       5.493   4.256  18.216  0.00  0.00    +0.000 NA
ATOM      2  C   UNL     1       4.668   4.768  19.334  0.00  0.00    +0.000 C 
ATOM      3  C   UNL     1       3.283   5.316  18.932  0.00  0.00    +0.000 C 
ATOM      4  N   UNL     1       2.484   4.314  18.165  0.00  0.00    +0.000 NA
ATOM      5  C   UNL     1       3.283   3.846  16.982  0.00  0.00    +0.000 C 
ATOM      6  C   UNL     1       4.666   3.309  17.416  0.00  0.00    +0.000 C 
ENDROOT
BRANCH   4   7
ATOM      7  S   UNL     1       1.735   3.062  19.054  0.00  0.00    +0.000 S 
ATOM      8  O   UNL     1       0.535   2.689  18.344  0.00  0.00    +0.000 OA
ATOM      9  O   UNL     1       2.735   2.070  19.385  0.00  0.00    +0.000 OA
BRANCH   7  10
ATOM     10  C   UNL     1       1.248   3.891  20.566  0.00  0.00    +0.000 C 
ATOM     11  C   UNL     1       1.945   3.279  21.767  0.00  0.00    +0.000 C 
ENDBRANCH   7  10
ENDBRANCH   4   7
BRANCH   1  12
ATOM     12  C   UNL     1       6.127   5.334  17.400  0.00  0.00    +0.000 C 
BRANCH  12  14
ATOM     13  C   UNL     1       7.571   7.446  17.606  0.00  0.00    +0.000 C 
ATOM     14  C   UNL     1       6.475   6.591  18.229  0.00  0.00    +0.000 C 
ENDBRANCH  12  14
BRANCH  12  15
ATOM     15  C   UNL     1       7.422   4.827  16.741  0.00  0.00    +0.000 C 
ATOM     16  O   UNL     1       8.192   4.066  17.316  0.00  0.00    +0.000 OA
BRANCH  15  17
ATOM     17  O   UNL     1       7.588   5.333  15.487  0.00  0.00    +0.000 OA
BRANCH  17  18
ATOM     18  C   UNL     1       6.673   4.975  14.421  0.00  0.00    +0.000 C 
ATOM     19  C   UNL     1       7.333   5.128  13.046  0.00  0.00    +0.000 C 
ATOM     20  C   UNL     1       6.343   3.489  14.646  0.00  0.00    +0.000 C 
ATOM     21  C   UNL     1       5.369   5.777  14.520  0.00  0.00    +0.000 C 
ENDBRANCH  17  18
ENDBRANCH  15  17
ENDBRANCH  12  15
ENDBRANCH   1  12
TORSDOF 7
ENDMDL
MODEL 9
REMARK VINA RESULT:      -6.0      2.187      5.951
REMARK  Name = 
REMARK  12 active torsions:
REMARK  status: ('A' for Active; 'I' for Inactive)
REMARK    1  A    between atoms: C_1  and  C_2
REMARK    2  A    between atoms: C_2  and  C_3
REMARK    3  A    between atoms: C_3  and  C_4
REMARK    4  A    between atoms: C_3  and  N_11
REMARK    5  A    between atoms: C_4  and  O_6
REMARK    6  A    between atoms: O_6  and  C_7
REMARK    7  A    between atoms: C_7  and  C_8
REMARK    8  A    between atoms: C_7  and  C_9
REMARK    9  A    between atoms: C_7  and  C_10
REMARK   10  A    between atoms: N_14  and  S_15
REMARK   11  A    between atoms: S_15  and  C_18
REMARK   12  A    between atoms: C_18  and  C_19
REMARK                            x       y       z     vdW  Elec       q    Type
REMARK                         _______ _______ _______ _____ _____    ______ ____
ROOT
ATOM      1  N   UNL     1       5.942   5.305  19.116  0.00  0.00    +0.000 NA
ATOM      2  C   UNL     1       4.743   6.098  19.470  0.00  0.00    +0.000 C 
ATOM      3  C   UNL     1       3.459   5.727  18.699  0.00  0.00    +0.000 C 
ATOM      4  N   UNL     1       3.129   4.276  18.823  0.00  0.00    +0.000 NA
ATOM      5  C   UNL     1       4.314   3.460  18.391  0.00  0.00    +0.000 C 
ATOM      6  C   UNL     1       5.585   3.859  19.175  0.00  0.00    +0.000 C 
ENDROOT
BRANCH   4   7
ATOM      7  S   UNL     1       2.408   3.757  20.283  0.00  0.00    +0.000 S 
ATOM      8  O   UNL     1       3.120   2.580  20.720  0.00  0.00    +0.000 OA
ATOM      9  O   UNL     1       2.265   4.900  21.158  0.00  0.00    +0.000 OA
BRANCH   7  10
ATOM     10  C   UNL     1       0.772   3.250  19.754  0.00  0.00    +0.000 C 
ATOM     11  C   UNL     1       0.856   2.312  18.564  0.00  0.00    +0.000 C 
ENDBRANCH   7  10
ENDBRANCH   4   7
BRANCH   1  12
ATOM     12  C   UNL     1       6.567   5.714  17.823  0.00  0.00    +0.000 C 
BRANCH  12  14
ATOM     13  C   UNL     1       7.279   8.151  17.440  0.00  0.00    +0.000 C 
ATOM     14  C   UNL     1       7.666   6.787  17.998  0.00  0.00    +0.000 C 
ENDBRANCH  12  14
BRANCH  12  15
ATOM     15  C   UNL     1       7.198   4.501  17.116  0.00  0.00    +0.000 C 
ATOM     16  O   UNL     1       8.312   4.084  17.407  0.00  0.00    +0.000 OA
BRANCH  15  17
ATOM     17  O   UNL     1       6.380   3.988  16.154  0.00  0.00    +0.000 OA
BRANCH  17  18
ATOM     18  C   UNL     1       6.110   4.735  14.942  0.00  0.00    +0.000 C 
ATOM     19  C   UNL     1       5.219   5.951  15.224  0.00  0.00    +0.000 C 
ATOM     20  C   UNL     1       7.481   5.234  14.454  0.00  0.00    +0.000 C 
ATOM     21  C   UNL     1       5.513   3.831  13.856  0.00  0.00    +0.000 C 
ENDBRANCH  17  18
ENDBRANCH  15  17
ENDBRANCH  12  15
ENDBRANCH   1  12
TORSDOF 7
ENDMDL
