MODEL 1
REMARK VINA RESULT:      -7.8      0.000      0.000
REMARK  Name = 
REMARK  8 active torsions:
REMARK  status: ('A' for Active; 'I' for Inactive)
REMARK    1  A    between atoms: C_1  and  C_2
REMARK    2  A    between atoms: C_2  and  C_3
REMARK    3  A    between atoms: C_4  and  C_5
REMARK    4  A    between atoms: C_7  and  C_8
REMARK    5  A    between atoms: C_13  and  O_14
REMARK    6  A    between atoms: N_15  and  C_16
REMARK    7  A    between atoms: C_16  and  C_17
REMARK    8  A    between atoms: C_17  and  C_18
REMARK                            x       y       z     vdW  Elec       q    Type
REMARK                         _______ _______ _______ _____ _____    ______ ____
ROOT
ATOM      1  C   UNL     1       2.756   3.070  19.378  0.00  0.00    +0.000 A 
ATOM      2  C   UNL     1       3.107   4.123  20.128  0.00  0.00    +0.000 A 
ATOM      3  C   UNL     1       2.527   4.400  21.492  0.00  0.00    +0.000 C 
ATOM      4  N   UNL     1       4.053   5.035  19.751  0.00  0.00    +0.000 NA
ATOM      5  C   UNL     1       4.678   4.910  18.617  0.00  0.00    +0.000 A 
ATOM      6  N   UNL     1       4.400   3.853  17.727  0.00  0.00    +0.000 N 
ATOM      7  C   UNL     1       3.589   2.819  18.177  0.00  0.00    +0.000 A 
ATOM      8  O   UNL     1       3.568   1.682  17.702  0.00  0.00    +0.000 OA
ENDROOT
BRANCH   5   9
ATOM      9  C   UNL     1       5.768   5.933  18.326  0.00  0.00    +0.000 A 
ATOM     10  C   UNL     1       5.608   6.960  17.385  0.00  0.00    +0.000 A 
ATOM     11  C   UNL     1       6.673   7.786  17.007  0.00  0.00    +0.000 A 
ATOM     12  C   UNL     1       7.885   7.705  17.680  0.00  0.00    +0.000 A 
ATOM     13  C   UNL     1       8.023   6.807  18.732  0.00  0.00    +0.000 A 
ATOM     14  C   UNL     1       6.986   5.914  19.038  0.00  0.00    +0.000 A 
BRANCH  14  15
ATOM     15  O   UNL     1       7.219   5.012  20.043  0.00  0.00    +0.000 OA
ATOM     16  H   UNL     1       8.170   4.977  20.225  0.00  0.00    +0.000 HD
ENDBRANCH  14  15
ENDBRANCH   5   9
BRANCH   1  18
ATOM     17  C   UNL     1       0.394   2.369  18.947  0.00  0.00    +0.000 C 
ATOM     18  C   UNL     1       1.685   2.052  19.691  0.00  0.00    +0.000 C 
ENDBRANCH   1  18
BRANCH   6  19
ATOM     19  C   UNL     1       5.162   3.635  16.478  0.00  0.00    +0.000 C 
BRANCH  19  20
ATOM     20  C   UNL     1       4.835   4.401  15.180  0.00  0.00    +0.000 C 
BRANCH  20  21
ATOM     21  C   UNL     1       5.872   4.314  14.077  0.00  0.00    +0.000 A 
ATOM     22  C   UNL     1       7.013   5.127  14.041  0.00  0.00    +0.000 A 
ATOM     23  C   UNL     1       7.862   5.094  12.930  0.00  0.00    +0.000 A 
ATOM     24  C   UNL     1       7.595   4.238  11.867  0.00  0.00    +0.000 A 
ATOM     25  C   UNL     1       6.492   3.382  11.917  0.00  0.00    +0.000 A 
ATOM     26  C   UNL     1       5.650   3.414  13.026  0.00  0.00    +0.000 A 
ENDBRANCH  20  21
ENDBRANCH  19  20
ENDBRANCH   6  19
TORSDOF 6
ENDMDL
MODEL 2
REMARK VINA RESULT:      -7.8      0.401      1.027
REMARK  Name = 
REMARK  8 active torsions:
REMARK  status: ('A' for Active; 'I' for Inactive)
REMARK    1  A    between atoms: C_1  and  C_2
REMARK    2  A    between atoms: C_2  and  C_3
REMARK    3  A    between atoms: C_4  and  C_5
REMARK    4  A    between atoms: C_7  and  C_8
REMARK    5  A    between atoms: C_13  and  O_14
REMARK    6  A    between atoms: N_15  and  C_16
REMARK    7  A    between atoms: C_16  and  C_17
REMARK    8  A    between atoms: C_17  and  C_18
REMARK                            x       y       z     vdW  Elec       q    Type
REMARK                         _______ _______ _______ _____ _____    ______ ____
ROOT
ATOM      1  C   UNL     1       2.806   3.150  19.254  0.00  0.00    +0.000 A 
ATOM      2  C   UNL     1       3.039   4.287  19.922  0.00  0.00    +0.000 A 
ATOM      3  C   UNL     1       2.290   4.684  21.169  0.00  0.00    +0.000 C 
ATOM      4  N   UNL     1       4.003   5.187  19.565  0.00  0.00    +0.000 NA
ATOM      5  C   UNL     1       4.765   4.966  18.534  0.00  0.00    +0.000 A 
ATOM      6  N   UNL     1       4.623   3.813  17.736  0.00  0.00    +0.000 N 
ATOM      7  C   UNL     1       3.786   2.804  18.195  0.00  0.00    +0.000 A 
ATOM      8  O   UNL     1       3.849   1.624  17.847  0.00  0.00    +0.000 OA
ENDROOT
BRANCH   5   9
ATOM      9  C   UNL     1       5.860   5.991  18.267  0.00  0.00    +0.000 A 
ATOM     10  C   UNL     1       5.721   7.015  17.320  0.00  0.00    +0.000 A 
ATOM     11  C   UNL     1       6.793   7.842  16.965  0.00  0.00    +0.000 A 
ATOM     12  C   UNL     1       7.988   7.766  17.668  0.00  0.00    +0.000 A 
ATOM     13  C   UNL     1       8.102   6.872  18.726  0.00  0.00    +0.000 A 
ATOM     14  C   UNL     1       7.060   5.977  19.009  0.00  0.00    +0.000 A 
BRANCH  14  15
ATOM     15  O   UNL     1       7.271   5.079  20.023  0.00  0.00    +0.000 OA
ATOM     16  H   UNL     1       8.195   4.791  20.006  0.00  0.00    +0.000 HD
ENDBRANCH  14  15
ENDBRANCH   5   9
BRANCH   1  18
ATOM     17  C   UNL     1       0.446   2.463  18.790  0.00  0.00    +0.000 C 
ATOM     18  C   UNL     1       1.728   2.132  19.544  0.00  0.00    +0.000 C 
ENDBRANCH   1  18
BRANCH   6  19
ATOM     19  C   UNL     1       5.537   3.493  16.619  0.00  0.00    +0.000 C 
BRANCH  19  20
ATOM     20  C   UNL     1       5.041   3.406  15.161  0.00  0.00    +0.000 C 
BRANCH  20  21
ATOM     21  C   UNL     1       5.959   4.001  14.110  0.00  0.00    +0.000 A 
ATOM     22  C   UNL     1       5.985   3.552  12.783  0.00  0.00    +0.000 A 
ATOM     23  C   UNL     1       6.946   4.046  11.894  0.00  0.00    +0.000 A 
ATOM     24  C   UNL     1       7.864   5.003  12.314  0.00  0.00    +0.000 A 
ATOM     25  C   UNL     1       7.811   5.499  13.618  0.00  0.00    +0.000 A 
ATOM     26  C   UNL     1       6.852   5.007  14.500  0.00  0.00    +0.000 A 
ENDBRANCH  20  21
ENDBRANCH  19  20
ENDBRANCH   6  19
TORSDOF 6
ENDMDL
MODEL 3
REMARK VINA RESULT:      -7.5      2.837      6.323
REMARK  Name = 
REMARK  8 active torsions:
REMARK  status: ('A' for Active; 'I' for Inactive)
REMARK    1  A    between atoms: C_1  and  C_2
REMARK    2  A    between atoms: C_2  and  C_3
REMARK    3  A    between atoms: C_4  and  C_5
REMARK    4  A    between atoms: C_7  and  C_8
REMARK    5  A    between atoms: C_13  and  O_14
REMARK    6  A    between atoms: N_15  and  C_16
REMARK    7  A    between atoms: C_16  and  C_17
REMARK    8  A    between atoms: C_17  and  C_18
REMARK                            x       y       z     vdW  Elec       q    Type
REMARK                         _______ _______ _______ _____ _____    ______ ____
ROOT
ATOM      1  C   UNL     1       5.802   5.264  16.873  0.00  0.00    +0.000 A 
ATOM      2  C   UNL     1       5.970   6.490  17.387  0.00  0.00    +0.000 A 
ATOM      3  C   UNL     1       7.291   7.216  17.386  0.00  0.00    +0.000 C 
ATOM      4  N   UNL     1       4.953   7.224  17.931  0.00  0.00    +0.000 NA
ATOM      5  C   UNL     1       3.741   6.751  17.967  0.00  0.00    +0.000 A 
ATOM      6  N   UNL     1       3.426   5.471  17.469  0.00  0.00    +0.000 N 
ATOM      7  C   UNL     1       4.401   4.798  16.744  0.00  0.00    +0.000 A 
ATOM      8  O   UNL     1       4.178   3.893  15.937  0.00  0.00    +0.000 OA
ENDROOT
BRANCH   5   9
ATOM      9  C   UNL     1       2.668   7.679  18.522  0.00  0.00    +0.000 A 
ATOM     10  C   UNL     1       2.112   8.725  17.771  0.00  0.00    +0.000 A 
ATOM     11  C   UNL     1       1.254   9.670  18.346  0.00  0.00    +0.000 A 
ATOM     12  C   UNL     1       0.806   9.496  19.649  0.00  0.00    +0.000 A 
ATOM     13  C   UNL     1       1.209   8.376  20.366  0.00  0.00    +0.000 A 
ATOM     14  C   UNL     1       2.148   7.488  19.819  0.00  0.00    +0.000 A 
BRANCH  14  15
ATOM     15  O   UNL     1       2.549   6.444  20.611  0.00  0.00    +0.000 OA
ATOM     16  H   UNL     1       3.050   6.790  21.365  0.00  0.00    +0.000 HD
ENDBRANCH  14  15
ENDBRANCH   5   9
BRANCH   1  18
ATOM     17  C   UNL     1       7.132   4.674  14.838  0.00  0.00    +0.000 C 
ATOM     18  C   UNL     1       6.876   4.364  16.308  0.00  0.00    +0.000 C 
ENDBRANCH   1  18
BRANCH   6  19
ATOM     19  C   UNL     1       2.043   4.951  17.411  0.00  0.00    +0.000 C 
BRANCH  19  20
ATOM     20  C   UNL     1       1.708   3.487  17.761  0.00  0.00    +0.000 C 
BRANCH  20  21
ATOM     21  C   UNL     1       1.927   3.081  19.206  0.00  0.00    +0.000 A 
ATOM     22  C   UNL     1       0.921   3.159  20.177  0.00  0.00    +0.000 A 
ATOM     23  C   UNL     1       1.219   2.899  21.519  0.00  0.00    +0.000 A 
ATOM     24  C   UNL     1       2.509   2.537  21.894  0.00  0.00    +0.000 A 
ATOM     25  C   UNL     1       3.507   2.400  20.926  0.00  0.00    +0.000 A 
ATOM     26  C   UNL     1       3.206   2.657  19.590  0.00  0.00    +0.000 A 
ENDBRANCH  20  21
ENDBRANCH  19  20
ENDBRANCH   6  19
TORSDOF 6
ENDMDL
MODEL 4
REMARK VINA RESULT:      -7.5      1.042      1.703
REMARK  Name = 
REMARK  8 active torsions:
REMARK  status: ('A' for Active; 'I' for Inactive)
REMARK    1  A    between atoms: C_1  and  C_2
REMARK    2  A    between atoms: C_2  and  C_3
REMARK    3  A    between atoms: C_4  and  C_5
REMARK    4  A    between atoms: C_7  and  C_8
REMARK    5  A    between atoms: C_13  and  O_14
REMARK    6  A    between atoms: N_15  and  C_16
REMARK    7  A    between atoms: C_16  and  C_17
REMARK    8  A    between atoms: C_17  and  C_18
REMARK                            x       y       z     vdW  Elec       q    Type
REMARK                         _______ _______ _______ _____ _____    ______ ____
ROOT
ATOM      1  C   UNL     1       2.777   3.128  19.247  0.00  0.00    +0.000 A 
ATOM      2  C   UNL     1       3.048   4.254  19.918  0.00  0.00    +0.000 A 
ATOM      3  C   UNL     1       2.302   4.682  21.157  0.00  0.00    +0.000 C 
ATOM      4  N   UNL     1       4.051   5.115  19.571  0.00  0.00    +0.000 NA
ATOM      5  C   UNL     1       4.814   4.863  18.547  0.00  0.00    +0.000 A 
ATOM      6  N   UNL     1       4.634   3.717  17.748  0.00  0.00    +0.000 N 
ATOM      7  C   UNL     1       3.752   2.743  18.198  0.00  0.00    +0.000 A 
ATOM      8  O   UNL     1       3.771   1.560  17.851  0.00  0.00    +0.000 OA
ENDROOT
BRANCH   5   9
ATOM      9  C   UNL     1       5.952   5.843  18.292  0.00  0.00    +0.000 A 
ATOM     10  C   UNL     1       7.174   5.777  18.978  0.00  0.00    +0.000 A 
ATOM     11  C   UNL     1       8.143   6.780  18.857  0.00  0.00    +0.000 A 
ATOM     12  C   UNL     1       7.976   7.794  17.923  0.00  0.00    +0.000 A 
ATOM     13  C   UNL     1       6.850   7.795  17.109  0.00  0.00    +0.000 A 
ATOM     14  C   UNL     1       5.837   6.845  17.305  0.00  0.00    +0.000 A 
BRANCH  14  15
ATOM     15  O   UNL     1       4.725   6.949  16.511  0.00  0.00    +0.000 OA
ATOM     16  H   UNL     1       4.110   7.585  16.905  0.00  0.00    +0.000 HD
ENDBRANCH  14  15
ENDBRANCH   5   9
BRANCH   1  18
ATOM     17  C   UNL     1       0.375   2.576  18.816  0.00  0.00    +0.000 C 
ATOM     18  C   UNL     1       1.655   2.155  19.526  0.00  0.00    +0.000 C 
ENDBRANCH   1  18
BRANCH   6  19
ATOM     19  C   UNL     1       5.546   3.360  16.640  0.00  0.00    +0.000 C 
BRANCH  19  20
ATOM     20  C   UNL     1       5.069   3.317  15.174  0.00  0.00    +0.000 C 
BRANCH  20  21
ATOM     21  C   UNL     1       5.988   3.962  14.156  0.00  0.00    +0.000 A 
ATOM     22  C   UNL     1       5.988   3.608  12.800  0.00  0.00    +0.000 A 
ATOM     23  C   UNL     1       6.950   4.141  11.936  0.00  0.00    +0.000 A 
ATOM     24  C   UNL     1       7.896   5.044  12.410  0.00  0.00    +0.000 A 
ATOM     25  C   UNL     1       7.871   5.448  13.747  0.00  0.00    +0.000 A 
ATOM     26  C   UNL     1       6.910   4.918  14.605  0.00  0.00    +0.000 A 
ENDBRANCH  20  21
ENDBRANCH  19  20
ENDBRANCH   6  19
TORSDOF 6
ENDMDL
MODEL 5
REMARK VINA RESULT:      -7.4      3.623      5.386
REMARK  Name = 
REMARK  8 active torsions:
REMARK  status: ('A' for Active; 'I' for Inactive)
REMARK    1  A    between atoms: C_1  and  C_2
REMARK    2  A    between atoms: C_2  and  C_3
REMARK    3  A    between atoms: C_4  and  C_5
REMARK    4  A    between atoms: C_7  and  C_8
REMARK    5  A    between atoms: C_13  and  O_14
REMARK    6  A    between atoms: N_15  and  C_16
REMARK    7  A    between atoms: C_16  and  C_17
REMARK    8  A    between atoms: C_17  and  C_18
REMARK                            x       y       z     vdW  Elec       q    Type
REMARK                         _______ _______ _______ _____ _____    ______ ____
ROOT
ATOM      1  C   UNL     1       1.215   9.252  19.803  0.00  0.00    +0.000 A 
ATOM      2  C   UNL     1       1.045   8.382  20.807  0.00  0.00    +0.000 A 
ATOM      3  C   UNL     1       0.231   8.688  22.039  0.00  0.00    +0.000 C 
ATOM      4  N   UNL     1       1.560   7.117  20.803  0.00  0.00    +0.000 NA
ATOM      5  C   UNL     1       2.252   6.686  19.788  0.00  0.00    +0.000 A 
ATOM      6  N   UNL     1       2.515   7.500  18.668  0.00  0.00    +0.000 N 
ATOM      7  C   UNL     1       1.841   8.711  18.572  0.00  0.00    +0.000 A 
ATOM      8  O   UNL     1       1.654   9.331  17.523  0.00  0.00    +0.000 OA
ENDROOT
BRANCH   5   9
ATOM      9  C   UNL     1       2.714   5.236  19.848  0.00  0.00    +0.000 A 
ATOM     10  C   UNL     1       4.054   4.863  19.669  0.00  0.00    +0.000 A 
ATOM     11  C   UNL     1       4.437   3.521  19.557  0.00  0.00    +0.000 A 
ATOM     12  C   UNL     1       3.506   2.515  19.782  0.00  0.00    +0.000 A 
ATOM     13  C   UNL     1       2.204   2.854  20.126  0.00  0.00    +0.000 A 
ATOM     14  C   UNL     1       1.803   4.198  20.137  0.00  0.00    +0.000 A 
BRANCH  14  15
ATOM     15  O   UNL     1       0.487   4.452  20.419  0.00  0.00    +0.000 OA
ATOM     16  H   UNL     1       0.381   4.557  21.376  0.00  0.00    +0.000 HD
ENDBRANCH  14  15
ENDBRANCH   5   9
BRANCH   1  18
ATOM     17  C   UNL     1      -0.737  10.750  19.355  0.00  0.00    +0.000 C 
ATOM     18  C   UNL     1       0.732  10.682  19.751  0.00  0.00    +0.000 C 
ENDBRANCH   1  18
BRANCH   6  19
ATOM     19  C   UNL     1       3.215   7.005  17.464  0.00  0.00    +0.000 C 
BRANCH  19  20
ATOM     20  C   UNL     1       4.684   7.371  17.167  0.00  0.00    +0.000 C 
BRANCH  20  21
ATOM     21  C   UNL     1       5.536   6.269  16.567  0.00  0.00    +0.000 A 
ATOM     22  C   UNL     1       5.285   5.719  15.303  0.00  0.00    +0.000 A 
ATOM     23  C   UNL     1       6.021   4.614  14.860  0.00  0.00    +0.000 A 
ATOM     24  C   UNL     1       7.022   4.072  15.660  0.00  0.00    +0.000 A 
ATOM     25  C   UNL     1       7.319   4.648  16.897  0.00  0.00    +0.000 A 
ATOM     26  C   UNL     1       6.586   5.749  17.334  0.00  0.00    +0.000 A 
ENDBRANCH  20  21
ENDBRANCH  19  20
ENDBRANCH   6  19
TORSDOF 6
ENDMDL
MODEL 6
REMARK VINA RESULT:      -7.3      3.472      5.375
REMARK  Name = 
REMARK  8 active torsions:
REMARK  status: ('A' for Active; 'I' for Inactive)
REMARK    1  A    between atoms: C_1  and  C_2
REMARK    2  A    between atoms: C_2  and  C_3
REMARK    3  A    between atoms: C_4  and  C_5
REMARK    4  A    between atoms: C_7  and  C_8
REMARK    5  A    between atoms: C_13  and  O_14
REMARK    6  A    between atoms: N_15  and  C_16
REMARK    7  A    between atoms: C_16  and  C_17
REMARK    8  A    between atoms: C_17  and  C_18
REMARK                            x       y       z     vdW  Elec       q    Type
REMARK                         _______ _______ _______ _____ _____    ______ ____
ROOT
ATOM      1  C   UNL     1       1.384   9.096  19.639  0.00  0.00    +0.000 A 
ATOM      2  C   UNL     1       1.219   8.061  20.474  0.00  0.00    +0.000 A 
ATOM      3  C   UNL     1       0.390   8.134  21.731  0.00  0.00    +0.000 C 
ATOM      4  N   UNL     1       1.756   6.824  20.255  0.00  0.00    +0.000 NA
ATOM      5  C   UNL     1       2.465   6.589  19.189  0.00  0.00    +0.000 A 
ATOM      6  N   UNL     1       2.723   7.590  18.232  0.00  0.00    +0.000 N 
ATOM      7  C   UNL     1       2.030   8.788  18.340  0.00  0.00    +0.000 A 
ATOM      8  O   UNL     1       1.841   9.579  17.414  0.00  0.00    +0.000 OA
ENDROOT
BRANCH   5   9
ATOM      9  C   UNL     1       2.952   5.158  19.000  0.00  0.00    +0.000 A 
ATOM     10  C   UNL     1       4.042   4.631  19.707  0.00  0.00    +0.000 A 
ATOM     11  C   UNL     1       4.582   3.377  19.402  0.00  0.00    +0.000 A 
ATOM     12  C   UNL     1       3.943   2.552  18.486  0.00  0.00    +0.000 A 
ATOM     13  C   UNL     1       2.763   2.980  17.888  0.00  0.00    +0.000 A 
ATOM     14  C   UNL     1       2.284   4.277  18.123  0.00  0.00    +0.000 A 
BRANCH  14  15
ATOM     15  O   UNL     1       1.153   4.653  17.446  0.00  0.00    +0.000 OA
ATOM     16  H   UNL     1       0.581   3.880  17.328  0.00  0.00    +0.000 HD
ENDBRANCH  14  15
ENDBRANCH   5   9
BRANCH   1  18
ATOM     17  C   UNL     1      -0.592  10.617  19.444  0.00  0.00    +0.000 C 
ATOM     18  C   UNL     1       0.876  10.505  19.832  0.00  0.00    +0.000 C 
ENDBRANCH   1  18
BRANCH   6  19
ATOM     19  C   UNL     1       3.443   7.324  16.968  0.00  0.00    +0.000 C 
BRANCH  19  20
ATOM     20  C   UNL     1       4.951   7.608  16.813  0.00  0.00    +0.000 C 
BRANCH  20  21
ATOM     21  C   UNL     1       5.882   6.456  17.141  0.00  0.00    +0.000 A 
ATOM     22  C   UNL     1       6.804   6.501  18.195  0.00  0.00    +0.000 A 
ATOM     23  C   UNL     1       7.727   5.464  18.364  0.00  0.00    +0.000 A 
ATOM     24  C   UNL     1       7.720   4.371  17.503  0.00  0.00    +0.000 A 
ATOM     25  C   UNL     1       6.769   4.289  16.484  0.00  0.00    +0.000 A 
ATOM     26  C   UNL     1       5.849   5.322  16.320  0.00  0.00    +0.000 A 
ENDBRANCH  20  21
ENDBRANCH  19  20
ENDBRANCH   6  19
TORSDOF 6
ENDMDL
MODEL 7
REMARK VINA RESULT:      -7.2      3.027      5.588
REMARK  Name = 
REMARK  8 active torsions:
REMARK  status: ('A' for Active; 'I' for Inactive)
REMARK    1  A    between atoms: C_1  and  C_2
REMARK    2  A    between atoms: C_2  and  C_3
REMARK    3  A    between atoms: C_4  and  C_5
REMARK    4  A    between atoms: C_7  and  C_8
REMARK    5  A    between atoms: C_13  and  O_14
REMARK    6  A    between atoms: N_15  and  C_16
REMARK    7  A    between atoms: C_16  and  C_17
REMARK    8  A    between atoms: C_17  and  C_18
REMARK                            x       y       z     vdW  Elec       q    Type
REMARK                         _______ _______ _______ _____ _____    ______ ____
ROOT
ATOM      1  C   UNL     1       3.188   3.625  20.487  0.00  0.00    +0.000 A 
ATOM      2  C   UNL     1       4.249   2.933  20.051  0.00  0.00    +0.000 A 
ATOM      3  C   UNL     1       4.777   1.703  20.745  0.00  0.00    +0.000 C 
ATOM      4  N   UNL     1       4.939   3.248  18.915  0.00  0.00    +0.000 NA
ATOM      5  C   UNL     1       4.578   4.260  18.180  0.00  0.00    +0.000 A 
ATOM      6  N   UNL     1       3.485   5.079  18.527  0.00  0.00    +0.000 N 
ATOM      7  C   UNL     1       2.662   4.660  19.564  0.00  0.00    +0.000 A 
ATOM      8  O   UNL     1       1.496   5.024  19.729  0.00  0.00    +0.000 OA
ENDROOT
BRANCH   5   9
ATOM      9  C   UNL     1       5.363   4.478  16.893  0.00  0.00    +0.000 A 
ATOM     10  C   UNL     1       4.813   4.248  15.624  0.00  0.00    +0.000 A 
ATOM     11  C   UNL     1       5.593   4.289  14.463  0.00  0.00    +0.000 A 
ATOM     12  C   UNL     1       6.912   4.720  14.531  0.00  0.00    +0.000 A 
ATOM     13  C   UNL     1       7.439   5.115  15.754  0.00  0.00    +0.000 A 
ATOM     14  C   UNL     1       6.683   4.975  16.927  0.00  0.00    +0.000 A 
BRANCH  14  15
ATOM     15  O   UNL     1       7.293   5.321  18.104  0.00  0.00    +0.000 OA
ATOM     16  H   UNL     1       6.786   6.028  18.530  0.00  0.00    +0.000 HD
ENDBRANCH  14  15
ENDBRANCH   5   9
BRANCH   1  18
ATOM     17  C   UNL     1       1.271   2.395  21.521  0.00  0.00    +0.000 C 
ATOM     18  C   UNL     1       2.407   3.382  21.757  0.00  0.00    +0.000 C 
ENDBRANCH   1  18
BRANCH   6  19
ATOM     19  C   UNL     1       2.997   6.173  17.661  0.00  0.00    +0.000 C 
BRANCH  19  20
ATOM     20  C   UNL     1       3.244   7.656  18.006  0.00  0.00    +0.000 C 
BRANCH  20  21
ATOM     21  C   UNL     1       2.055   8.417  18.561  0.00  0.00    +0.000 A 
ATOM     22  C   UNL     1       1.246   9.244  17.771  0.00  0.00    +0.000 A 
ATOM     23  C   UNL     1       0.248  10.024  18.364  0.00  0.00    +0.000 A 
ATOM     24  C   UNL     1       0.036   9.965  19.738  0.00  0.00    +0.000 A 
ATOM     25  C   UNL     1       0.798   9.102  20.528  0.00  0.00    +0.000 A 
ATOM     26  C   UNL     1       1.790   8.324  19.934  0.00  0.00    +0.000 A 
ENDBRANCH  20  21
ENDBRANCH  19  20
ENDBRANCH   6  19
TORSDOF 6
ENDMDL
MODEL 8
REMARK VINA RESULT:      -7.2      1.161      1.537
REMARK  Name = 
REMARK  8 active torsions:
REMARK  status: ('A' for Active; 'I' for Inactive)
REMARK    1  A    between atoms: C_1  and  C_2
REMARK    2  A    between atoms: C_2  and  C_3
REMARK    3  A    between atoms: C_4  and  C_5
REMARK    4  A    between atoms: C_7  and  C_8
REMARK    5  A    between atoms: C_13  and  O_14
REMARK    6  A    between atoms: N_15  and  C_16
REMARK    7  A    between atoms: C_16  and  C_17
REMARK    8  A    between atoms: C_17  and  C_18
REMARK                            x       y       z     vdW  Elec       q    Type
REMARK                         _______ _______ _______ _____ _____    ______ ____
ROOT
ATOM      1  C   UNL     1       2.245   3.790  18.936  0.00  0.00    +0.000 A 
ATOM      2  C   UNL     1       2.634   4.860  19.640  0.00  0.00    +0.000 A 
ATOM      3  C   UNL     1       1.861   5.407  20.813  0.00  0.00    +0.000 C 
ATOM      4  N   UNL     1       3.791   5.545  19.392  0.00  0.00    +0.000 NA
ATOM      5  C   UNL     1       4.591   5.169  18.436  0.00  0.00    +0.000 A 
ATOM      6  N   UNL     1       4.298   4.064  17.612  0.00  0.00    +0.000 N 
ATOM      7  C   UNL     1       3.234   3.248  17.973  0.00  0.00    +0.000 A 
ATOM      8  O   UNL     1       3.092   2.077  17.615  0.00  0.00    +0.000 OA
ENDROOT
BRANCH   5   9
ATOM      9  C   UNL     1       5.891   5.950  18.293  0.00  0.00    +0.000 A 
ATOM     10  C   UNL     1       7.023   5.683  19.076  0.00  0.00    +0.000 A 
ATOM     11  C   UNL     1       8.148   6.515  19.053  0.00  0.00    +0.000 A 
ATOM     12  C   UNL     1       8.229   7.545  18.125  0.00  0.00    +0.000 A 
ATOM     13  C   UNL     1       7.191   7.732  17.220  0.00  0.00    +0.000 A 
ATOM     14  C   UNL     1       6.023   6.960  17.316  0.00  0.00    +0.000 A 
BRANCH  14  15
ATOM     15  O   UNL     1       5.015   7.246  16.434  0.00  0.00    +0.000 OA
ATOM     16  H   UNL     1       5.145   8.140  16.081  0.00  0.00    +0.000 HD
ENDBRANCH  14  15
ENDBRANCH   5   9
BRANCH   1  18
ATOM     17  C   UNL     1       0.997   2.160  20.365  0.00  0.00    +0.000 C 
ATOM     18  C   UNL     1       0.960   3.013  19.104  0.00  0.00    +0.000 C 
ENDBRANCH   1  18
BRANCH   6  19
ATOM     19  C   UNL     1       5.234   3.560  16.585  0.00  0.00    +0.000 C 
BRANCH  19  20
ATOM     20  C   UNL     1       4.885   3.582  15.083  0.00  0.00    +0.000 C 
BRANCH  20  21
ATOM     21  C   UNL     1       5.992   4.031  14.149  0.00  0.00    +0.000 A 
ATOM     22  C   UNL     1       6.961   4.974  14.518  0.00  0.00    +0.000 A 
ATOM     23  C   UNL     1       7.875   5.449  13.571  0.00  0.00    +0.000 A 
ATOM     24  C   UNL     1       7.843   4.971  12.265  0.00  0.00    +0.000 A 
ATOM     25  C   UNL     1       6.919   3.990  11.900  0.00  0.00    +0.000 A 
ATOM     26  C   UNL     1       6.012   3.517  12.846  0.00  0.00    +0.000 A 
ENDBRANCH  20  21
ENDBRANCH  19  20
ENDBRANCH   6  19
TORSDOF 6
ENDMDL
MODEL 9
REMARK VINA RESULT:      -7.1      2.957      4.007
REMARK  Name = 
REMARK  8 active torsions:
REMARK  status: ('A' for Active; 'I' for Inactive)
REMARK    1  A    between atoms: C_1  and  C_2
REMARK    2  A    between atoms: C_2  and  C_3
REMARK    3  A    between atoms: C_4  and  C_5
REMARK    4  A    between atoms: C_7  and  C_8
REMARK    5  A    between atoms: C_13  and  O_14
REMARK    6  A    between atoms: N_15  and  C_16
REMARK    7  A    between atoms: C_16  and  C_17
REMARK    8  A    between atoms: C_17  and  C_18
REMARK                            x       y       z     vdW  Elec       q    Type
REMARK                         _______ _______ _______ _____ _____    ______ ____
ROOT
ATOM      1  C   UNL     1       3.455   3.599  19.744  0.00  0.00    +0.000 A 
ATOM      2  C   UNL     1       2.235   4.026  20.095  0.00  0.00    +0.000 A 
ATOM      3  C   UNL     1       1.223   3.158  20.799  0.00  0.00    +0.000 C 
ATOM      4  N   UNL     1       1.794   5.302  19.884  0.00  0.00    +0.000 NA
ATOM      5  C   UNL     1       2.568   6.186  19.324  0.00  0.00    +0.000 A 
ATOM      6  N   UNL     1       3.873   5.868  18.898  0.00  0.00    +0.000 N 
ATOM      7  C   UNL     1       4.401   4.641  19.277  0.00  0.00    +0.000 A 
ATOM      8  O   UNL     1       5.604   4.378  19.332  0.00  0.00    +0.000 OA
ENDROOT
BRANCH   5   9
ATOM      9  C   UNL     1       2.011   7.599  19.206  0.00  0.00    +0.000 A 
ATOM     10  C   UNL     1       1.851   8.247  17.973  0.00  0.00    +0.000 A 
ATOM     11  C   UNL     1       1.500   9.599  17.891  0.00  0.00    +0.000 A 
ATOM     12  C   UNL     1       1.146  10.293  19.041  0.00  0.00    +0.000 A 
ATOM     13  C   UNL     1       1.134   9.631  20.262  0.00  0.00    +0.000 A 
ATOM     14  C   UNL     1       1.584   8.306  20.350  0.00  0.00    +0.000 A 
BRANCH  14  15
ATOM     15  O   UNL     1       1.609   7.740  21.598  0.00  0.00    +0.000 OA
ATOM     16  H   UNL     1       2.486   7.872  21.990  0.00  0.00    +0.000 HD
ENDBRANCH  14  15
ENDBRANCH   5   9
BRANCH   1  18
ATOM     17  C   UNL     1       3.727   1.373  18.634  0.00  0.00    +0.000 C 
ATOM     18  C   UNL     1       3.999   2.197  19.887  0.00  0.00    +0.000 C 
ENDBRANCH   1  18
BRANCH   6  19
ATOM     19  C   UNL     1       4.804   6.876  18.347  0.00  0.00    +0.000 C 
BRANCH  19  20
ATOM     20  C   UNL     1       4.918   7.139  16.832  0.00  0.00    +0.000 C 
BRANCH  20  21
ATOM     21  C   UNL     1       5.579   6.045  16.015  0.00  0.00    +0.000 A 
ATOM     22  C   UNL     1       4.985   5.482  14.878  0.00  0.00    +0.000 A 
ATOM     23  C   UNL     1       5.580   4.385  14.245  0.00  0.00    +0.000 A 
ATOM     24  C   UNL     1       6.777   3.863  14.725  0.00  0.00    +0.000 A 
ATOM     25  C   UNL     1       7.407   4.452  15.823  0.00  0.00    +0.000 A 
ATOM     26  C   UNL     1       6.814   5.546  16.449  0.00  0.00    +0.000 A 
ENDBRANCH  20  21
ENDBRANCH  19  20
ENDBRANCH   6  19
TORSDOF 6
ENDMDL
