MODEL 1
REMARK VINA RESULT:      -7.5      0.000      0.000
REMARK  Name = 
REMARK  3 active torsions:
REMARK  status: ('A' for Active; 'I' for Inactive)
REMARK    1  A    between atoms: C_2  and  C_3
REMARK    2  A    between atoms: C_3  and  S_4
REMARK    3  A    between atoms: S_4  and  C_5
REMARK                            x       y       z     vdW  Elec       q    Type
REMARK                         _______ _______ _______ _____ _____    ______ ____
ROOT
ATOM      1  S   UNL     1       7.113   5.284  18.277  0.00  0.00    +0.000 S 
ENDROOT
BRANCH   1   2
ATOM      2  C   UNL     1       6.843   4.917  16.596  0.00  0.00    +0.000 A 
ATOM      3  N   UNL     1       5.923   4.076  16.157  0.00  0.00    +0.000 NA
ATOM      4  C   UNL     1       6.129   4.034  14.799  0.00  0.00    +0.000 A 
ATOM      5  C   UNL     1       5.491   3.300  13.792  0.00  0.00    +0.000 A 
ATOM      6  C   UNL     1       5.968   3.443  12.481  0.00  0.00    +0.000 A 
ATOM      7 CL   UNL     1       5.237   2.526  11.218  0.00  0.00    +0.000 Cl
ATOM      8  C   UNL     1       7.033   4.299  12.175  0.00  0.00    +0.000 A 
ATOM      9  C   UNL     1       7.666   5.053  13.173  0.00  0.00    +0.000 A 
ATOM     10  C   UNL     1       7.177   4.874  14.461  0.00  0.00    +0.000 A 
ATOM     11  O   UNL     1       7.631   5.454  15.608  0.00  0.00    +0.000 OA
ENDBRANCH   1   2
BRANCH   1  12
ATOM     12  C   UNL     1       5.406   5.544  18.834  0.00  0.00    +0.000 C 
BRANCH  12  14
ATOM     13  O   UNL     1       5.500   3.292  19.622  0.00  0.00    +0.000 OA
ATOM     14  C   UNL     1       4.779   4.223  19.257  0.00  0.00    +0.000 C 
ATOM     15  N   UNL     1       3.396   4.114  19.259  0.00  0.00    +0.000 N 
ATOM     16  C   UNL     1       2.757   2.918  19.821  0.00  0.00    +0.000 C 
ATOM     17  C   UNL     1       1.877   2.227  18.773  0.00  0.00    +0.000 C 
ATOM     18  O   UNL     1       0.925   3.148  18.213  0.00  0.00    +0.000 OA
ATOM     19  C   UNL     1       1.598   4.253  17.587  0.00  0.00    +0.000 C 
ATOM     20  C   UNL     1       2.454   5.024  18.601  0.00  0.00    +0.000 C 
ENDBRANCH  12  14
ENDBRANCH   1  12
TORSDOF 3
ENDMDL
MODEL 2
REMARK VINA RESULT:      -7.4      1.284      1.740
REMARK  Name = 
REMARK  3 active torsions:
REMARK  status: ('A' for Active; 'I' for Inactive)
REMARK    1  A    between atoms: C_2  and  C_3
REMARK    2  A    between atoms: C_3  and  S_4
REMARK    3  A    between atoms: S_4  and  C_5
REMARK                            x       y       z     vdW  Elec       q    Type
REMARK                         _______ _______ _______ _____ _____    ______ ____
ROOT
ATOM      1  S   UNL     1       6.707   5.948  18.098  0.00  0.00    +0.000 S 
ENDROOT
BRANCH   1   2
ATOM      2  C   UNL     1       6.574   5.372  16.459  0.00  0.00    +0.000 A 
ATOM      3  N   UNL     1       5.664   4.507  16.046  0.00  0.00    +0.000 NA
ATOM      4  C   UNL     1       5.989   4.284  14.730  0.00  0.00    +0.000 A 
ATOM      5  C   UNL     1       5.415   3.442  13.769  0.00  0.00    +0.000 A 
ATOM      6  C   UNL     1       6.012   3.400  12.501  0.00  0.00    +0.000 A 
ATOM      7 CL   UNL     1       5.361   2.347  11.302  0.00  0.00    +0.000 Cl
ATOM      8  C   UNL     1       7.133   4.179  12.189  0.00  0.00    +0.000 A 
ATOM      9  C   UNL     1       7.704   5.039  13.138  0.00  0.00    +0.000 A 
ATOM     10  C   UNL     1       7.095   5.043  14.388  0.00  0.00    +0.000 A 
ATOM     11  O   UNL     1       7.468   5.754  15.489  0.00  0.00    +0.000 OA
ENDBRANCH   1   2
BRANCH   1  12
ATOM     12  C   UNL     1       5.710   4.704  18.964  0.00  0.00    +0.000 C 
BRANCH  12  14
ATOM     13  O   UNL     1       3.931   6.272  18.677  0.00  0.00    +0.000 OA
ATOM     14  C   UNL     1       4.246   5.120  18.985  0.00  0.00    +0.000 C 
ATOM     15  N   UNL     1       3.289   4.170  19.313  0.00  0.00    +0.000 N 
ATOM     16  C   UNL     1       1.863   4.490  19.177  0.00  0.00    +0.000 C 
ATOM     17  C   UNL     1       1.137   4.326  20.517  0.00  0.00    +0.000 C 
ATOM     18  O   UNL     1       1.358   3.014  21.063  0.00  0.00    +0.000 OA
ATOM     19  C   UNL     1       2.761   2.782  21.272  0.00  0.00    +0.000 C 
ATOM     20  C   UNL     1       3.538   2.875  19.952  0.00  0.00    +0.000 C 
ENDBRANCH  12  14
ENDBRANCH   1  12
TORSDOF 3
ENDMDL
MODEL 3
REMARK VINA RESULT:      -7.3      1.191      1.473
REMARK  Name = 
REMARK  3 active torsions:
REMARK  status: ('A' for Active; 'I' for Inactive)
REMARK    1  A    between atoms: C_2  and  C_3
REMARK    2  A    between atoms: C_3  and  S_4
REMARK    3  A    between atoms: S_4  and  C_5
REMARK                            x       y       z     vdW  Elec       q    Type
REMARK                         _______ _______ _______ _____ _____    ______ ____
ROOT
ATOM      1  S   UNL     1       6.411   6.314  17.797  0.00  0.00    +0.000 S 
ENDROOT
BRANCH   1   2
ATOM      2  C   UNL     1       6.354   5.616  16.202  0.00  0.00    +0.000 A 
ATOM      3  N   UNL     1       5.380   4.836  15.766  0.00  0.00    +0.000 NA
ATOM      4  C   UNL     1       5.792   4.457  14.511  0.00  0.00    +0.000 A 
ATOM      5  C   UNL     1       5.203   3.611  13.564  0.00  0.00    +0.000 A 
ATOM      6  C   UNL     1       5.903   3.382  12.371  0.00  0.00    +0.000 A 
ATOM      7 CL   UNL     1       5.232   2.315  11.195  0.00  0.00    +0.000 Cl
ATOM      8  C   UNL     1       7.142   3.986  12.117  0.00  0.00    +0.000 A 
ATOM      9  C   UNL     1       7.731   4.849  13.051  0.00  0.00    +0.000 A 
ATOM     10  C   UNL     1       7.015   5.040  14.227  0.00  0.00    +0.000 A 
ATOM     11  O   UNL     1       7.376   5.795  15.302  0.00  0.00    +0.000 OA
ENDBRANCH   1   2
BRANCH   1  12
ATOM     12  C   UNL     1       5.720   4.952  18.776  0.00  0.00    +0.000 C 
BRANCH  12  14
ATOM     13  O   UNL     1       3.807   6.171  19.522  0.00  0.00    +0.000 OA
ATOM     14  C   UNL     1       4.224   5.148  18.975  0.00  0.00    +0.000 C 
ATOM     15  N   UNL     1       3.356   4.178  18.493  0.00  0.00    +0.000 N 
ATOM     16  C   UNL     1       1.908   4.415  18.515  0.00  0.00    +0.000 C 
ATOM     17  C   UNL     1       1.190   3.327  19.320  0.00  0.00    +0.000 C 
ATOM     18  O   UNL     1       1.527   2.018  18.828  0.00  0.00    +0.000 OA
ATOM     19  C   UNL     1       2.943   1.793  18.918  0.00  0.00    +0.000 C 
ATOM     20  C   UNL     1       3.719   2.819  18.082  0.00  0.00    +0.000 C 
ENDBRANCH  12  14
ENDBRANCH   1  12
TORSDOF 3
ENDMDL
MODEL 4
REMARK VINA RESULT:      -7.0      4.597      6.354
REMARK  Name = 
REMARK  3 active torsions:
REMARK  status: ('A' for Active; 'I' for Inactive)
REMARK    1  A    between atoms: C_2  and  C_3
REMARK    2  A    between atoms: C_3  and  S_4
REMARK    3  A    between atoms: S_4  and  C_5
REMARK                            x       y       z     vdW  Elec       q    Type
REMARK                         _______ _______ _______ _____ _____    ______ ____
ROOT
ATOM      1  S   UNL     1       4.768   4.740  17.822  0.00  0.00    +0.000 S 
ENDROOT
BRANCH   1   2
ATOM      2  C   UNL     1       3.772   6.069  18.346  0.00  0.00    +0.000 A 
ATOM      3  N   UNL     1       3.240   6.170  19.552  0.00  0.00    +0.000 NA
ATOM      4  C   UNL     1       2.478   7.311  19.486  0.00  0.00    +0.000 A 
ATOM      5  C   UNL     1       1.652   7.924  20.436  0.00  0.00    +0.000 A 
ATOM      6  C   UNL     1       0.957   9.078  20.047  0.00  0.00    +0.000 A 
ATOM      7 CL   UNL     1      -0.102   9.840  21.174  0.00  0.00    +0.000 Cl
ATOM      8  C   UNL     1       1.089   9.618  18.762  0.00  0.00    +0.000 A 
ATOM      9  C   UNL     1       1.928   9.023  17.809  0.00  0.00    +0.000 A 
ATOM     10  C   UNL     1       2.588   7.873  18.226  0.00  0.00    +0.000 A 
ATOM     11  O   UNL     1       3.427   7.089  17.492  0.00  0.00    +0.000 OA
ENDBRANCH   1   2
BRANCH   1  12
ATOM     12  C   UNL     1       3.537   3.727  16.957  0.00  0.00    +0.000 C 
BRANCH  12  14
ATOM     13  O   UNL     1       1.254   4.260  17.414  0.00  0.00    +0.000 OA
ATOM     14  C   UNL     1       2.256   3.638  17.774  0.00  0.00    +0.000 C 
ATOM     15  N   UNL     1       2.237   2.817  18.893  0.00  0.00    +0.000 N 
ATOM     16  C   UNL     1       0.975   2.575  19.602  0.00  0.00    +0.000 C 
ATOM     17  C   UNL     1       1.084   3.001  21.070  0.00  0.00    +0.000 C 
ATOM     18  O   UNL     1       2.206   2.364  21.708  0.00  0.00    +0.000 OA
ATOM     19  C   UNL     1       3.430   2.709  21.040  0.00  0.00    +0.000 C 
ATOM     20  C   UNL     1       3.406   2.254  19.574  0.00  0.00    +0.000 C 
ENDBRANCH  12  14
ENDBRANCH   1  12
TORSDOF 3
ENDMDL
MODEL 5
REMARK VINA RESULT:      -6.9      4.507      6.451
REMARK  Name = 
REMARK  3 active torsions:
REMARK  status: ('A' for Active; 'I' for Inactive)
REMARK    1  A    between atoms: C_2  and  C_3
REMARK    2  A    between atoms: C_3  and  S_4
REMARK    3  A    between atoms: S_4  and  C_5
REMARK                            x       y       z     vdW  Elec       q    Type
REMARK                         _______ _______ _______ _____ _____    ______ ____
ROOT
ATOM      1  S   UNL     1       4.733   4.940  17.857  0.00  0.00    +0.000 S 
ENDROOT
BRANCH   1   2
ATOM      2  C   UNL     1       3.597   6.177  18.318  0.00  0.00    +0.000 A 
ATOM      3  N   UNL     1       3.205   7.159  17.526  0.00  0.00    +0.000 NA
ATOM      4  C   UNL     1       2.391   7.927  18.323  0.00  0.00    +0.000 A 
ATOM      5  C   UNL     1       1.703   9.118  18.062  0.00  0.00    +0.000 A 
ATOM      6  C   UNL     1       0.977   9.694  19.114  0.00  0.00    +0.000 A 
ATOM      7 CL   UNL     1       0.150  11.183  18.847  0.00  0.00    +0.000 Cl
ATOM      8  C   UNL     1       0.920   9.100  20.381  0.00  0.00    +0.000 A 
ATOM      9  C   UNL     1       1.589   7.898  20.647  0.00  0.00    +0.000 A 
ATOM     10  C   UNL     1       2.310   7.364  19.586  0.00  0.00    +0.000 A 
ATOM     11  O   UNL     1       3.071   6.234  19.586  0.00  0.00    +0.000 OA
ENDBRANCH   1   2
BRANCH   1  12
ATOM     12  C   UNL     1       3.630   3.786  16.995  0.00  0.00    +0.000 C 
BRANCH  12  14
ATOM     13  O   UNL     1       1.304   4.200  17.345  0.00  0.00    +0.000 OA
ATOM     14  C   UNL     1       2.321   3.636  17.756  0.00  0.00    +0.000 C 
ATOM     15  N   UNL     1       2.296   2.826  18.883  0.00  0.00    +0.000 N 
ATOM     16  C   UNL     1       1.018   2.525  19.539  0.00  0.00    +0.000 C 
ATOM     17  C   UNL     1       1.039   2.971  21.005  0.00  0.00    +0.000 C 
ATOM     18  O   UNL     1       2.163   2.402  21.699  0.00  0.00    +0.000 OA
ATOM     19  C   UNL     1       3.396   2.804  21.082  0.00  0.00    +0.000 C 
ATOM     20  C   UNL     1       3.461   2.334  19.622  0.00  0.00    +0.000 C 
ENDBRANCH  12  14
ENDBRANCH   1  12
TORSDOF 3
ENDMDL
MODEL 6
REMARK VINA RESULT:      -6.9      4.722      6.865
REMARK  Name = 
REMARK  3 active torsions:
REMARK  status: ('A' for Active; 'I' for Inactive)
REMARK    1  A    between atoms: C_2  and  C_3
REMARK    2  A    between atoms: C_3  and  S_4
REMARK    3  A    between atoms: S_4  and  C_5
REMARK                            x       y       z     vdW  Elec       q    Type
REMARK                         _______ _______ _______ _____ _____    ______ ____
ROOT
ATOM      1  S   UNL     1       4.430   6.752  17.148  0.00  0.00    +0.000 S 
ENDROOT
BRANCH   1   2
ATOM      2  C   UNL     1       3.131   7.584  17.958  0.00  0.00    +0.000 A 
ATOM      3  N   UNL     1       2.436   8.574  17.426  0.00  0.00    +0.000 NA
ATOM      4  C   UNL     1       1.595   8.972  18.437  0.00  0.00    +0.000 A 
ATOM      5  C   UNL     1       0.642   9.997  18.493  0.00  0.00    +0.000 A 
ATOM      6  C   UNL     1      -0.039  10.187  19.703  0.00  0.00    +0.000 A 
ATOM      7 CL   UNL     1      -1.191  11.463  19.827  0.00  0.00    +0.000 Cl
ATOM      8  C   UNL     1       0.205   9.377  20.820  0.00  0.00    +0.000 A 
ATOM      9  C   UNL     1       1.143   8.337  20.768  0.00  0.00    +0.000 A 
ATOM     10  C   UNL     1       1.809   8.188  19.557  0.00  0.00    +0.000 A 
ATOM     11  O   UNL     1       2.784   7.286  19.253  0.00  0.00    +0.000 OA
ENDBRANCH   1   2
BRANCH   1  12
ATOM     12  C   UNL     1       4.714   5.383  18.304  0.00  0.00    +0.000 C 
BRANCH  12  14
ATOM     13  O   UNL     1       3.884   3.756  16.765  0.00  0.00    +0.000 OA
ATOM     14  C   UNL     1       3.860   4.182  17.922  0.00  0.00    +0.000 C 
ATOM     15  N   UNL     1       3.100   3.566  18.906  0.00  0.00    +0.000 N 
ATOM     16  C   UNL     1       2.402   2.309  18.613  0.00  0.00    +0.000 C 
ATOM     17  C   UNL     1       0.895   2.454  18.851  0.00  0.00    +0.000 C 
ATOM     18  O   UNL     1       0.628   2.935  20.180  0.00  0.00    +0.000 OA
ATOM     19  C   UNL     1       1.249   4.214  20.389  0.00  0.00    +0.000 C 
ATOM     20  C   UNL     1       2.772   4.122  20.222  0.00  0.00    +0.000 C 
ENDBRANCH  12  14
ENDBRANCH   1  12
TORSDOF 3
ENDMDL
MODEL 7
REMARK VINA RESULT:      -6.9      4.011      6.859
REMARK  Name = 
REMARK  3 active torsions:
REMARK  status: ('A' for Active; 'I' for Inactive)
REMARK    1  A    between atoms: C_2  and  C_3
REMARK    2  A    between atoms: C_3  and  S_4
REMARK    3  A    between atoms: S_4  and  C_5
REMARK                            x       y       z     vdW  Elec       q    Type
REMARK                         _______ _______ _______ _____ _____    ______ ____
ROOT
ATOM      1  S   UNL     1       2.532   3.347  19.255  0.00  0.00    +0.000 S 
ENDROOT
BRANCH   1   2
ATOM      2  C   UNL     1       2.319   5.076  19.292  0.00  0.00    +0.000 A 
ATOM      3  N   UNL     1       1.983   5.760  20.372  0.00  0.00    +0.000 NA
ATOM      4  C   UNL     1       1.846   7.051  19.920  0.00  0.00    +0.000 A 
ATOM      5  C   UNL     1       1.476   8.226  20.585  0.00  0.00    +0.000 A 
ATOM      6  C   UNL     1       1.381   9.401  19.826  0.00  0.00    +0.000 A 
ATOM      7 CL   UNL     1       0.889  10.861  20.598  0.00  0.00    +0.000 Cl
ATOM      8  C   UNL     1       1.661   9.415  18.453  0.00  0.00    +0.000 A 
ATOM      9  C   UNL     1       2.051   8.248  17.782  0.00  0.00    +0.000 A 
ATOM     10  C   UNL     1       2.119   7.100  18.564  0.00  0.00    +0.000 A 
ATOM     11  O   UNL     1       2.436   5.839  18.157  0.00  0.00    +0.000 OA
ENDBRANCH   1   2
BRANCH   1  12
ATOM     12  C   UNL     1       3.811   3.202  17.978  0.00  0.00    +0.000 C 
BRANCH  12  14
ATOM     13  O   UNL     1       5.518   3.519  19.618  0.00  0.00    +0.000 OA
ATOM     14  C   UNL     1       5.128   3.780  18.478  0.00  0.00    +0.000 C 
ATOM     15  N   UNL     1       5.882   4.561  17.614  0.00  0.00    +0.000 N 
ATOM     16  C   UNL     1       7.230   4.990  18.004  0.00  0.00    +0.000 C 
ATOM     17  C   UNL     1       7.342   6.518  17.989  0.00  0.00    +0.000 C 
ATOM     18  O   UNL     1       6.941   7.050  16.714  0.00  0.00    +0.000 OA
ATOM     19  C   UNL     1       5.583   6.687  16.419  0.00  0.00    +0.000 C 
ATOM     20  C   UNL     1       5.418   5.162  16.362  0.00  0.00    +0.000 C 
ENDBRANCH  12  14
ENDBRANCH   1  12
TORSDOF 3
ENDMDL
MODEL 8
REMARK VINA RESULT:      -6.8      4.086      6.930
REMARK  Name = 
REMARK  3 active torsions:
REMARK  status: ('A' for Active; 'I' for Inactive)
REMARK    1  A    between atoms: C_2  and  C_3
REMARK    2  A    between atoms: C_3  and  S_4
REMARK    3  A    between atoms: S_4  and  C_5
REMARK                            x       y       z     vdW  Elec       q    Type
REMARK                         _______ _______ _______ _____ _____    ______ ____
ROOT
ATOM      1  S   UNL     1       2.510   3.759  20.218  0.00  0.00    +0.000 S 
ENDROOT
BRANCH   1   2
ATOM      2  C   UNL     1       2.283   5.458  19.908  0.00  0.00    +0.000 A 
ATOM      3  N   UNL     1       1.733   6.303  20.763  0.00  0.00    +0.000 NA
ATOM      4  C   UNL     1       1.683   7.490  20.073  0.00  0.00    +0.000 A 
ATOM      5  C   UNL     1       1.179   8.746  20.435  0.00  0.00    +0.000 A 
ATOM      6  C   UNL     1       1.232   9.768  19.478  0.00  0.00    +0.000 A 
ATOM      7 CL   UNL     1       0.585  11.318  19.869  0.00  0.00    +0.000 Cl
ATOM      8  C   UNL     1       1.782   9.559  18.207  0.00  0.00    +0.000 A 
ATOM      9  C   UNL     1       2.305   8.311  17.841  0.00  0.00    +0.000 A 
ATOM     10  C   UNL     1       2.222   7.318  18.810  0.00  0.00    +0.000 A 
ATOM     11  O   UNL     1       2.622   6.020  18.702  0.00  0.00    +0.000 OA
ENDBRANCH   1   2
BRANCH   1  12
ATOM     12  C   UNL     1       4.223   3.549  19.661  0.00  0.00    +0.000 C 
BRANCH  12  14
ATOM     13  O   UNL     1       3.523   2.666  17.556  0.00  0.00    +0.000 OA
ATOM     14  C   UNL     1       4.278   3.444  18.143  0.00  0.00    +0.000 C 
ATOM     15  N   UNL     1       5.157   4.264  17.451  0.00  0.00    +0.000 N 
ATOM     16  C   UNL     1       5.113   4.310  15.984  0.00  0.00    +0.000 C 
ATOM     17  C   UNL     1       6.471   3.925  15.387  0.00  0.00    +0.000 C 
ATOM     18  O   UNL     1       7.523   4.739  15.933  0.00  0.00    +0.000 OA
ATOM     19  C   UNL     1       7.592   4.586  17.360  0.00  0.00    +0.000 C 
ATOM     20  C   UNL     1       6.277   5.014  18.025  0.00  0.00    +0.000 C 
ENDBRANCH  12  14
ENDBRANCH   1  12
TORSDOF 3
ENDMDL
MODEL 9
REMARK VINA RESULT:      -6.7      4.945      7.762
REMARK  Name = 
REMARK  3 active torsions:
REMARK  status: ('A' for Active; 'I' for Inactive)
REMARK    1  A    between atoms: C_2  and  C_3
REMARK    2  A    between atoms: C_3  and  S_4
REMARK    3  A    between atoms: S_4  and  C_5
REMARK                            x       y       z     vdW  Elec       q    Type
REMARK                         _______ _______ _______ _____ _____    ______ ____
ROOT
ATOM      1  S   UNL     1       3.081   5.487  19.679  0.00  0.00    +0.000 S 
ENDROOT
BRANCH   1   2
ATOM      2  C   UNL     1       2.307   7.047  19.721  0.00  0.00    +0.000 A 
ATOM      3  N   UNL     1       1.645   7.520  20.763  0.00  0.00    +0.000 NA
ATOM      4  C   UNL     1       1.142   8.720  20.321  0.00  0.00    +0.000 A 
ATOM      5  C   UNL     1       0.332   9.669  20.956  0.00  0.00    +0.000 A 
ATOM      6  C   UNL     1      -0.059  10.792  20.214  0.00  0.00    +0.000 A 
ATOM      7 CL   UNL     1      -1.090  11.965  20.945  0.00  0.00    +0.000 Cl
ATOM      8  C   UNL     1       0.353  10.978  18.888  0.00  0.00    +0.000 A 
ATOM      9  C   UNL     1       1.180  10.043  18.250  0.00  0.00    +0.000 A 
ATOM     10  C   UNL     1       1.534   8.936  19.011  0.00  0.00    +0.000 A 
ATOM     11  O   UNL     1       2.293   7.872  18.624  0.00  0.00    +0.000 OA
ENDBRANCH   1   2
BRANCH   1  12
ATOM     12  C   UNL     1       2.688   4.971  17.985  0.00  0.00    +0.000 C 
BRANCH  12  14
ATOM     13  O   UNL     1       3.930   2.978  17.550  0.00  0.00    +0.000 OA
ATOM     14  C   UNL     1       3.853   4.197  17.383  0.00  0.00    +0.000 C 
ATOM     15  N   UNL     1       4.785   4.886  16.619  0.00  0.00    +0.000 N 
ATOM     16  C   UNL     1       5.820   4.147  15.886  0.00  0.00    +0.000 C 
ATOM     17  C   UNL     1       7.220   4.600  16.314  0.00  0.00    +0.000 C 
ATOM     18  O   UNL     1       7.361   6.026  16.181  0.00  0.00    +0.000 OA
ATOM     19  C   UNL     1       6.392   6.708  16.992  0.00  0.00    +0.000 C 
ATOM     20  C   UNL     1       4.963   6.340  16.572  0.00  0.00    +0.000 C 
ENDBRANCH  12  14
ENDBRANCH   1  12
TORSDOF 3
ENDMDL
