MODEL 1
REMARK VINA RESULT:      -6.6      0.000      0.000
REMARK  Name = 
REMARK  8 active torsions:
REMARK  status: ('A' for Active; 'I' for Inactive)
REMARK    1  A    between atoms: C_1  and  C_2
REMARK    2  A    between atoms: C_2  and  O_3
REMARK    3  A    between atoms: O_3  and  C_4
REMARK    4  A    between atoms: C_4  and  C_5
REMARK    5  A    between atoms: N_7  and  C_8
REMARK    6  A    between atoms: C_8  and  C_9
REMARK    7  A    between atoms: N_17  and  C_18
REMARK    8  A    between atoms: C_18  and  C_19
REMARK                            x       y       z     vdW  Elec       q    Type
REMARK                         _______ _______ _______ _____ _____    ______ ____
ROOT
ATOM      1  C   UNL     1       6.011   6.707  17.433  0.00  0.00    +0.000 C 
ATOM      2  C   UNL     1       5.638   6.197  18.853  0.00  0.00    +0.000 C 
ATOM      3  N   UNL     1       4.660   5.104  19.000  0.00  0.00    +0.000 NA
ATOM      4  C   UNL     1       4.819   3.975  18.047  0.00  0.00    +0.000 C 
ATOM      5  C   UNL     1       5.251   4.403  16.667  0.00  0.00    +0.000 A 
ATOM      6  N   UNL     1       5.290   3.606  15.583  0.00  0.00    +0.000 NA
ATOM      7  N   UNL     1       5.825   4.399  14.620  0.00  0.00    +0.000 N 
ATOM      8  C   UNL     1       5.973   5.692  15.028  0.00  0.00    +0.000 A 
ATOM      9  C   UNL     1       5.766   5.677  16.392  0.00  0.00    +0.000 A 
ENDROOT
BRANCH   1  10
ATOM     10  C   UNL     1       7.498   7.135  17.471  0.00  0.00    +0.000 C 
BRANCH  10  11
ATOM     11  O   UNL     1       7.738   8.542  17.422  0.00  0.00    +0.000 OA
BRANCH  11  13
ATOM     12  C   UNL     1       8.945  10.458  18.134  0.00  0.00    +0.000 C 
ATOM     13  C   UNL     1       8.560   9.031  18.476  0.00  0.00    +0.000 C 
ENDBRANCH  11  13
ENDBRANCH  10  11
ENDBRANCH   1  10
BRANCH   3  14
ATOM     14  C   UNL     1       3.278   5.547  19.235  0.00  0.00    +0.000 C 
BRANCH  14  15
ATOM     15  C   UNL     1       2.460   4.500  19.989  0.00  0.00    +0.000 A 
ATOM     16  N   UNL     1       2.583   4.240  21.280  0.00  0.00    +0.000 NA
ATOM     17  C   UNL     1       1.843   3.121  21.611  0.00  0.00    +0.000 A 
ATOM     18  C   UNL     1       1.101   2.571  20.586  0.00  0.00    +0.000 A 
ATOM     19  S   UNL     1       1.353   3.474  19.147  0.00  0.00    +0.000 S 
ENDBRANCH  14  15
ENDBRANCH   3  14
BRANCH   7  20
ATOM     20  C   UNL     1       6.243   3.862  13.309  0.00  0.00    +0.000 C 
BRANCH  20  21
ATOM     21  C   UNL     1       5.239   2.916  12.673  0.00  0.00    +0.000 C 
ATOM     22  C   UNL     1       4.497   3.236  11.390  0.00  0.00    +0.000 C 
ATOM     23  C   UNL     1       5.591   2.212  11.376  0.00  0.00    +0.000 C 
ENDBRANCH  20  21
ENDBRANCH   7  20
TORSDOF 7
ENDMDL
MODEL 2
REMARK VINA RESULT:      -6.4      3.763      5.731
REMARK  Name = 
REMARK  8 active torsions:
REMARK  status: ('A' for Active; 'I' for Inactive)
REMARK    1  A    between atoms: C_1  and  C_2
REMARK    2  A    between atoms: C_2  and  O_3
REMARK    3  A    between atoms: O_3  and  C_4
REMARK    4  A    between atoms: C_4  and  C_5
REMARK    5  A    between atoms: N_7  and  C_8
REMARK    6  A    between atoms: C_8  and  C_9
REMARK    7  A    between atoms: N_17  and  C_18
REMARK    8  A    between atoms: C_18  and  C_19
REMARK                            x       y       z     vdW  Elec       q    Type
REMARK                         _______ _______ _______ _____ _____    ______ ____
ROOT
ATOM      1  C   UNL     1       3.032   4.716  20.528  0.00  0.00    +0.000 C 
ATOM      2  C   UNL     1       1.710   5.533  20.516  0.00  0.00    +0.000 C 
ATOM      3  N   UNL     1       1.715   6.915  20.004  0.00  0.00    +0.000 NA
ATOM      4  C   UNL     1       2.491   7.130  18.754  0.00  0.00    +0.000 C 
ATOM      5  C   UNL     1       3.751   6.306  18.677  0.00  0.00    +0.000 A 
ATOM      6  N   UNL     1       4.714   6.446  17.746  0.00  0.00    +0.000 NA
ATOM      7  N   UNL     1       5.581   5.439  18.027  0.00  0.00    +0.000 N 
ATOM      8  C   UNL     1       5.268   4.784  19.182  0.00  0.00    +0.000 A 
ATOM      9  C   UNL     1       4.003   5.218  19.523  0.00  0.00    +0.000 A 
ENDROOT
BRANCH   1  10
ATOM     10  C   UNL     1       2.663   3.235  20.271  0.00  0.00    +0.000 C 
BRANCH  10  11
ATOM     11  O   UNL     1       1.701   3.008  19.239  0.00  0.00    +0.000 OA
BRANCH  11  13
ATOM     12  C   UNL     1       2.587   3.167  17.042  0.00  0.00    +0.000 C 
ATOM     13  C   UNL     1       2.182   2.220  18.155  0.00  0.00    +0.000 C 
ENDBRANCH  11  13
ENDBRANCH  10  11
ENDBRANCH   1  10
BRANCH   3  14
ATOM     14  C   UNL     1       1.874   7.950  21.036  0.00  0.00    +0.000 C 
BRANCH  14  15
ATOM     15  C   UNL     1       0.807   9.039  20.927  0.00  0.00    +0.000 A 
ATOM     16  N   UNL     1       0.496   9.673  19.810  0.00  0.00    +0.000 NA
ATOM     17  C   UNL     1      -0.365  10.719  20.083  0.00  0.00    +0.000 A 
ATOM     18  C   UNL     1      -0.764  10.837  21.399  0.00  0.00    +0.000 A 
ATOM     19  S   UNL     1      -0.018   9.606  22.336  0.00  0.00    +0.000 S 
ENDBRANCH  14  15
ENDBRANCH   3  14
BRANCH   7  20
ATOM     20  C   UNL     1       6.692   5.089  17.118  0.00  0.00    +0.000 C 
BRANCH  20  21
ATOM     21  C   UNL     1       6.302   4.150  15.990  0.00  0.00    +0.000 C 
ATOM     22  C   UNL     1       5.327   4.532  14.893  0.00  0.00    +0.000 C 
ATOM     23  C   UNL     1       6.789   4.431  14.580  0.00  0.00    +0.000 C 
ENDBRANCH  20  21
ENDBRANCH   7  20
TORSDOF 7
ENDMDL
MODEL 3
REMARK VINA RESULT:      -6.3      3.341      7.807
REMARK  Name = 
REMARK  8 active torsions:
REMARK  status: ('A' for Active; 'I' for Inactive)
REMARK    1  A    between atoms: C_1  and  C_2
REMARK    2  A    between atoms: C_2  and  O_3
REMARK    3  A    between atoms: O_3  and  C_4
REMARK    4  A    between atoms: C_4  and  C_5
REMARK    5  A    between atoms: N_7  and  C_8
REMARK    6  A    between atoms: C_8  and  C_9
REMARK    7  A    between atoms: N_17  and  C_18
REMARK    8  A    between atoms: C_18  and  C_19
REMARK                            x       y       z     vdW  Elec       q    Type
REMARK                         _______ _______ _______ _____ _____    ______ ____
ROOT
ATOM      1  C   UNL     1       3.960   4.177  18.398  0.00  0.00    +0.000 C 
ATOM      2  C   UNL     1       5.245   4.034  17.536  0.00  0.00    +0.000 C 
ATOM      3  N   UNL     1       5.477   4.964  16.417  0.00  0.00    +0.000 NA
ATOM      4  C   UNL     1       5.177   6.392  16.702  0.00  0.00    +0.000 C 
ATOM      5  C   UNL     1       3.979   6.591  17.596  0.00  0.00    +0.000 A 
ATOM      6  N   UNL     1       3.393   7.775  17.856  0.00  0.00    +0.000 NA
ATOM      7  N   UNL     1       2.437   7.465  18.769  0.00  0.00    +0.000 N 
ATOM      8  C   UNL     1       2.313   6.121  18.964  0.00  0.00    +0.000 A 
ATOM      9  C   UNL     1       3.408   5.554  18.345  0.00  0.00    +0.000 A 
ENDROOT
BRANCH   1  10
ATOM     10  C   UNL     1       4.326   3.766  19.845  0.00  0.00    +0.000 C 
BRANCH  10  11
ATOM     11  O   UNL     1       3.551   2.702  20.401  0.00  0.00    +0.000 OA
BRANCH  11  13
ATOM     12  C   UNL     1       1.203   2.935  20.655  0.00  0.00    +0.000 C 
ATOM     13  C   UNL     1       2.315   2.469  19.735  0.00  0.00    +0.000 C 
ENDBRANCH  11  13
ENDBRANCH  10  11
ENDBRANCH   1  10
BRANCH   3  14
ATOM     14  C   UNL     1       5.028   4.470  15.107  0.00  0.00    +0.000 C 
BRANCH  14  15
ATOM     15  C   UNL     1       6.148   4.498  14.068  0.00  0.00    +0.000 A 
ATOM     16  N   UNL     1       7.212   5.280  14.134  0.00  0.00    +0.000 NA
ATOM     17  C   UNL     1       7.932   5.202  12.957  0.00  0.00    +0.000 A 
ATOM     18  C   UNL     1       7.455   4.305  12.023  0.00  0.00    +0.000 A 
ATOM     19  S   UNL     1       6.039   3.545  12.629  0.00  0.00    +0.000 S 
ENDBRANCH  14  15
ENDBRANCH   3  14
BRANCH   7  20
ATOM     20  C   UNL     1       1.681   8.509  19.493  0.00  0.00    +0.000 C 
BRANCH  20  21
ATOM     21  C   UNL     1       1.407   8.184  20.950  0.00  0.00    +0.000 C 
ATOM     22  C   UNL     1       1.141   9.245  22.000  0.00  0.00    +0.000 C 
ATOM     23  C   UNL     1       0.013   8.387  21.513  0.00  0.00    +0.000 C 
ENDBRANCH  20  21
ENDBRANCH   7  20
TORSDOF 7
ENDMDL
MODEL 4
REMARK VINA RESULT:      -6.3      2.031      5.405
REMARK  Name = 
REMARK  8 active torsions:
REMARK  status: ('A' for Active; 'I' for Inactive)
REMARK    1  A    between atoms: C_1  and  C_2
REMARK    2  A    between atoms: C_2  and  O_3
REMARK    3  A    between atoms: O_3  and  C_4
REMARK    4  A    between atoms: C_4  and  C_5
REMARK    5  A    between atoms: N_7  and  C_8
REMARK    6  A    between atoms: C_8  and  C_9
REMARK    7  A    between atoms: N_17  and  C_18
REMARK    8  A    between atoms: C_18  and  C_19
REMARK                            x       y       z     vdW  Elec       q    Type
REMARK                         _______ _______ _______ _____ _____    ______ ____
ROOT
ATOM      1  C   UNL     1       5.881   3.683  15.980  0.00  0.00    +0.000 C 
ATOM      2  C   UNL     1       4.345   3.455  15.927  0.00  0.00    +0.000 C 
ATOM      3  N   UNL     1       3.544   3.614  17.154  0.00  0.00    +0.000 NA
ATOM      4  C   UNL     1       3.885   4.795  17.990  0.00  0.00    +0.000 C 
ATOM      5  C   UNL     1       5.359   5.109  18.021  0.00  0.00    +0.000 A 
ATOM      6  N   UNL     1       5.946   6.005  18.837  0.00  0.00    +0.000 NA
ATOM      7  N   UNL     1       7.242   6.004  18.436  0.00  0.00    +0.000 N 
ATOM      8  C   UNL     1       7.505   5.036  17.512  0.00  0.00    +0.000 A 
ATOM      9  C   UNL     1       6.273   4.563  17.110  0.00  0.00    +0.000 A 
ENDROOT
BRANCH   1  10
ATOM     10  C   UNL     1       6.307   4.283  14.619  0.00  0.00    +0.000 C 
BRANCH  10  11
ATOM     11  O   UNL     1       5.513   3.896  13.496  0.00  0.00    +0.000 OA
BRANCH  11  13
ATOM     12  C   UNL     1       5.485   2.402  11.651  0.00  0.00    +0.000 C 
ATOM     13  C   UNL     1       6.267   3.493  12.358  0.00  0.00    +0.000 C 
ENDBRANCH  11  13
ENDBRANCH  10  11
ENDBRANCH   1  10
BRANCH   3  14
ATOM     14  C   UNL     1       3.298   2.365  17.891  0.00  0.00    +0.000 C 
BRANCH  14  15
ATOM     15  C   UNL     1       2.725   2.623  19.283  0.00  0.00    +0.000 A 
ATOM     16  N   UNL     1       3.425   2.565  20.404  0.00  0.00    +0.000 NA
ATOM     17  C   UNL     1       2.582   2.662  21.495  0.00  0.00    +0.000 A 
ATOM     18  C   UNL     1       1.248   2.864  21.203  0.00  0.00    +0.000 A 
ATOM     19  S   UNL     1       1.035   2.915  19.500  0.00  0.00    +0.000 S 
ENDBRANCH  14  15
ENDBRANCH   3  14
BRANCH   7  20
ATOM     20  C   UNL     1       8.213   7.004  18.929  0.00  0.00    +0.000 C 
BRANCH  20  21
ATOM     21  C   UNL     1       8.470   8.151  17.968  0.00  0.00    +0.000 C 
ATOM     22  C   UNL     1       7.478   9.274  17.735  0.00  0.00    +0.000 C 
ATOM     23  C   UNL     1       8.730   9.542  18.515  0.00  0.00    +0.000 C 
ENDBRANCH  20  21
ENDBRANCH   7  20
TORSDOF 7
ENDMDL
MODEL 5
REMARK VINA RESULT:      -6.3      3.703      5.626
REMARK  Name = 
REMARK  8 active torsions:
REMARK  status: ('A' for Active; 'I' for Inactive)
REMARK    1  A    between atoms: C_1  and  C_2
REMARK    2  A    between atoms: C_2  and  O_3
REMARK    3  A    between atoms: O_3  and  C_4
REMARK    4  A    between atoms: C_4  and  C_5
REMARK    5  A    between atoms: N_7  and  C_8
REMARK    6  A    between atoms: C_8  and  C_9
REMARK    7  A    between atoms: N_17  and  C_18
REMARK    8  A    between atoms: C_18  and  C_19
REMARK                            x       y       z     vdW  Elec       q    Type
REMARK                         _______ _______ _______ _____ _____    ______ ____
ROOT
ATOM      1  C   UNL     1       3.238   4.843  20.213  0.00  0.00    +0.000 C 
ATOM      2  C   UNL     1       1.879   5.588  20.091  0.00  0.00    +0.000 C 
ATOM      3  N   UNL     1       1.834   6.916  19.452  0.00  0.00    +0.000 NA
ATOM      4  C   UNL     1       2.637   7.053  18.209  0.00  0.00    +0.000 C 
ATOM      5  C   UNL     1       3.937   6.291  18.242  0.00  0.00    +0.000 A 
ATOM      6  N   UNL     1       4.920   6.393  17.328  0.00  0.00    +0.000 NA
ATOM      7  N   UNL     1       5.825   5.462  17.724  0.00  0.00    +0.000 N 
ATOM      8  C   UNL     1       5.508   4.901  18.926  0.00  0.00    +0.000 A 
ATOM      9  C   UNL     1       4.214   5.299  19.192  0.00  0.00    +0.000 A 
ENDROOT
BRANCH   1  10
ATOM     10  C   UNL     1       2.948   3.328  20.085  0.00  0.00    +0.000 C 
BRANCH  10  11
ATOM     11  O   UNL     1       1.881   2.975  19.203  0.00  0.00    +0.000 OA
BRANCH  11  13
ATOM     12  C   UNL     1       3.574   1.596  18.271  0.00  0.00    +0.000 C 
ATOM     13  C   UNL     1       2.306   2.376  17.983  0.00  0.00    +0.000 C 
ENDBRANCH  11  13
ENDBRANCH  10  11
ENDBRANCH   1  10
BRANCH   3  14
ATOM     14  C   UNL     1       1.911   8.048  20.388  0.00  0.00    +0.000 C 
BRANCH  14  15
ATOM     15  C   UNL     1       0.980   9.190  19.984  0.00  0.00    +0.000 A 
ATOM     16  N   UNL     1      -0.157   9.480  20.594  0.00  0.00    +0.000 NA
ATOM     17  C   UNL     1      -0.849  10.438  19.877  0.00  0.00    +0.000 A 
ATOM     18  C   UNL     1      -0.205  10.928  18.758  0.00  0.00    +0.000 A 
ATOM     19  S   UNL     1       1.314  10.146  18.584  0.00  0.00    +0.000 S 
ENDBRANCH  14  15
ENDBRANCH   3  14
BRANCH   7  20
ATOM     20  C   UNL     1       6.979   5.087  16.881  0.00  0.00    +0.000 C 
BRANCH  20  21
ATOM     21  C   UNL     1       6.639   4.140  15.743  0.00  0.00    +0.000 C 
ATOM     22  C   UNL     1       5.467   4.359  14.806  0.00  0.00    +0.000 C 
ATOM     23  C   UNL     1       6.864   4.582  14.310  0.00  0.00    +0.000 C 
ENDBRANCH  20  21
ENDBRANCH   7  20
TORSDOF 7
ENDMDL
MODEL 6
REMARK VINA RESULT:      -6.3      2.884      6.284
REMARK  Name = 
REMARK  8 active torsions:
REMARK  status: ('A' for Active; 'I' for Inactive)
REMARK    1  A    between atoms: C_1  and  C_2
REMARK    2  A    between atoms: C_2  and  O_3
REMARK    3  A    between atoms: O_3  and  C_4
REMARK    4  A    between atoms: C_4  and  C_5
REMARK    5  A    between atoms: N_7  and  C_8
REMARK    6  A    between atoms: C_8  and  C_9
REMARK    7  A    between atoms: N_17  and  C_18
REMARK    8  A    between atoms: C_18  and  C_19
REMARK                            x       y       z     vdW  Elec       q    Type
REMARK                         _______ _______ _______ _____ _____    ______ ____
ROOT
ATOM      1  C   UNL     1       4.153   6.545  17.836  0.00  0.00    +0.000 C 
ATOM      2  C   UNL     1       4.549   6.417  16.338  0.00  0.00    +0.000 C 
ATOM      3  N   UNL     1       5.308   5.238  15.886  0.00  0.00    +0.000 NA
ATOM      4  C   UNL     1       4.850   3.935  16.435  0.00  0.00    +0.000 C 
ATOM      5  C   UNL     1       4.384   4.012  17.866  0.00  0.00    +0.000 A 
ATOM      6  N   UNL     1       4.093   2.954  18.647  0.00  0.00    +0.000 NA
ATOM      7  N   UNL     1       3.635   3.517  19.794  0.00  0.00    +0.000 N 
ATOM      8  C   UNL     1       3.776   4.873  19.805  0.00  0.00    +0.000 A 
ATOM      9  C   UNL     1       4.099   5.223  18.510  0.00  0.00    +0.000 A 
ENDROOT
BRANCH   1  10
ATOM     10  C   UNL     1       2.785   7.267  17.892  0.00  0.00    +0.000 C 
BRANCH  10  11
ATOM     11  O   UNL     1       2.424   7.810  19.163  0.00  0.00    +0.000 OA
BRANCH  11  13
ATOM     12  C   UNL     1       1.914   9.752  17.897  0.00  0.00    +0.000 C 
ATOM     13  C   UNL     1       1.520   8.909  19.094  0.00  0.00    +0.000 C 
ENDBRANCH  11  13
ENDBRANCH  10  11
ENDBRANCH   1  10
BRANCH   3  14
ATOM     14  C   UNL     1       6.766   5.430  15.839  0.00  0.00    +0.000 C 
BRANCH  14  15
ATOM     15  C   UNL     1       7.264   6.323  16.974  0.00  0.00    +0.000 A 
ATOM     16  N   UNL     1       7.483   7.622  16.863  0.00  0.00    +0.000 NA
ATOM     17  C   UNL     1       8.104   8.097  18.003  0.00  0.00    +0.000 A 
ATOM     18  C   UNL     1       8.293   7.172  19.010  0.00  0.00    +0.000 A 
ATOM     19  S   UNL     1       7.691   5.645  18.505  0.00  0.00    +0.000 S 
ENDBRANCH  14  15
ENDBRANCH   3  14
BRANCH   7  20
ATOM     20  C   UNL     1       3.004   2.712  20.861  0.00  0.00    +0.000 C 
BRANCH  20  21
ATOM     21  C   UNL     1       1.490   2.810  20.903  0.00  0.00    +0.000 C 
ATOM     22  C   UNL     1       0.715   3.950  20.270  0.00  0.00    +0.000 C 
ATOM     23  C   UNL     1       0.690   2.593  19.633  0.00  0.00    +0.000 C 
ENDBRANCH  20  21
ENDBRANCH   7  20
TORSDOF 7
ENDMDL
MODEL 7
REMARK VINA RESULT:      -6.3      3.017      6.131
REMARK  Name = 
REMARK  8 active torsions:
REMARK  status: ('A' for Active; 'I' for Inactive)
REMARK    1  A    between atoms: C_1  and  C_2
REMARK    2  A    between atoms: C_2  and  O_3
REMARK    3  A    between atoms: O_3  and  C_4
REMARK    4  A    between atoms: C_4  and  C_5
REMARK    5  A    between atoms: N_7  and  C_8
REMARK    6  A    between atoms: C_8  and  C_9
REMARK    7  A    between atoms: N_17  and  C_18
REMARK    8  A    between atoms: C_18  and  C_19
REMARK                            x       y       z     vdW  Elec       q    Type
REMARK                         _______ _______ _______ _____ _____    ______ ____
ROOT
ATOM      1  C   UNL     1       4.201   6.638  17.929  0.00  0.00    +0.000 C 
ATOM      2  C   UNL     1       4.478   6.602  16.400  0.00  0.00    +0.000 C 
ATOM      3  N   UNL     1       5.139   5.425  15.809  0.00  0.00    +0.000 NA
ATOM      4  C   UNL     1       4.654   4.108  16.299  0.00  0.00    +0.000 C 
ATOM      5  C   UNL     1       4.300   4.101  17.764  0.00  0.00    +0.000 A 
ATOM      6  N   UNL     1       4.013   3.003  18.489  0.00  0.00    +0.000 NA
ATOM      7  N   UNL     1       3.671   3.501  19.704  0.00  0.00    +0.000 N 
ATOM      8  C   UNL     1       3.882   4.845  19.799  0.00  0.00    +0.000 A 
ATOM      9  C   UNL     1       4.127   5.274  18.511  0.00  0.00    +0.000 A 
ENDROOT
BRANCH   1  10
ATOM     10  C   UNL     1       2.880   7.418  18.141  0.00  0.00    +0.000 C 
BRANCH  10  11
ATOM     11  O   UNL     1       2.656   8.510  17.247  0.00  0.00    +0.000 OA
BRANCH  11  13
ATOM     12  C   UNL     1       1.301   9.145  19.090  0.00  0.00    +0.000 C 
ATOM     13  C   UNL     1       2.017   9.632  17.845  0.00  0.00    +0.000 C 
ENDBRANCH  11  13
ENDBRANCH  10  11
ENDBRANCH   1  10
BRANCH   3  14
ATOM     14  C   UNL     1       6.597   5.551  15.662  0.00  0.00    +0.000 C 
BRANCH  14  15
ATOM     15  C   UNL     1       7.281   5.874  16.990  0.00  0.00    +0.000 A 
ATOM     16  N   UNL     1       7.558   4.982  17.926  0.00  0.00    +0.000 NA
ATOM     17  C   UNL     1       8.000   5.618  19.071  0.00  0.00    +0.000 A 
ATOM     18  C   UNL     1       8.127   6.990  18.981  0.00  0.00    +0.000 A 
ATOM     19  S   UNL     1       7.655   7.508  17.413  0.00  0.00    +0.000 S 
ENDBRANCH  14  15
ENDBRANCH   3  14
BRANCH   7  20
ATOM     20  C   UNL     1       3.078   2.651  20.758  0.00  0.00    +0.000 C 
BRANCH  20  21
ATOM     21  C   UNL     1       1.566   2.737  20.853  0.00  0.00    +0.000 C 
ATOM     22  C   UNL     1       0.768   3.911  20.318  0.00  0.00    +0.000 C 
ATOM     23  C   UNL     1       0.727   2.598  19.596  0.00  0.00    +0.000 C 
ENDBRANCH  20  21
ENDBRANCH   7  20
TORSDOF 7
ENDMDL
MODEL 8
REMARK VINA RESULT:      -6.3      4.114      5.968
REMARK  Name = 
REMARK  8 active torsions:
REMARK  status: ('A' for Active; 'I' for Inactive)
REMARK    1  A    between atoms: C_1  and  C_2
REMARK    2  A    between atoms: C_2  and  O_3
REMARK    3  A    between atoms: O_3  and  C_4
REMARK    4  A    between atoms: C_4  and  C_5
REMARK    5  A    between atoms: N_7  and  C_8
REMARK    6  A    between atoms: C_8  and  C_9
REMARK    7  A    between atoms: N_17  and  C_18
REMARK    8  A    between atoms: C_18  and  C_19
REMARK                            x       y       z     vdW  Elec       q    Type
REMARK                         _______ _______ _______ _____ _____    ______ ____
ROOT
ATOM      1  C   UNL     1       2.560   5.324  20.239  0.00  0.00    +0.000 C 
ATOM      2  C   UNL     1       1.340   6.149  20.737  0.00  0.00    +0.000 C 
ATOM      3  N   UNL     1       1.312   7.606  20.520  0.00  0.00    +0.000 NA
ATOM      4  C   UNL     1       1.756   8.060  19.176  0.00  0.00    +0.000 C 
ATOM      5  C   UNL     1       2.893   7.248  18.608  0.00  0.00    +0.000 A 
ATOM      6  N   UNL     1       3.592   7.559  17.501  0.00  0.00    +0.000 NA
ATOM      7  N   UNL     1       4.428   6.501  17.341  0.00  0.00    +0.000 N 
ATOM      8  C   UNL     1       4.375   5.628  18.388  0.00  0.00    +0.000 A 
ATOM      9  C   UNL     1       3.274   6.004  19.129  0.00  0.00    +0.000 A 
ENDROOT
BRANCH   1  10
ATOM     10  C   UNL     1       2.032   3.934  19.806  0.00  0.00    +0.000 C 
BRANCH  10  11
ATOM     11  O   UNL     1       2.870   2.825  20.132  0.00  0.00    +0.000 OA
BRANCH  11  13
ATOM     12  C   UNL     1       2.379   2.380  17.853  0.00  0.00    +0.000 C 
ATOM     13  C   UNL     1       3.318   2.079  19.005  0.00  0.00    +0.000 C 
ENDBRANCH  11  13
ENDBRANCH  10  11
ENDBRANCH   1  10
BRANCH   3  14
ATOM     14  C   UNL     1       1.804   8.403  21.654  0.00  0.00    +0.000 C 
BRANCH  14  15
ATOM     15  C   UNL     1       0.792   9.461  22.094  0.00  0.00    +0.000 A 
ATOM     16  N   UNL     1      -0.004   9.345  23.142  0.00  0.00    +0.000 NA
ATOM     17  C   UNL     1      -0.923  10.378  23.157  0.00  0.00    +0.000 A 
ATOM     18  C   UNL     1      -0.779  11.319  22.158  0.00  0.00    +0.000 A 
ATOM     19  S   UNL     1       0.541  10.886  21.148  0.00  0.00    +0.000 S 
ENDBRANCH  14  15
ENDBRANCH   3  14
BRANCH   7  20
ATOM     20  C   UNL     1       5.241   6.326  16.120  0.00  0.00    +0.000 C 
BRANCH  20  21
ATOM     21  C   UNL     1       5.331   4.892  15.630  0.00  0.00    +0.000 C 
ATOM     22  C   UNL     1       6.078   4.491  14.373  0.00  0.00    +0.000 C 
ATOM     23  C   UNL     1       6.653   4.153  15.716  0.00  0.00    +0.000 C 
ENDBRANCH  20  21
ENDBRANCH   7  20
TORSDOF 7
ENDMDL
MODEL 9
REMARK VINA RESULT:      -6.2      0.930      1.103
REMARK  Name = 
REMARK  8 active torsions:
REMARK  status: ('A' for Active; 'I' for Inactive)
REMARK    1  A    between atoms: C_1  and  C_2
REMARK    2  A    between atoms: C_2  and  O_3
REMARK    3  A    between atoms: O_3  and  C_4
REMARK    4  A    between atoms: C_4  and  C_5
REMARK    5  A    between atoms: N_7  and  C_8
REMARK    6  A    between atoms: C_8  and  C_9
REMARK    7  A    between atoms: N_17  and  C_18
REMARK    8  A    between atoms: C_18  and  C_19
REMARK                            x       y       z     vdW  Elec       q    Type
REMARK                         _______ _______ _______ _____ _____    ______ ____
ROOT
ATOM      1  C   UNL     1       6.080   6.619  17.161  0.00  0.00    +0.000 C 
ATOM      2  C   UNL     1       5.570   6.161  18.556  0.00  0.00    +0.000 C 
ATOM      3  N   UNL     1       4.625   5.034  18.650  0.00  0.00    +0.000 NA
ATOM      4  C   UNL     1       4.934   3.868  17.780  0.00  0.00    +0.000 C 
ATOM      5  C   UNL     1       5.502   4.250  16.436  0.00  0.00    +0.000 A 
ATOM      6  N   UNL     1       5.694   3.405  15.406  0.00  0.00    +0.000 NA
ATOM      7  N   UNL     1       6.302   4.176  14.468  0.00  0.00    +0.000 N 
ATOM      8  C   UNL     1       6.353   5.492  14.823  0.00  0.00    +0.000 A 
ATOM      9  C   UNL     1       5.995   5.531  16.155  0.00  0.00    +0.000 A 
ENDROOT
BRANCH   1  10
ATOM     10  C   UNL     1       7.535   7.114  17.341  0.00  0.00    +0.000 C 
BRANCH  10  11
ATOM     11  O   UNL     1       7.711   8.532  17.346  0.00  0.00    +0.000 OA
BRANCH  11  13
ATOM     12  C   UNL     1       8.865  10.457  18.119  0.00  0.00    +0.000 C 
ATOM     13  C   UNL     1       8.492   9.020  18.432  0.00  0.00    +0.000 C 
ENDBRANCH  11  13
ENDBRANCH  10  11
ENDBRANCH   1  10
BRANCH   3  14
ATOM     14  C   UNL     1       3.209   5.425  18.707  0.00  0.00    +0.000 C 
BRANCH  14  15
ATOM     15  C   UNL     1       2.339   4.341  19.341  0.00  0.00    +0.000 A 
ATOM     16  N   UNL     1       1.470   3.596  18.679  0.00  0.00    +0.000 NA
ATOM     17  C   UNL     1       0.715   2.849  19.564  0.00  0.00    +0.000 A 
ATOM     18  C   UNL     1       1.058   2.972  20.895  0.00  0.00    +0.000 A 
ATOM     19  S   UNL     1       2.361   4.081  21.050  0.00  0.00    +0.000 S 
ENDBRANCH  14  15
ENDBRANCH   3  14
BRANCH   7  20
ATOM     20  C   UNL     1       6.886   3.597  13.241  0.00  0.00    +0.000 C 
BRANCH  20  21
ATOM     21  C   UNL     1       5.970   3.646  12.031  0.00  0.00    +0.000 C 
ATOM     22  C   UNL     1       5.372   2.406  11.394  0.00  0.00    +0.000 C 
ATOM     23  C   UNL     1       4.497   3.323  12.194  0.00  0.00    +0.000 C 
ENDBRANCH  20  21
ENDBRANCH   7  20
TORSDOF 7
ENDMDL
