MODEL 1
REMARK VINA RESULT:      -6.5      0.000      0.000
REMARK  Name = 
REMARK  12 active torsions:
REMARK  status: ('A' for Active; 'I' for Inactive)
REMARK    1  A    between atoms: C_1  and  N_2
REMARK    2  A    between atoms: C_3  and  C_5
REMARK    3  A    between atoms: C_5  and  C_6
REMARK    4  A    between atoms: C_5  and  N_13
REMARK    5  A    between atoms: C_6  and  C_7
REMARK    6  A    between atoms: C_14  and  C_16
REMARK    7  A    between atoms: C_16  and  C_17
REMARK    8  A    between atoms: C_16  and  N_20
REMARK    9  A    between atoms: C_17  and  S_18
REMARK   10  A    between atoms: S_18  and  C_19
REMARK   11  A    between atoms: C_21  and  C_23
REMARK   12  A    between atoms: C_23  and  S_24
REMARK                            x       y       z     vdW  Elec       q    Type
REMARK                         _______ _______ _______ _____ _____    ______ ____
ROOT
ATOM      1  N   UNL     1       4.981   6.131  18.028  0.00  0.00    +0.000 N 
ATOM      2  C   UNL     1       6.067   5.566  18.673  0.00  0.00    +0.000 C 
ATOM      3  O   UNL     1       5.960   5.000  19.760  0.00  0.00    +0.000 OA
ATOM      4  H   UNL     1       5.011   6.198  17.018  0.00  0.00    +0.000 HD
ENDROOT
BRANCH   1   5
ATOM      5  C   UNL     1       3.630   6.064  18.594  0.00  0.00    +0.000 C 
BRANCH   5   8
ATOM      6  C   UNL     1       2.482   2.572  19.624  0.00  0.00    +0.000 C 
ATOM      7  N   UNL     1       3.096   3.873  19.553  0.00  0.00    +0.000 N 
ATOM      8  C   UNL     1       2.976   4.675  18.429  0.00  0.00    +0.000 C 
ATOM      9  O   UNL     1       2.349   4.337  17.427  0.00  0.00    +0.000 OA
ATOM     10  H   UNL     1       3.792   4.110  20.249  0.00  0.00    +0.000 HD
ENDBRANCH   5   8
BRANCH   5  11
ATOM     11  C   UNL     1       2.716   7.159  17.998  0.00  0.00    +0.000 C 
BRANCH  11  12
ATOM     12  C   UNL     1       1.992   8.022  19.009  0.00  0.00    +0.000 A 
ATOM     13  C   UNL     1       1.864   7.612  20.345  0.00  0.00    +0.000 A 
ATOM     14  C   UNL     1       1.187   8.411  21.272  0.00  0.00    +0.000 A 
ATOM     15  C   UNL     1       0.633   9.624  20.873  0.00  0.00    +0.000 A 
ATOM     16  C   UNL     1       0.758  10.044  19.551  0.00  0.00    +0.000 A 
ATOM     17  C   UNL     1       1.433   9.249  18.624  0.00  0.00    +0.000 A 
ENDBRANCH  11  12
ENDBRANCH   5  11
ENDBRANCH   1   5
BRANCH   2  18
ATOM     18  C   UNL     1       7.448   5.845  18.013  0.00  0.00    +0.000 C 
BRANCH  18  19
ATOM     19  N   UNL     1       7.332   5.939  16.553  0.00  0.00    +0.000 N 
ATOM     20  C   UNL     1       6.899   4.874  15.791  0.00  0.00    +0.000 C 
ATOM     21  O   UNL     1       6.542   3.811  16.295  0.00  0.00    +0.000 OA
ATOM     22  H   UNL     1       7.778   6.735  16.117  0.00  0.00    +0.000 HD
BRANCH  20  23
ATOM     23  C   UNL     1       6.965   5.103  14.287  0.00  0.00    +0.000 C 
BRANCH  23  24
ATOM     24  S   UNL     1       6.113   3.784  13.378  0.00  0.00    +0.000 S 
ATOM     25  H   UNL     1       4.931   4.419  13.290  0.00  0.00    +0.000 HD
ENDBRANCH  23  24
ENDBRANCH  20  23
ENDBRANCH  18  19
BRANCH  18  26
ATOM     26  C   UNL     1       8.190   7.064  18.582  0.00  0.00    +0.000 C 
BRANCH  26  27
ATOM     27  S   UNL     1       7.821   8.605  17.666  0.00  0.00    +0.000 S 
ATOM     28  C   UNL     1       8.845   9.740  18.632  0.00  0.00    +0.000 C 
ENDBRANCH  26  27
ENDBRANCH  18  26
ENDBRANCH   2  18
TORSDOF 10
ENDMDL
MODEL 2
REMARK VINA RESULT:      -6.5      2.700      7.418
REMARK  Name = 
REMARK  12 active torsions:
REMARK  status: ('A' for Active; 'I' for Inactive)
REMARK    1  A    between atoms: C_1  and  N_2
REMARK    2  A    between atoms: C_3  and  C_5
REMARK    3  A    between atoms: C_5  and  C_6
REMARK    4  A    between atoms: C_5  and  N_13
REMARK    5  A    between atoms: C_6  and  C_7
REMARK    6  A    between atoms: C_14  and  C_16
REMARK    7  A    between atoms: C_16  and  C_17
REMARK    8  A    between atoms: C_16  and  N_20
REMARK    9  A    between atoms: C_17  and  S_18
REMARK   10  A    between atoms: S_18  and  C_19
REMARK   11  A    between atoms: C_21  and  C_23
REMARK   12  A    between atoms: C_23  and  S_24
REMARK                            x       y       z     vdW  Elec       q    Type
REMARK                         _______ _______ _______ _____ _____    ______ ____
ROOT
ATOM      1  N   UNL     1       4.645   4.954  17.366  0.00  0.00    +0.000 N 
ATOM      2  C   UNL     1       3.786   3.956  17.787  0.00  0.00    +0.000 C 
ATOM      3  O   UNL     1       3.960   2.775  17.490  0.00  0.00    +0.000 OA
ATOM      4  H   UNL     1       4.723   5.786  17.938  0.00  0.00    +0.000 HD
ENDROOT
BRANCH   1   5
ATOM      5  C   UNL     1       5.832   4.657  16.557  0.00  0.00    +0.000 C 
BRANCH   5   8
ATOM      6  C   UNL     1       8.178   5.918  19.291  0.00  0.00    +0.000 C 
ATOM      7  N   UNL     1       7.077   5.710  18.386  0.00  0.00    +0.000 N 
ATOM      8  C   UNL     1       7.150   4.791  17.351  0.00  0.00    +0.000 C 
ATOM      9  O   UNL     1       8.143   4.102  17.133  0.00  0.00    +0.000 OA
ATOM     10  H   UNL     1       6.328   6.390  18.384  0.00  0.00    +0.000 HD
ENDBRANCH   5   8
BRANCH   5  11
ATOM     11  C   UNL     1       5.882   5.538  15.288  0.00  0.00    +0.000 C 
BRANCH  11  12
ATOM     12  C   UNL     1       6.183   4.803  13.999  0.00  0.00    +0.000 A 
ATOM     13  C   UNL     1       5.315   3.814  13.514  0.00  0.00    +0.000 A 
ATOM     14  C   UNL     1       5.604   3.133  12.328  0.00  0.00    +0.000 A 
ATOM     15  C   UNL     1       6.761   3.435  11.615  0.00  0.00    +0.000 A 
ATOM     16  C   UNL     1       7.629   4.419  12.084  0.00  0.00    +0.000 A 
ATOM     17  C   UNL     1       7.342   5.100  13.268  0.00  0.00    +0.000 A 
ENDBRANCH  11  12
ENDBRANCH   5  11
ENDBRANCH   1   5
BRANCH   2  18
ATOM     18  C   UNL     1       2.502   4.450  18.516  0.00  0.00    +0.000 C 
BRANCH  18  19
ATOM     19  N   UNL     1       2.436   5.916  18.543  0.00  0.00    +0.000 N 
ATOM     20  C   UNL     1       2.077   6.602  19.685  0.00  0.00    +0.000 C 
ATOM     21  O   UNL     1       1.842   6.030  20.747  0.00  0.00    +0.000 OA
ATOM     22  H   UNL     1       2.457   6.384  17.648  0.00  0.00    +0.000 HD
BRANCH  20  23
ATOM     23  C   UNL     1       1.932   8.107  19.499  0.00  0.00    +0.000 C 
BRANCH  23  24
ATOM     24  S   UNL     1       2.195   8.589  17.768  0.00  0.00    +0.000 S 
ATOM     25  H   UNL     1       1.277   7.752  17.253  0.00  0.00    +0.000 HD
ENDBRANCH  23  24
ENDBRANCH  20  23
ENDBRANCH  18  19
BRANCH  18  26
ATOM     26  C   UNL     1       1.195   3.854  17.973  0.00  0.00    +0.000 C 
BRANCH  26  27
ATOM     27  S   UNL     1       0.666   2.360  18.889  0.00  0.00    +0.000 S 
ATOM     28  C   UNL     1       1.888   2.418  20.220  0.00  0.00    +0.000 C 
ENDBRANCH  26  27
ENDBRANCH  18  26
ENDBRANCH   2  18
TORSDOF 10
ENDMDL
MODEL 3
REMARK VINA RESULT:      -6.4      1.820      4.634
REMARK  Name = 
REMARK  12 active torsions:
REMARK  status: ('A' for Active; 'I' for Inactive)
REMARK    1  A    between atoms: C_1  and  N_2
REMARK    2  A    between atoms: C_3  and  C_5
REMARK    3  A    between atoms: C_5  and  C_6
REMARK    4  A    between atoms: C_5  and  N_13
REMARK    5  A    between atoms: C_6  and  C_7
REMARK    6  A    between atoms: C_14  and  C_16
REMARK    7  A    between atoms: C_16  and  C_17
REMARK    8  A    between atoms: C_16  and  N_20
REMARK    9  A    between atoms: C_17  and  S_18
REMARK   10  A    between atoms: S_18  and  C_19
REMARK   11  A    between atoms: C_21  and  C_23
REMARK   12  A    between atoms: C_23  and  S_24
REMARK                            x       y       z     vdW  Elec       q    Type
REMARK                         _______ _______ _______ _____ _____    ______ ____
ROOT
ATOM      1  N   UNL     1       4.210   6.713  17.229  0.00  0.00    +0.000 N 
ATOM      2  C   UNL     1       4.698   5.585  16.595  0.00  0.00    +0.000 C 
ATOM      3  O   UNL     1       4.162   4.484  16.715  0.00  0.00    +0.000 OA
ATOM      4  H   UNL     1       4.390   7.613  16.802  0.00  0.00    +0.000 HD
ENDROOT
BRANCH   1   5
ATOM      5  C   UNL     1       3.005   6.666  18.064  0.00  0.00    +0.000 C 
BRANCH   5   8
ATOM      6  C   UNL     1       1.079   9.500  19.745  0.00  0.00    +0.000 C 
ATOM      7  N   UNL     1       1.718   8.252  19.417  0.00  0.00    +0.000 N 
ATOM      8  C   UNL     1       2.296   8.033  18.176  0.00  0.00    +0.000 C 
ATOM      9  O   UNL     1       2.301   8.873  17.281  0.00  0.00    +0.000 OA
ATOM     10  H   UNL     1       1.556   7.461  20.027  0.00  0.00    +0.000 HD
ENDBRANCH   5   8
BRANCH   5  11
ATOM     11  C   UNL     1       3.319   6.110  19.472  0.00  0.00    +0.000 C 
BRANCH  11  12
ATOM     12  C   UNL     1       2.524   4.887  19.879  0.00  0.00    +0.000 A 
ATOM     13  C   UNL     1       2.585   4.392  21.191  0.00  0.00    +0.000 A 
ATOM     14  C   UNL     1       1.854   3.258  21.557  0.00  0.00    +0.000 A 
ATOM     15  C   UNL     1       1.056   2.610  20.619  0.00  0.00    +0.000 A 
ATOM     16  C   UNL     1       0.983   3.095  19.315  0.00  0.00    +0.000 A 
ATOM     17  C   UNL     1       1.711   4.227  18.946  0.00  0.00    +0.000 A 
ENDBRANCH  11  12
ENDBRANCH   5  11
ENDBRANCH   1   5
BRANCH   2  18
ATOM     18  C   UNL     1       6.058   5.773  15.864  0.00  0.00    +0.000 C 
BRANCH  18  19
ATOM     19  N   UNL     1       6.985   6.584  16.661  0.00  0.00    +0.000 N 
ATOM     20  C   UNL     1       7.346   6.221  17.942  0.00  0.00    +0.000 C 
ATOM     21  O   UNL     1       6.953   5.180  18.463  0.00  0.00    +0.000 OA
ATOM     22  H   UNL     1       7.177   7.515  16.317  0.00  0.00    +0.000 HD
BRANCH  20  23
ATOM     23  C   UNL     1       8.210   7.243  18.669  0.00  0.00    +0.000 C 
BRANCH  23  24
ATOM     24  S   UNL     1       8.100   8.878  17.889  0.00  0.00    +0.000 S 
ATOM     25  H   UNL     1       9.200   9.383  18.474  0.00  0.00    +0.000 HD
ENDBRANCH  23  24
ENDBRANCH  20  23
ENDBRANCH  18  19
BRANCH  18  26
ATOM     26  C   UNL     1       6.724   4.463  15.416  0.00  0.00    +0.000 C 
BRANCH  26  27
ATOM     27  S   UNL     1       6.239   3.967  13.722  0.00  0.00    +0.000 S 
ATOM     28  C   UNL     1       7.503   4.879  12.805  0.00  0.00    +0.000 C 
ENDBRANCH  26  27
ENDBRANCH  18  26
ENDBRANCH   2  18
TORSDOF 10
ENDMDL
MODEL 4
REMARK VINA RESULT:      -6.3      4.001      7.330
REMARK  Name = 
REMARK  12 active torsions:
REMARK  status: ('A' for Active; 'I' for Inactive)
REMARK    1  A    between atoms: C_1  and  N_2
REMARK    2  A    between atoms: C_3  and  C_5
REMARK    3  A    between atoms: C_5  and  C_6
REMARK    4  A    between atoms: C_5  and  N_13
REMARK    5  A    between atoms: C_6  and  C_7
REMARK    6  A    between atoms: C_14  and  C_16
REMARK    7  A    between atoms: C_16  and  C_17
REMARK    8  A    between atoms: C_16  and  N_20
REMARK    9  A    between atoms: C_17  and  S_18
REMARK   10  A    between atoms: S_18  and  C_19
REMARK   11  A    between atoms: C_21  and  C_23
REMARK   12  A    between atoms: C_23  and  S_24
REMARK                            x       y       z     vdW  Elec       q    Type
REMARK                         _______ _______ _______ _____ _____    ______ ____
ROOT
ATOM      1  N   UNL     1       2.167   6.937  19.205  0.00  0.00    +0.000 N 
ATOM      2  C   UNL     1       1.959   8.215  18.718  0.00  0.00    +0.000 C 
ATOM      3  O   UNL     1       2.286   8.542  17.579  0.00  0.00    +0.000 OA
ATOM      4  H   UNL     1       1.545   6.597  19.928  0.00  0.00    +0.000 HD
ENDROOT
BRANCH   1   5
ATOM      5  C   UNL     1       2.769   5.887  18.376  0.00  0.00    +0.000 C 
BRANCH   5   8
ATOM      6  C   UNL     1       1.145   2.709  19.729  0.00  0.00    +0.000 C 
ATOM      7  N   UNL     1       1.934   3.899  19.539  0.00  0.00    +0.000 N 
ATOM      8  C   UNL     1       1.928   4.593  18.339  0.00  0.00    +0.000 C 
ATOM      9  O   UNL     1       1.262   4.247  17.367  0.00  0.00    +0.000 OA
ATOM     10  H   UNL     1       2.655   4.105  20.218  0.00  0.00    +0.000 HD
ENDBRANCH   5   8
BRANCH   5  11
ATOM     11  C   UNL     1       4.213   5.572  18.830  0.00  0.00    +0.000 C 
BRANCH  11  12
ATOM     12  C   UNL     1       5.202   5.311  17.713  0.00  0.00    +0.000 A 
ATOM     13  C   UNL     1       4.877   5.604  16.381  0.00  0.00    +0.000 A 
ATOM     14  C   UNL     1       5.792   5.352  15.354  0.00  0.00    +0.000 A 
ATOM     15  C   UNL     1       7.038   4.807  15.649  0.00  0.00    +0.000 A 
ATOM     16  C   UNL     1       7.374   4.516  16.969  0.00  0.00    +0.000 A 
ATOM     17  C   UNL     1       6.463   4.767  17.996  0.00  0.00    +0.000 A 
ENDBRANCH  11  12
ENDBRANCH   5  11
ENDBRANCH   1   5
BRANCH   2  18
ATOM     18  C   UNL     1       1.442   9.245  19.764  0.00  0.00    +0.000 C 
BRANCH  18  19
ATOM     19  N   UNL     1       0.203   9.889  19.311  0.00  0.00    +0.000 N 
ATOM     20  C   UNL     1       0.179  11.207  18.907  0.00  0.00    +0.000 C 
ATOM     21  O   UNL     1       1.195  11.896  18.857  0.00  0.00    +0.000 OA
ATOM     22  H   UNL     1      -0.657   9.395  19.507  0.00  0.00    +0.000 HD
BRANCH  20  23
ATOM     23  C   UNL     1      -1.211  11.747  18.596  0.00  0.00    +0.000 C 
BRANCH  23  24
ATOM     24  S   UNL     1      -2.021  12.391  20.088  0.00  0.00    +0.000 S 
ATOM     25  H   UNL     1      -2.943  13.121  19.438  0.00  0.00    +0.000 HD
ENDBRANCH  23  24
ENDBRANCH  20  23
ENDBRANCH  18  19
BRANCH  18  26
ATOM     26  C   UNL     1       1.278   8.682  21.183  0.00  0.00    +0.000 C 
BRANCH  26  27
ATOM     27  S   UNL     1      -0.459   8.711  21.758  0.00  0.00    +0.000 S 
ATOM     28  C   UNL     1      -0.247   9.788  23.194  0.00  0.00    +0.000 C 
ENDBRANCH  26  27
ENDBRANCH  18  26
ENDBRANCH   2  18
TORSDOF 10
ENDMDL
MODEL 5
REMARK VINA RESULT:      -6.3      3.977      7.018
REMARK  Name = 
REMARK  12 active torsions:
REMARK  status: ('A' for Active; 'I' for Inactive)
REMARK    1  A    between atoms: C_1  and  N_2
REMARK    2  A    between atoms: C_3  and  C_5
REMARK    3  A    between atoms: C_5  and  C_6
REMARK    4  A    between atoms: C_5  and  N_13
REMARK    5  A    between atoms: C_6  and  C_7
REMARK    6  A    between atoms: C_14  and  C_16
REMARK    7  A    between atoms: C_16  and  C_17
REMARK    8  A    between atoms: C_16  and  N_20
REMARK    9  A    between atoms: C_17  and  S_18
REMARK   10  A    between atoms: S_18  and  C_19
REMARK   11  A    between atoms: C_21  and  C_23
REMARK   12  A    between atoms: C_23  and  S_24
REMARK                            x       y       z     vdW  Elec       q    Type
REMARK                         _______ _______ _______ _____ _____    ______ ____
ROOT
ATOM      1  N   UNL     1       2.386   6.740  19.880  0.00  0.00    +0.000 N 
ATOM      2  C   UNL     1       2.000   7.881  19.200  0.00  0.00    +0.000 C 
ATOM      3  O   UNL     1       2.139   7.995  17.983  0.00  0.00    +0.000 OA
ATOM      4  H   UNL     1       1.901   6.512  20.739  0.00  0.00    +0.000 HD
ENDROOT
BRANCH   1   5
ATOM      5  C   UNL     1       2.964   5.586  19.181  0.00  0.00    +0.000 C 
BRANCH   5   8
ATOM      6  C   UNL     1       0.835   2.436  18.855  0.00  0.00    +0.000 C 
ATOM      7  N   UNL     1       1.461   3.720  18.672  0.00  0.00    +0.000 N 
ATOM      8  C   UNL     1       2.334   4.244  19.613  0.00  0.00    +0.000 C 
ATOM      9  O   UNL     1       2.629   3.662  20.654  0.00  0.00    +0.000 OA
ATOM     10  H   UNL     1       1.095   4.329  17.952  0.00  0.00    +0.000 HD
ENDBRANCH   5   8
BRANCH   5  11
ATOM     11  C   UNL     1       4.499   5.536  19.355  0.00  0.00    +0.000 C 
BRANCH  11  12
ATOM     12  C   UNL     1       5.290   5.347  18.078  0.00  0.00    +0.000 A 
ATOM     13  C   UNL     1       6.572   4.776  18.103  0.00  0.00    +0.000 A 
ATOM     14  C   UNL     1       7.300   4.612  16.920  0.00  0.00    +0.000 A 
ATOM     15  C   UNL     1       6.755   5.016  15.705  0.00  0.00    +0.000 A 
ATOM     16  C   UNL     1       5.482   5.580  15.667  0.00  0.00    +0.000 A 
ATOM     17  C   UNL     1       4.753   5.744  16.845  0.00  0.00    +0.000 A 
ENDBRANCH  11  12
ENDBRANCH   5  11
ENDBRANCH   1   5
BRANCH   2  18
ATOM     18  C   UNL     1       1.537   9.063  20.099  0.00  0.00    +0.000 C 
BRANCH  18  19
ATOM     19  N   UNL     1       0.353   9.727  19.540  0.00  0.00    +0.000 N 
ATOM     20  C   UNL     1       0.445  10.937  18.884  0.00  0.00    +0.000 C 
ATOM     21  O   UNL     1       1.521  11.497  18.691  0.00  0.00    +0.000 OA
ATOM     22  H   UNL     1      -0.544   9.370  19.837  0.00  0.00    +0.000 HD
BRANCH  20  23
ATOM     23  C   UNL     1      -0.895  11.543  18.486  0.00  0.00    +0.000 C 
BRANCH  23  24
ATOM     24  S   UNL     1      -1.912  10.354  17.566  0.00  0.00    +0.000 S 
ATOM     25  H   UNL     1      -1.847   9.377  18.487  0.00  0.00    +0.000 HD
ENDBRANCH  23  24
ENDBRANCH  20  23
ENDBRANCH  18  19
BRANCH  18  26
ATOM     26  C   UNL     1       1.310   8.689  21.572  0.00  0.00    +0.000 C 
BRANCH  26  27
ATOM     27  S   UNL     1      -0.464   8.623  22.017  0.00  0.00    +0.000 S 
ATOM     28  C   UNL     1      -0.513  10.045  23.132  0.00  0.00    +0.000 C 
ENDBRANCH  26  27
ENDBRANCH  18  26
ENDBRANCH   2  18
TORSDOF 10
ENDMDL
MODEL 6
REMARK VINA RESULT:      -6.2      4.068      7.148
REMARK  Name = 
REMARK  12 active torsions:
REMARK  status: ('A' for Active; 'I' for Inactive)
REMARK    1  A    between atoms: C_1  and  N_2
REMARK    2  A    between atoms: C_3  and  C_5
REMARK    3  A    between atoms: C_5  and  C_6
REMARK    4  A    between atoms: C_5  and  N_13
REMARK    5  A    between atoms: C_6  and  C_7
REMARK    6  A    between atoms: C_14  and  C_16
REMARK    7  A    between atoms: C_16  and  C_17
REMARK    8  A    between atoms: C_16  and  N_20
REMARK    9  A    between atoms: C_17  and  S_18
REMARK   10  A    between atoms: S_18  and  C_19
REMARK   11  A    between atoms: C_21  and  C_23
REMARK   12  A    between atoms: C_23  and  S_24
REMARK                            x       y       z     vdW  Elec       q    Type
REMARK                         _______ _______ _______ _____ _____    ______ ____
ROOT
ATOM      1  N   UNL     1       2.309   8.029  18.172  0.00  0.00    +0.000 N 
ATOM      2  C   UNL     1       1.680   8.703  19.202  0.00  0.00    +0.000 C 
ATOM      3  O   UNL     1       1.649   8.261  20.350  0.00  0.00    +0.000 OA
ATOM      4  H   UNL     1       2.671   8.573  17.399  0.00  0.00    +0.000 HD
ENDROOT
BRANCH   1   5
ATOM      5  C   UNL     1       3.001   6.754  18.396  0.00  0.00    +0.000 C 
BRANCH   5   8
ATOM      6  C   UNL     1       6.595   5.649  17.747  0.00  0.00    +0.000 C 
ATOM      7  N   UNL     1       5.303   5.920  18.321  0.00  0.00    +0.000 N 
ATOM      8  C   UNL     1       4.346   6.659  17.644  0.00  0.00    +0.000 C 
ATOM      9  O   UNL     1       4.530   7.130  16.524  0.00  0.00    +0.000 OA
ATOM     10  H   UNL     1       5.175   5.745  19.310  0.00  0.00    +0.000 HD
ENDBRANCH   5   8
BRANCH   5  11
ATOM     11  C   UNL     1       2.098   5.554  18.030  0.00  0.00    +0.000 C 
BRANCH  11  12
ATOM     12  C   UNL     1       1.896   4.535  19.132  0.00  0.00    +0.000 A 
ATOM     13  C   UNL     1       1.314   3.288  18.861  0.00  0.00    +0.000 A 
ATOM     14  C   UNL     1       1.123   2.355  19.885  0.00  0.00    +0.000 A 
ATOM     15  C   UNL     1       1.512   2.659  21.187  0.00  0.00    +0.000 A 
ATOM     16  C   UNL     1       2.095   3.892  21.467  0.00  0.00    +0.000 A 
ATOM     17  C   UNL     1       2.287   4.825  20.447  0.00  0.00    +0.000 A 
ENDBRANCH  11  12
ENDBRANCH   5  11
ENDBRANCH   1   5
BRANCH   2  18
ATOM     18  C   UNL     1       0.876   9.965  18.775  0.00  0.00    +0.000 C 
BRANCH  18  19
ATOM     19  N   UNL     1       1.767  11.027  18.294  0.00  0.00    +0.000 N 
ATOM     20  C   UNL     1       1.865  12.238  18.946  0.00  0.00    +0.000 C 
ATOM     21  O   UNL     1       1.253  12.474  19.986  0.00  0.00    +0.000 OA
ATOM     22  H   UNL     1       2.138  10.914  17.361  0.00  0.00    +0.000 HD
BRANCH  20  23
ATOM     23  C   UNL     1       2.734  13.269  18.238  0.00  0.00    +0.000 C 
BRANCH  23  24
ATOM     24  S   UNL     1       2.246  14.962  18.677  0.00  0.00    +0.000 S 
ATOM     25  H   UNL     1       2.034  14.708  19.980  0.00  0.00    +0.000 HD
ENDBRANCH  23  24
ENDBRANCH  20  23
ENDBRANCH  18  19
BRANCH  18  26
ATOM     26  C   UNL     1      -0.244   9.690  17.759  0.00  0.00    +0.000 C 
BRANCH  26  27
ATOM     27  S   UNL     1      -1.691  10.786  17.991  0.00  0.00    +0.000 S 
ATOM     28  C   UNL     1      -2.546  10.431  16.438  0.00  0.00    +0.000 C 
ENDBRANCH  26  27
ENDBRANCH  18  26
ENDBRANCH   2  18
TORSDOF 10
ENDMDL
MODEL 7
REMARK VINA RESULT:      -6.2      1.312      1.723
REMARK  Name = 
REMARK  12 active torsions:
REMARK  status: ('A' for Active; 'I' for Inactive)
REMARK    1  A    between atoms: C_1  and  N_2
REMARK    2  A    between atoms: C_3  and  C_5
REMARK    3  A    between atoms: C_5  and  C_6
REMARK    4  A    between atoms: C_5  and  N_13
REMARK    5  A    between atoms: C_6  and  C_7
REMARK    6  A    between atoms: C_14  and  C_16
REMARK    7  A    between atoms: C_16  and  C_17
REMARK    8  A    between atoms: C_16  and  N_20
REMARK    9  A    between atoms: C_17  and  S_18
REMARK   10  A    between atoms: S_18  and  C_19
REMARK   11  A    between atoms: C_21  and  C_23
REMARK   12  A    between atoms: C_23  and  S_24
REMARK                            x       y       z     vdW  Elec       q    Type
REMARK                         _______ _______ _______ _____ _____    ______ ____
ROOT
ATOM      1  N   UNL     1       4.343   5.448  17.573  0.00  0.00    +0.000 N 
ATOM      2  C   UNL     1       5.312   4.596  18.071  0.00  0.00    +0.000 C 
ATOM      3  O   UNL     1       5.228   4.094  19.191  0.00  0.00    +0.000 OA
ATOM      4  H   UNL     1       4.224   5.496  16.568  0.00  0.00    +0.000 HD
ENDROOT
BRANCH   1   5
ATOM      5  C   UNL     1       3.142   5.783  18.345  0.00  0.00    +0.000 C 
BRANCH   5   8
ATOM      6  C   UNL     1       1.029   2.915  19.715  0.00  0.00    +0.000 C 
ATOM      7  N   UNL     1       2.012   3.948  19.510  0.00  0.00    +0.000 N 
ATOM      8  C   UNL     1       2.080   4.663  18.324  0.00  0.00    +0.000 C 
ATOM      9  O   UNL     1       1.322   4.467  17.377  0.00  0.00    +0.000 OA
ATOM     10  H   UNL     1       2.786   4.003  20.159  0.00  0.00    +0.000 HD
ENDBRANCH   5   8
BRANCH   5  11
ATOM     11  C   UNL     1       2.522   7.116  17.868  0.00  0.00    +0.000 C 
BRANCH  11  12
ATOM     12  C   UNL     1       1.920   7.979  18.958  0.00  0.00    +0.000 A 
ATOM     13  C   UNL     1       1.393   9.245  18.665  0.00  0.00    +0.000 A 
ATOM     14  C   UNL     1       0.846  10.039  19.678  0.00  0.00    +0.000 A 
ATOM     15  C   UNL     1       0.821   9.575  20.990  0.00  0.00    +0.000 A 
ATOM     16  C   UNL     1       1.338   8.318  21.292  0.00  0.00    +0.000 A 
ATOM     17  C   UNL     1       1.883   7.523  20.284  0.00  0.00    +0.000 A 
ENDBRANCH  11  12
ENDBRANCH   5  11
ENDBRANCH   1   5
BRANCH   2  18
ATOM     18  C   UNL     1       6.586   4.453  17.189  0.00  0.00    +0.000 C 
BRANCH  18  19
ATOM     19  N   UNL     1       6.283   3.786  15.918  0.00  0.00    +0.000 N 
ATOM     20  C   UNL     1       5.896   4.498  14.802  0.00  0.00    +0.000 C 
ATOM     21  O   UNL     1       5.832   5.725  14.797  0.00  0.00    +0.000 OA
ATOM     22  H   UNL     1       6.165   2.783  15.954  0.00  0.00    +0.000 HD
BRANCH  20  23
ATOM     23  C   UNL     1       5.494   3.638  13.611  0.00  0.00    +0.000 C 
BRANCH  23  24
ATOM     24  S   UNL     1       6.728   3.728  12.283  0.00  0.00    +0.000 S 
ATOM     25  H   UNL     1       6.674   5.063  12.137  0.00  0.00    +0.000 HD
ENDBRANCH  23  24
ENDBRANCH  20  23
ENDBRANCH  18  19
BRANCH  18  26
ATOM     26  C   UNL     1       7.343   5.769  16.950  0.00  0.00    +0.000 C 
BRANCH  26  27
ATOM     27  S   UNL     1       7.787   6.622  18.507  0.00  0.00    +0.000 S 
ATOM     28  C   UNL     1       7.979   8.295  17.850  0.00  0.00    +0.000 C 
ENDBRANCH  26  27
ENDBRANCH  18  26
ENDBRANCH   2  18
TORSDOF 10
ENDMDL
MODEL 8
REMARK VINA RESULT:      -6.1      4.008      7.280
REMARK  Name = 
REMARK  12 active torsions:
REMARK  status: ('A' for Active; 'I' for Inactive)
REMARK    1  A    between atoms: C_1  and  N_2
REMARK    2  A    between atoms: C_3  and  C_5
REMARK    3  A    between atoms: C_5  and  C_6
REMARK    4  A    between atoms: C_5  and  N_13
REMARK    5  A    between atoms: C_6  and  C_7
REMARK    6  A    between atoms: C_14  and  C_16
REMARK    7  A    between atoms: C_16  and  C_17
REMARK    8  A    between atoms: C_16  and  N_20
REMARK    9  A    between atoms: C_17  and  S_18
REMARK   10  A    between atoms: S_18  and  C_19
REMARK   11  A    between atoms: C_21  and  C_23
REMARK   12  A    between atoms: C_23  and  S_24
REMARK                            x       y       z     vdW  Elec       q    Type
REMARK                         _______ _______ _______ _____ _____    ______ ____
ROOT
ATOM      1  N   UNL     1       2.179   6.688  19.772  0.00  0.00    +0.000 N 
ATOM      2  C   UNL     1       1.958   7.908  19.158  0.00  0.00    +0.000 C 
ATOM      3  O   UNL     1       2.358   8.148  18.020  0.00  0.00    +0.000 OA
ATOM      4  H   UNL     1       1.518   6.384  20.476  0.00  0.00    +0.000 HD
ENDROOT
BRANCH   1   5
ATOM      5  C   UNL     1       2.884   5.599  19.088  0.00  0.00    +0.000 C 
BRANCH   5   8
ATOM      6  C   UNL     1       0.841   2.390  18.776  0.00  0.00    +0.000 C 
ATOM      7  N   UNL     1       1.394   3.711  18.621  0.00  0.00    +0.000 N 
ATOM      8  C   UNL     1       2.362   4.201  19.484  0.00  0.00    +0.000 C 
ATOM      9  O   UNL     1       2.807   3.555  20.429  0.00  0.00    +0.000 OA
ATOM     10  H   UNL     1       0.918   4.356  18.003  0.00  0.00    +0.000 HD
ENDBRANCH   5   8
BRANCH   5  11
ATOM     11  C   UNL     1       4.410   5.684  19.320  0.00  0.00    +0.000 C 
BRANCH  11  12
ATOM     12  C   UNL     1       5.268   5.400  18.106  0.00  0.00    +0.000 A 
ATOM     13  C   UNL     1       4.781   5.630  16.810  0.00  0.00    +0.000 A 
ATOM     14  C   UNL     1       5.577   5.357  15.693  0.00  0.00    +0.000 A 
ATOM     15  C   UNL     1       6.864   4.854  15.860  0.00  0.00    +0.000 A 
ATOM     16  C   UNL     1       7.360   4.626  17.141  0.00  0.00    +0.000 A 
ATOM     17  C   UNL     1       6.569   4.898  18.258  0.00  0.00    +0.000 A 
ENDBRANCH  11  12
ENDBRANCH   5  11
ENDBRANCH   1   5
BRANCH   2  18
ATOM     18  C   UNL     1       1.322   9.000  20.065  0.00  0.00    +0.000 C 
BRANCH  18  19
ATOM     19  N   UNL     1       0.474   9.911  19.287  0.00  0.00    +0.000 N 
ATOM     20  C   UNL     1       0.561  11.280  19.432  0.00  0.00    +0.000 C 
ATOM     21  O   UNL     1       1.381  11.809  20.179  0.00  0.00    +0.000 OA
ATOM     22  H   UNL     1      -0.311   9.494  18.806  0.00  0.00    +0.000 HD
BRANCH  20  23
ATOM     23  C   UNL     1      -0.482  12.066  18.647  0.00  0.00    +0.000 C 
BRANCH  23  24
ATOM     24  S   UNL     1      -2.077  12.100  19.513  0.00  0.00    +0.000 S 
ATOM     25  H   UNL     1      -2.297  13.415  19.343  0.00  0.00    +0.000 HD
ENDBRANCH  23  24
ENDBRANCH  20  23
ENDBRANCH  18  19
BRANCH  18  26
ATOM     26  C   UNL     1       0.562   8.452  21.282  0.00  0.00    +0.000 C 
BRANCH  26  27
ATOM     27  S   UNL     1       0.862   9.429  22.800  0.00  0.00    +0.000 S 
ATOM     28  C   UNL     1      -0.728  10.286  22.884  0.00  0.00    +0.000 C 
ENDBRANCH  26  27
ENDBRANCH  18  26
ENDBRANCH   2  18
TORSDOF 10
ENDMDL
MODEL 9
REMARK VINA RESULT:      -6.1      3.967      7.329
REMARK  Name = 
REMARK  12 active torsions:
REMARK  status: ('A' for Active; 'I' for Inactive)
REMARK    1  A    between atoms: C_1  and  N_2
REMARK    2  A    between atoms: C_3  and  C_5
REMARK    3  A    between atoms: C_5  and  C_6
REMARK    4  A    between atoms: C_5  and  N_13
REMARK    5  A    between atoms: C_6  and  C_7
REMARK    6  A    between atoms: C_14  and  C_16
REMARK    7  A    between atoms: C_16  and  C_17
REMARK    8  A    between atoms: C_16  and  N_20
REMARK    9  A    between atoms: C_17  and  S_18
REMARK   10  A    between atoms: S_18  and  C_19
REMARK   11  A    between atoms: C_21  and  C_23
REMARK   12  A    between atoms: C_23  and  S_24
REMARK                            x       y       z     vdW  Elec       q    Type
REMARK                         _______ _______ _______ _____ _____    ______ ____
ROOT
ATOM      1  N   UNL     1       2.300   7.482  18.840  0.00  0.00    +0.000 N 
ATOM      2  C   UNL     1       1.838   8.727  18.454  0.00  0.00    +0.000 C 
ATOM      3  O   UNL     1       2.041   9.180  17.329  0.00  0.00    +0.000 OA
ATOM      4  H   UNL     1       1.788   6.987  19.560  0.00  0.00    +0.000 HD
ENDROOT
BRANCH   1   5
ATOM      5  C   UNL     1       3.041   6.616  17.916  0.00  0.00    +0.000 C 
BRANCH   5   8
ATOM      6  C   UNL     1       3.035   3.522  20.150  0.00  0.00    +0.000 C 
ATOM      7  N   UNL     1       3.172   4.849  19.608  0.00  0.00    +0.000 N 
ATOM      8  C   UNL     1       2.925   5.118  18.270  0.00  0.00    +0.000 C 
ATOM      9  O   UNL     1       2.579   4.257  17.465  0.00  0.00    +0.000 OA
ATOM     10  H   UNL     1       3.655   5.543  20.164  0.00  0.00    +0.000 HD
ENDBRANCH   5   8
BRANCH   5  11
ATOM     11  C   UNL     1       4.528   7.031  17.829  0.00  0.00    +0.000 C 
BRANCH  11  12
ATOM     12  C   UNL     1       5.410   6.113  17.009  0.00  0.00    +0.000 A 
ATOM     13  C   UNL     1       6.471   5.414  17.603  0.00  0.00    +0.000 A 
ATOM     14  C   UNL     1       7.286   4.574  16.838  0.00  0.00    +0.000 A 
ATOM     15  C   UNL     1       7.049   4.425  15.475  0.00  0.00    +0.000 A 
ATOM     16  C   UNL     1       5.996   5.111  14.874  0.00  0.00    +0.000 A 
ATOM     17  C   UNL     1       5.180   5.949  15.635  0.00  0.00    +0.000 A 
ENDBRANCH  11  12
ENDBRANCH   5  11
ENDBRANCH   1   5
BRANCH   2  18
ATOM     18  C   UNL     1       1.195   9.575  19.589  0.00  0.00    +0.000 C 
BRANCH  18  19
ATOM     19  N   UNL     1      -0.175   9.974  19.247  0.00  0.00    +0.000 N 
ATOM     20  C   UNL     1      -0.472  11.251  18.818  0.00  0.00    +0.000 C 
ATOM     21  O   UNL     1       0.397  12.104  18.653  0.00  0.00    +0.000 OA
ATOM     22  H   UNL     1      -0.912   9.345  19.537  0.00  0.00    +0.000 HD
BRANCH  20  23
ATOM     23  C   UNL     1      -1.959  11.527  18.634  0.00  0.00    +0.000 C 
BRANCH  23  24
ATOM     24  S   UNL     1      -2.523  11.037  16.979  0.00  0.00    +0.000 S 
ATOM     25  H   UNL     1      -3.696  10.519  17.383  0.00  0.00    +0.000 HD
ENDBRANCH  23  24
ENDBRANCH  20  23
ENDBRANCH  18  19
BRANCH  18  26
ATOM     26  C   UNL     1       1.242   8.919  20.977  0.00  0.00    +0.000 C 
BRANCH  26  27
ATOM     27  S   UNL     1      -0.422   8.662  21.694  0.00  0.00    +0.000 S 
ATOM     28  C   UNL     1      -0.281   9.782  23.106  0.00  0.00    +0.000 C 
ENDBRANCH  26  27
ENDBRANCH  18  26
ENDBRANCH   2  18
TORSDOF 10
ENDMDL
