MODEL 1
REMARK VINA RESULT:      -7.8      0.000      0.000
REMARK  Name = 
REMARK  9 active torsions:
REMARK  status: ('A' for Active; 'I' for Inactive)
REMARK    1  A    between atoms: C_1  and  O_2
REMARK    2  A    between atoms: O_2  and  C_3
REMARK    3  A    between atoms: C_5  and  C_6
REMARK    4  A    between atoms: C_12  and  C_13
REMARK    5  A    between atoms: C_13  and  C_14
REMARK    6  A    between atoms: C_24  and  O_25
REMARK    7  A    between atoms: O_25  and  C_26
REMARK    8  A    between atoms: C_27  and  O_28
REMARK    9  A    between atoms: O_28  and  C_29
REMARK                            x       y       z     vdW  Elec       q    Type
REMARK                         _______ _______ _______ _____ _____    ______ ____
ROOT
ATOM      1  C   UNL     1       1.995   8.465  17.777  0.00  0.00    +0.000 C 
ATOM      2  C   UNL     1       2.301   7.480  18.638  0.00  0.00    +0.000 C 
ATOM      3  C   UNL     1       1.906   7.406  20.060  0.00  0.00    +0.000 C 
ATOM      4  O   UNL     1       1.541   8.321  20.776  0.00  0.00    +0.000 OA
ATOM      5  O   UNL     1       2.059   6.112  20.458  0.00  0.00    +0.000 OA
ATOM      6  C   UNL     1       2.355   5.292  19.325  0.00  0.00    +0.000 C 
ATOM      7  C   UNL     1       3.019   6.199  18.309  0.00  0.00    +0.000 C 
ENDROOT
BRANCH   1  10
ATOM      8  C   UNL     1      -0.778  10.923  18.509  0.00  0.00    +0.000 A 
ATOM      9  C   UNL     1      -0.086   9.793  18.028  0.00  0.00    +0.000 A 
ATOM     10  C   UNL     1       1.306   9.736  18.035  0.00  0.00    +0.000 A 
ATOM     11  C   UNL     1       2.010  10.870  18.436  0.00  0.00    +0.000 A 
ATOM     12  C   UNL     1       1.343  12.042  18.857  0.00  0.00    +0.000 A 
ATOM     13  C   UNL     1      -0.069  12.077  18.908  0.00  0.00    +0.000 A 
BRANCH   8  15
ATOM     14  C   UNL     1      -2.816  10.461  17.389  0.00  0.00    +0.000 C 
ATOM     15  O   UNL     1      -2.151  10.919  18.567  0.00  0.00    +0.000 OA
ENDBRANCH   8  15
BRANCH  12  16
ATOM     16  O   UNL     1       2.239  13.019  19.214  0.00  0.00    +0.000 OA
ATOM     17  C   UNL     1       2.833  13.827  18.210  0.00  0.00    +0.000 C 
ENDBRANCH  12  16
BRANCH  13  18
ATOM     18  O   UNL     1      -0.631  13.246  19.348  0.00  0.00    +0.000 OA
ATOM     19  C   UNL     1      -0.905  13.452  20.724  0.00  0.00    +0.000 C 
ENDBRANCH  13  18
ENDBRANCH   1  10
BRANCH   7  20
ATOM     20  C   UNL     1       4.562   6.210  18.521  0.00  0.00    +0.000 C 
BRANCH  20  21
ATOM     21  C   UNL     1       5.248   5.259  17.567  0.00  0.00    +0.000 A 
ATOM     22  C   UNL     1       4.567   4.123  17.063  0.00  0.00    +0.000 A 
ATOM     23  C   UNL     1       5.014   3.480  15.906  0.00  0.00    +0.000 A 
ATOM     24  C   UNL     1       6.096   4.037  15.265  0.00  0.00    +0.000 A 
ATOM     25  C   UNL     1       6.821   5.068  15.820  0.00  0.00    +0.000 A 
ATOM     26  C   UNL     1       6.471   5.651  17.010  0.00  0.00    +0.000 A 
ATOM     27  O   UNL     1       7.765   5.549  14.961  0.00  0.00    +0.000 OA
ATOM     28  C   UNL     1       7.254   4.978  13.740  0.00  0.00    +0.000 C 
ATOM     29  O   UNL     1       6.495   3.775  13.986  0.00  0.00    +0.000 OA
ENDBRANCH  20  21
ENDBRANCH   7  20
TORSDOF 6
ENDMDL
MODEL 2
REMARK VINA RESULT:      -7.8      0.513      2.368
REMARK  Name = 
REMARK  9 active torsions:
REMARK  status: ('A' for Active; 'I' for Inactive)
REMARK    1  A    between atoms: C_1  and  O_2
REMARK    2  A    between atoms: O_2  and  C_3
REMARK    3  A    between atoms: C_5  and  C_6
REMARK    4  A    between atoms: C_12  and  C_13
REMARK    5  A    between atoms: C_13  and  C_14
REMARK    6  A    between atoms: C_24  and  O_25
REMARK    7  A    between atoms: O_25  and  C_26
REMARK    8  A    between atoms: C_27  and  O_28
REMARK    9  A    between atoms: O_28  and  C_29
REMARK                            x       y       z     vdW  Elec       q    Type
REMARK                         _______ _______ _______ _____ _____    ______ ____
ROOT
ATOM      1  C   UNL     1       2.003   8.699  17.806  0.00  0.00    +0.000 C 
ATOM      2  C   UNL     1       2.352   7.639  18.552  0.00  0.00    +0.000 C 
ATOM      3  C   UNL     1       2.014   7.419  19.974  0.00  0.00    +0.000 C 
ATOM      4  O   UNL     1       1.670   8.254  20.791  0.00  0.00    +0.000 OA
ATOM      5  O   UNL     1       2.196   6.094  20.236  0.00  0.00    +0.000 OA
ATOM      6  C   UNL     1       2.453   5.394  19.016  0.00  0.00    +0.000 C 
ATOM      7  C   UNL     1       3.069   6.406  18.070  0.00  0.00    +0.000 C 
ENDROOT
BRANCH   1  10
ATOM      8  C   UNL     1       1.407  12.337  18.631  0.00  0.00    +0.000 A 
ATOM      9  C   UNL     1       2.041  11.087  18.480  0.00  0.00    +0.000 A 
ATOM     10  C   UNL     1       1.313   9.930  18.215  0.00  0.00    +0.000 A 
ATOM     11  C   UNL     1      -0.078  10.014  18.204  0.00  0.00    +0.000 A 
ATOM     12  C   UNL     1      -0.745  11.240  18.423  0.00  0.00    +0.000 A 
ATOM     13  C   UNL     1      -0.003  12.426  18.629  0.00  0.00    +0.000 A 
BRANCH   8  15
ATOM     14  C   UNL     1       2.674  13.672  20.125  0.00  0.00    +0.000 C 
ATOM     15  O   UNL     1       2.156  13.475  18.808  0.00  0.00    +0.000 OA
ENDBRANCH   8  15
BRANCH  12  16
ATOM     16  O   UNL     1      -2.106  11.081  18.354  0.00  0.00    +0.000 OA
ATOM     17  C   UNL     1      -2.748  11.061  17.089  0.00  0.00    +0.000 C 
ENDBRANCH  12  16
BRANCH  13  18
ATOM     18  O   UNL     1      -0.730  13.572  18.811  0.00  0.00    +0.000 OA
ATOM     19  C   UNL     1      -1.112  13.995  20.110  0.00  0.00    +0.000 C 
ENDBRANCH  13  18
ENDBRANCH   1  10
BRANCH   7  20
ATOM     20  C   UNL     1       4.618   6.416  18.223  0.00  0.00    +0.000 C 
BRANCH  20  21
ATOM     21  C   UNL     1       5.262   5.411  17.294  0.00  0.00    +0.000 A 
ATOM     22  C   UNL     1       4.524   4.309  16.798  0.00  0.00    +0.000 A 
ATOM     23  C   UNL     1       4.950   3.621  15.658  0.00  0.00    +0.000 A 
ATOM     24  C   UNL     1       6.071   4.105  15.024  0.00  0.00    +0.000 A 
ATOM     25  C   UNL     1       6.846   5.102  15.573  0.00  0.00    +0.000 A 
ATOM     26  C   UNL     1       6.513   5.724  16.748  0.00  0.00    +0.000 A 
ATOM     27  O   UNL     1       7.826   5.514  14.720  0.00  0.00    +0.000 OA
ATOM     28  C   UNL     1       7.300   4.954  13.501  0.00  0.00    +0.000 C 
ATOM     29  O   UNL     1       6.471   3.800  13.756  0.00  0.00    +0.000 OA
ENDBRANCH  20  21
ENDBRANCH   7  20
TORSDOF 6
ENDMDL
MODEL 3
REMARK VINA RESULT:      -7.7      0.887      1.378
REMARK  Name = 
REMARK  9 active torsions:
REMARK  status: ('A' for Active; 'I' for Inactive)
REMARK    1  A    between atoms: C_1  and  O_2
REMARK    2  A    between atoms: O_2  and  C_3
REMARK    3  A    between atoms: C_5  and  C_6
REMARK    4  A    between atoms: C_12  and  C_13
REMARK    5  A    between atoms: C_13  and  C_14
REMARK    6  A    between atoms: C_24  and  O_25
REMARK    7  A    between atoms: O_25  and  C_26
REMARK    8  A    between atoms: C_27  and  O_28
REMARK    9  A    between atoms: O_28  and  C_29
REMARK                            x       y       z     vdW  Elec       q    Type
REMARK                         _______ _______ _______ _____ _____    ______ ____
ROOT
ATOM      1  C   UNL     1       1.968   8.226  18.020  0.00  0.00    +0.000 C 
ATOM      2  C   UNL     1       2.144   7.310  18.986  0.00  0.00    +0.000 C 
ATOM      3  C   UNL     1       1.648   7.398  20.376  0.00  0.00    +0.000 C 
ATOM      4  O   UNL     1       1.302   8.399  20.978  0.00  0.00    +0.000 OA
ATOM      5  O   UNL     1       1.682   6.140  20.901  0.00  0.00    +0.000 OA
ATOM      6  C   UNL     1       1.994   5.199  19.871  0.00  0.00    +0.000 C 
ATOM      7  C   UNL     1       2.789   5.959  18.829  0.00  0.00    +0.000 C 
ENDROOT
BRANCH   1  10
ATOM      8  C   UNL     1      -0.661  10.916  18.366  0.00  0.00    +0.000 A 
ATOM      9  C   UNL     1      -0.029   9.699  18.040  0.00  0.00    +0.000 A 
ATOM     10  C   UNL     1       1.355   9.558  18.109  0.00  0.00    +0.000 A 
ATOM     11  C   UNL     1       2.118  10.684  18.413  0.00  0.00    +0.000 A 
ATOM     12  C   UNL     1       1.516  11.935  18.676  0.00  0.00    +0.000 A 
ATOM     13  C   UNL     1       0.108  12.061  18.666  0.00  0.00    +0.000 A 
BRANCH   8  15
ATOM     14  C   UNL     1      -2.655  10.956  17.084  0.00  0.00    +0.000 C 
ATOM     15  O   UNL     1      -2.033  11.002  18.369  0.00  0.00    +0.000 OA
ENDBRANCH   8  15
BRANCH  12  16
ATOM     16  O   UNL     1       2.461  12.888  18.961  0.00  0.00    +0.000 OA
ATOM     17  C   UNL     1       2.578  13.388  20.283  0.00  0.00    +0.000 C 
ENDBRANCH  12  16
BRANCH  13  18
ATOM     18  O   UNL     1      -0.391  13.304  18.953  0.00  0.00    +0.000 OA
ATOM     19  C   UNL     1      -1.092  13.548  20.161  0.00  0.00    +0.000 C 
ENDBRANCH  13  18
ENDBRANCH   1  10
BRANCH   7  20
ATOM     20  C   UNL     1       4.311   5.891  19.154  0.00  0.00    +0.000 C 
BRANCH  20  21
ATOM     21  C   UNL     1       5.141   6.102  17.908  0.00  0.00    +0.000 A 
ATOM     22  C   UNL     1       6.502   6.486  18.002  0.00  0.00    +0.000 A 
ATOM     23  C   UNL     1       7.373   6.293  16.926  0.00  0.00    +0.000 A 
ATOM     24  C   UNL     1       6.857   5.668  15.815  0.00  0.00    +0.000 A 
ATOM     25  C   UNL     1       5.512   5.403  15.686  0.00  0.00    +0.000 A 
ATOM     26  C   UNL     1       4.613   5.679  16.682  0.00  0.00    +0.000 A 
ATOM     27  O   UNL     1       5.242   4.667  14.570  0.00  0.00    +0.000 OA
ATOM     28  C   UNL     1       6.577   4.201  14.292  0.00  0.00    +0.000 C 
ATOM     29  O   UNL     1       7.579   5.106  14.802  0.00  0.00    +0.000 OA
ENDBRANCH  20  21
ENDBRANCH   7  20
TORSDOF 6
ENDMDL
MODEL 4
REMARK VINA RESULT:      -7.5      0.844      2.643
REMARK  Name = 
REMARK  9 active torsions:
REMARK  status: ('A' for Active; 'I' for Inactive)
REMARK    1  A    between atoms: C_1  and  O_2
REMARK    2  A    between atoms: O_2  and  C_3
REMARK    3  A    between atoms: C_5  and  C_6
REMARK    4  A    between atoms: C_12  and  C_13
REMARK    5  A    between atoms: C_13  and  C_14
REMARK    6  A    between atoms: C_24  and  O_25
REMARK    7  A    between atoms: O_25  and  C_26
REMARK    8  A    between atoms: C_27  and  O_28
REMARK    9  A    between atoms: O_28  and  C_29
REMARK                            x       y       z     vdW  Elec       q    Type
REMARK                         _______ _______ _______ _____ _____    ______ ____
ROOT
ATOM      1  C   UNL     1       1.919   8.270  18.262  0.00  0.00    +0.000 C 
ATOM      2  C   UNL     1       2.116   7.238  19.098  0.00  0.00    +0.000 C 
ATOM      3  C   UNL     1       1.598   7.118  20.477  0.00  0.00    +0.000 C 
ATOM      4  O   UNL     1       1.206   8.014  21.202  0.00  0.00    +0.000 OA
ATOM      5  O   UNL     1       1.672   5.802  20.827  0.00  0.00    +0.000 OA
ATOM      6  C   UNL     1       2.035   5.021  19.685  0.00  0.00    +0.000 C 
ATOM      7  C   UNL     1       2.815   5.945  18.771  0.00  0.00    +0.000 C 
ENDROOT
BRANCH   1  10
ATOM      8  C   UNL     1       1.442  11.957  18.933  0.00  0.00    +0.000 A 
ATOM      9  C   UNL     1       2.000  10.662  18.917  0.00  0.00    +0.000 A 
ATOM     10  C   UNL     1       1.255   9.554  18.520  0.00  0.00    +0.000 A 
ATOM     11  C   UNL     1      -0.097   9.738  18.233  0.00  0.00    +0.000 A 
ATOM     12  C   UNL     1      -0.701  11.013  18.309  0.00  0.00    +0.000 A 
ATOM     13  C   UNL     1       0.072  12.146  18.651  0.00  0.00    +0.000 A 
BRANCH   8  15
ATOM     14  C   UNL     1       2.916  13.643  18.155  0.00  0.00    +0.000 C 
ATOM     15  O   UNL     1       2.224  13.042  19.250  0.00  0.00    +0.000 OA
ENDBRANCH   8  15
BRANCH  12  16
ATOM     16  O   UNL     1      -2.030  10.950  17.972  0.00  0.00    +0.000 OA
ATOM     17  C   UNL     1      -2.410  10.966  16.606  0.00  0.00    +0.000 C 
ENDBRANCH  12  16
BRANCH  13  18
ATOM     18  O   UNL     1      -0.591  13.345  18.680  0.00  0.00    +0.000 OA
ATOM     19  C   UNL     1      -1.081  13.878  19.899  0.00  0.00    +0.000 C 
ENDBRANCH  13  18
ENDBRANCH   1  10
BRANCH   7  20
ATOM     20  C   UNL     1       4.333   5.888  19.113  0.00  0.00    +0.000 C 
BRANCH  20  21
ATOM     21  C   UNL     1       5.176   6.041  17.867  0.00  0.00    +0.000 A 
ATOM     22  C   UNL     1       6.558   6.338  17.960  0.00  0.00    +0.000 A 
ATOM     23  C   UNL     1       7.415   6.087  16.886  0.00  0.00    +0.000 A 
ATOM     24  C   UNL     1       6.862   5.490  15.777  0.00  0.00    +0.000 A 
ATOM     25  C   UNL     1       5.503   5.310  15.648  0.00  0.00    +0.000 A 
ATOM     26  C   UNL     1       4.622   5.646  16.643  0.00  0.00    +0.000 A 
ATOM     27  O   UNL     1       5.187   4.587  14.536  0.00  0.00    +0.000 OA
ATOM     28  C   UNL     1       6.490   4.036  14.261  0.00  0.00    +0.000 C 
ATOM     29  O   UNL     1       7.547   4.879  14.767  0.00  0.00    +0.000 OA
ENDBRANCH  20  21
ENDBRANCH   7  20
TORSDOF 6
ENDMDL
MODEL 5
REMARK VINA RESULT:      -7.5      1.990      3.021
REMARK  Name = 
REMARK  9 active torsions:
REMARK  status: ('A' for Active; 'I' for Inactive)
REMARK    1  A    between atoms: C_1  and  O_2
REMARK    2  A    between atoms: O_2  and  C_3
REMARK    3  A    between atoms: C_5  and  C_6
REMARK    4  A    between atoms: C_12  and  C_13
REMARK    5  A    between atoms: C_13  and  C_14
REMARK    6  A    between atoms: C_24  and  O_25
REMARK    7  A    between atoms: O_25  and  C_26
REMARK    8  A    between atoms: C_27  and  O_28
REMARK    9  A    between atoms: O_28  and  C_29
REMARK                            x       y       z     vdW  Elec       q    Type
REMARK                         _______ _______ _______ _____ _____    ______ ____
ROOT
ATOM      1  C   UNL     1       2.493   6.754  18.448  0.00  0.00    +0.000 C 
ATOM      2  C   UNL     1       2.349   5.487  18.869  0.00  0.00    +0.000 C 
ATOM      3  C   UNL     1       1.463   5.021  19.956  0.00  0.00    +0.000 C 
ATOM      4  O   UNL     1       0.979   5.687  20.854  0.00  0.00    +0.000 OA
ATOM      5  O   UNL     1       1.307   3.675  19.806  0.00  0.00    +0.000 OA
ATOM      6  C   UNL     1       1.889   3.259  18.568  0.00  0.00    +0.000 C 
ATOM      7  C   UNL     1       2.978   4.265  18.253  0.00  0.00    +0.000 C 
ENDROOT
BRANCH   1  10
ATOM      8  C   UNL     1       0.430   9.905  18.728  0.00  0.00    +0.000 A 
ATOM      9  C   UNL     1       1.200   8.856  18.188  0.00  0.00    +0.000 A 
ATOM     10  C   UNL     1       1.916   7.984  19.005  0.00  0.00    +0.000 A 
ATOM     11  C   UNL     1       1.938   8.235  20.376  0.00  0.00    +0.000 A 
ATOM     12  C   UNL     1       1.232   9.322  20.939  0.00  0.00    +0.000 A 
ATOM     13  C   UNL     1       0.456  10.168  20.116  0.00  0.00    +0.000 A 
BRANCH   8  15
ATOM     14  C   UNL     1      -1.640  10.205  17.611  0.00  0.00    +0.000 C 
ATOM     15  O   UNL     1      -0.332  10.699  17.904  0.00  0.00    +0.000 OA
ENDBRANCH   8  15
BRANCH  12  16
ATOM     16  O   UNL     1       1.392   9.361  22.302  0.00  0.00    +0.000 OA
ATOM     17  C   UNL     1       0.252   9.307  23.144  0.00  0.00    +0.000 C 
ENDBRANCH  12  16
BRANCH  13  18
ATOM     18  O   UNL     1      -0.211  11.183  20.748  0.00  0.00    +0.000 OA
ATOM     19  C   UNL     1       0.392  12.454  20.925  0.00  0.00    +0.000 C 
ENDBRANCH  13  18
ENDBRANCH   1  10
BRANCH   7  20
ATOM     20  C   UNL     1       4.330   3.810  18.876  0.00  0.00    +0.000 C 
BRANCH  20  21
ATOM     21  C   UNL     1       5.500   4.428  18.144  0.00  0.00    +0.000 A 
ATOM     22  C   UNL     1       5.436   4.669  16.750  0.00  0.00    +0.000 A 
ATOM     23  C   UNL     1       6.304   5.581  16.143  0.00  0.00    +0.000 A 
ATOM     24  C   UNL     1       7.166   6.261  16.971  0.00  0.00    +0.000 A 
ATOM     25  C   UNL     1       7.303   5.941  18.303  0.00  0.00    +0.000 A 
ATOM     26  C   UNL     1       6.540   4.975  18.905  0.00  0.00    +0.000 A 
ATOM     27  O   UNL     1       8.111   6.822  18.959  0.00  0.00    +0.000 OA
ATOM     28  C   UNL     1       8.100   7.887  17.988  0.00  0.00    +0.000 C 
ATOM     29  O   UNL     1       7.858   7.394  16.653  0.00  0.00    +0.000 OA
ENDBRANCH  20  21
ENDBRANCH   7  20
TORSDOF 6
ENDMDL
MODEL 6
REMARK VINA RESULT:      -7.4      2.034      3.392
REMARK  Name = 
REMARK  9 active torsions:
REMARK  status: ('A' for Active; 'I' for Inactive)
REMARK    1  A    between atoms: C_1  and  O_2
REMARK    2  A    between atoms: O_2  and  C_3
REMARK    3  A    between atoms: C_5  and  C_6
REMARK    4  A    between atoms: C_12  and  C_13
REMARK    5  A    between atoms: C_13  and  C_14
REMARK    6  A    between atoms: C_24  and  O_25
REMARK    7  A    between atoms: O_25  and  C_26
REMARK    8  A    between atoms: C_27  and  O_28
REMARK    9  A    between atoms: O_28  and  C_29
REMARK                            x       y       z     vdW  Elec       q    Type
REMARK                         _______ _______ _______ _____ _____    ______ ____
ROOT
ATOM      1  C   UNL     1       2.430   6.552  18.478  0.00  0.00    +0.000 C 
ATOM      2  C   UNL     1       2.346   5.240  18.753  0.00  0.00    +0.000 C 
ATOM      3  C   UNL     1       1.428   4.606  19.723  0.00  0.00    +0.000 C 
ATOM      4  O   UNL     1       0.846   5.140  20.650  0.00  0.00    +0.000 OA
ATOM      5  O   UNL     1       1.372   3.278  19.422  0.00  0.00    +0.000 OA
ATOM      6  C   UNL     1       2.056   3.035  18.190  0.00  0.00    +0.000 C 
ATOM      7  C   UNL     1       3.092   4.133  18.057  0.00  0.00    +0.000 C 
ENDROOT
BRANCH   1  10
ATOM      8  C   UNL     1       1.398   9.059  21.109  0.00  0.00    +0.000 A 
ATOM      9  C   UNL     1       1.836   7.867  20.497  0.00  0.00    +0.000 A 
ATOM     10  C   UNL     1       1.738   7.677  19.121  0.00  0.00    +0.000 A 
ATOM     11  C   UNL     1       1.098   8.657  18.365  0.00  0.00    +0.000 A 
ATOM     12  C   UNL     1       0.585   9.831  18.960  0.00  0.00    +0.000 A 
ATOM     13  C   UNL     1       0.741  10.051  20.348  0.00  0.00    +0.000 A 
BRANCH   8  15
ATOM     14  C   UNL     1       0.390   9.309  23.240  0.00  0.00    +0.000 C 
ATOM     15  O   UNL     1       1.583   9.253  22.457  0.00  0.00    +0.000 OA
ENDBRANCH   8  15
BRANCH  12  16
ATOM     16  O   UNL     1       0.011  10.651  18.021  0.00  0.00    +0.000 OA
ATOM     17  C   UNL     1      -1.320  10.407  17.596  0.00  0.00    +0.000 C 
ENDBRANCH  12  16
BRANCH  13  18
ATOM     18  O   UNL     1       0.233  11.225  20.837  0.00  0.00    +0.000 OA
ATOM     19  C   UNL     1       0.975  12.431  20.758  0.00  0.00    +0.000 C 
ENDBRANCH  13  18
ENDBRANCH   1  10
BRANCH   7  20
ATOM     20  C   UNL     1       4.431   3.695  18.720  0.00  0.00    +0.000 C 
BRANCH  20  21
ATOM     21  C   UNL     1       5.612   4.357  18.046  0.00  0.00    +0.000 A 
ATOM     22  C   UNL     1       5.624   4.561  16.644  0.00  0.00    +0.000 A 
ATOM     23  C   UNL     1       6.481   5.503  16.068  0.00  0.00    +0.000 A 
ATOM     24  C   UNL     1       7.253   6.247  16.929  0.00  0.00    +0.000 A 
ATOM     25  C   UNL     1       7.321   5.966  18.275  0.00  0.00    +0.000 A 
ATOM     26  C   UNL     1       6.572   4.976  18.855  0.00  0.00    +0.000 A 
ATOM     27  O   UNL     1       8.040   6.904  18.956  0.00  0.00    +0.000 OA
ATOM     28  C   UNL     1       8.036   7.944  17.958  0.00  0.00    +0.000 C 
ATOM     29  O   UNL     1       7.905   7.407  16.625  0.00  0.00    +0.000 OA
ENDBRANCH  20  21
ENDBRANCH   7  20
TORSDOF 6
ENDMDL
MODEL 7
REMARK VINA RESULT:      -7.3      2.512      9.235
REMARK  Name = 
REMARK  9 active torsions:
REMARK  status: ('A' for Active; 'I' for Inactive)
REMARK    1  A    between atoms: C_1  and  O_2
REMARK    2  A    between atoms: O_2  and  C_3
REMARK    3  A    between atoms: C_5  and  C_6
REMARK    4  A    between atoms: C_12  and  C_13
REMARK    5  A    between atoms: C_13  and  C_14
REMARK    6  A    between atoms: C_24  and  O_25
REMARK    7  A    between atoms: O_25  and  C_26
REMARK    8  A    between atoms: C_27  and  O_28
REMARK    9  A    between atoms: O_28  and  C_29
REMARK                            x       y       z     vdW  Elec       q    Type
REMARK                         _______ _______ _______ _____ _____    ______ ____
ROOT
ATOM      1  C   UNL     1       2.351   8.017  18.099  0.00  0.00    +0.000 C 
ATOM      2  C   UNL     1       1.678   8.679  19.054  0.00  0.00    +0.000 C 
ATOM      3  C   UNL     1       1.427   8.211  20.433  0.00  0.00    +0.000 C 
ATOM      4  O   UNL     1       1.479   7.068  20.849  0.00  0.00    +0.000 OA
ATOM      5  O   UNL     1       1.078   9.300  21.175  0.00  0.00    +0.000 OA
ATOM      6  C   UNL     1       1.270  10.489  20.404  0.00  0.00    +0.000 C 
ATOM      7  C   UNL     1       1.130  10.078  18.952  0.00  0.00    +0.000 C 
ENDROOT
BRANCH   1  10
ATOM      8  C   UNL     1       4.692   5.145  18.837  0.00  0.00    +0.000 A 
ATOM      9  C   UNL     1       4.213   6.441  18.557  0.00  0.00    +0.000 A 
ATOM     10  C   UNL     1       2.903   6.656  18.133  0.00  0.00    +0.000 A 
ATOM     11  C   UNL     1       2.098   5.545  17.891  0.00  0.00    +0.000 A 
ATOM     12  C   UNL     1       2.574   4.230  18.095  0.00  0.00    +0.000 A 
ATOM     13  C   UNL     1       3.882   4.016  18.584  0.00  0.00    +0.000 A 
BRANCH   8  15
ATOM     14  C   UNL     1       6.981   5.744  18.699  0.00  0.00    +0.000 C 
ATOM     15  O   UNL     1       5.962   4.970  19.332  0.00  0.00    +0.000 OA
ENDBRANCH   8  15
BRANCH  12  16
ATOM     16  O   UNL     1       1.604   3.303  17.803  0.00  0.00    +0.000 OA
ATOM     17  C   UNL     1       0.815   2.760  18.849  0.00  0.00    +0.000 C 
ENDBRANCH  12  16
BRANCH  13  18
ATOM     18  O   UNL     1       4.253   2.711  18.773  0.00  0.00    +0.000 OA
ATOM     19  C   UNL     1       4.312   2.149  20.074  0.00  0.00    +0.000 C 
ENDBRANCH  13  18
ENDBRANCH   1  10
BRANCH   7  20
ATOM     20  C   UNL     1      -0.355  10.195  18.498  0.00  0.00    +0.000 C 
BRANCH  20  21
ATOM     21  C   UNL     1      -0.909  11.569  18.800  0.00  0.00    +0.000 A 
ATOM     22  C   UNL     1      -1.925  11.741  19.772  0.00  0.00    +0.000 A 
ATOM     23  C   UNL     1      -2.156  12.994  20.347  0.00  0.00    +0.000 A 
ATOM     24  C   UNL     1      -1.317  14.016  19.966  0.00  0.00    +0.000 A 
ATOM     25  C   UNL     1      -0.409  13.870  18.941  0.00  0.00    +0.000 A 
ATOM     26  C   UNL     1      -0.233  12.681  18.283  0.00  0.00    +0.000 A 
ATOM     27  O   UNL     1       0.403  14.958  18.821  0.00  0.00    +0.000 OA
ATOM     28  C   UNL     1       0.148  15.560  20.105  0.00  0.00    +0.000 C 
ATOM     29  O   UNL     1      -1.156  15.206  20.614  0.00  0.00    +0.000 OA
ENDBRANCH  20  21
ENDBRANCH   7  20
TORSDOF 6
ENDMDL
MODEL 8
REMARK VINA RESULT:      -7.3      2.197      8.987
REMARK  Name = 
REMARK  9 active torsions:
REMARK  status: ('A' for Active; 'I' for Inactive)
REMARK    1  A    between atoms: C_1  and  O_2
REMARK    2  A    between atoms: O_2  and  C_3
REMARK    3  A    between atoms: C_5  and  C_6
REMARK    4  A    between atoms: C_12  and  C_13
REMARK    5  A    between atoms: C_13  and  C_14
REMARK    6  A    between atoms: C_24  and  O_25
REMARK    7  A    between atoms: O_25  and  C_26
REMARK    8  A    between atoms: C_27  and  O_28
REMARK    9  A    between atoms: O_28  and  C_29
REMARK                            x       y       z     vdW  Elec       q    Type
REMARK                         _______ _______ _______ _____ _____    ______ ____
ROOT
ATOM      1  C   UNL     1       1.875   8.385  17.921  0.00  0.00    +0.000 C 
ATOM      2  C   UNL     1       1.308   8.900  19.024  0.00  0.00    +0.000 C 
ATOM      3  C   UNL     1       1.633   8.548  20.422  0.00  0.00    +0.000 C 
ATOM      4  O   UNL     1       2.197   7.545  20.821  0.00  0.00    +0.000 OA
ATOM      5  O   UNL     1       1.148   9.544  21.216  0.00  0.00    +0.000 OA
ATOM      6  C   UNL     1       0.687  10.626  20.403  0.00  0.00    +0.000 C 
ATOM      7  C   UNL     1       0.300  10.017  19.070  0.00  0.00    +0.000 C 
ENDROOT
BRANCH   1  10
ATOM      8  C   UNL     1       3.301   4.900  17.624  0.00  0.00    +0.000 A 
ATOM      9  C   UNL     1       2.452   5.972  17.966  0.00  0.00    +0.000 A 
ATOM     10  C   UNL     1       2.854   7.296  17.809  0.00  0.00    +0.000 A 
ATOM     11  C   UNL     1       4.163   7.543  17.398  0.00  0.00    +0.000 A 
ATOM     12  C   UNL     1       5.060   6.488  17.116  0.00  0.00    +0.000 A 
ATOM     13  C   UNL     1       4.631   5.145  17.216  0.00  0.00    +0.000 A 
BRANCH   8  15
ATOM     14  C   UNL     1       1.655   3.420  18.473  0.00  0.00    +0.000 C 
ATOM     15  O   UNL     1       2.848   3.605  17.711  0.00  0.00    +0.000 OA
ENDBRANCH   8  15
BRANCH  12  16
ATOM     16  O   UNL     1       6.282   6.972  16.721  0.00  0.00    +0.000 OA
ATOM     17  C   UNL     1       7.362   6.983  17.640  0.00  0.00    +0.000 C 
ENDBRANCH  12  16
BRANCH  13  18
ATOM     18  O   UNL     1       5.559   4.188  16.903  0.00  0.00    +0.000 OA
ATOM     19  C   UNL     1       5.822   3.840  15.554  0.00  0.00    +0.000 C 
ENDBRANCH  13  18
ENDBRANCH   1  10
BRANCH   7  20
ATOM     20  C   UNL     1      -1.196   9.583  19.088  0.00  0.00    +0.000 C 
BRANCH  20  21
ATOM     21  C   UNL     1      -2.044  10.523  18.262  0.00  0.00    +0.000 A 
ATOM     22  C   UNL     1      -2.189  10.328  16.866  0.00  0.00    +0.000 A 
ATOM     23  C   UNL     1      -3.253  10.909  16.172  0.00  0.00    +0.000 A 
ATOM     24  C   UNL     1      -4.167  11.617  16.917  0.00  0.00    +0.000 A 
ATOM     25  C   UNL     1      -3.960  11.899  18.249  0.00  0.00    +0.000 A 
ATOM     26  C   UNL     1      -2.869  11.433  18.934  0.00  0.00    +0.000 A 
ATOM     27  O   UNL     1      -5.046  12.495  18.819  0.00  0.00    +0.000 OA
ATOM     28  C   UNL     1      -6.023  12.170  17.812  0.00  0.00    +0.000 C 
ATOM     29  O   UNL     1      -5.417  11.988  16.514  0.00  0.00    +0.000 OA
ENDBRANCH  20  21
ENDBRANCH   7  20
TORSDOF 6
ENDMDL
MODEL 9
REMARK VINA RESULT:      -7.3      2.281      8.898
REMARK  Name = 
REMARK  9 active torsions:
REMARK  status: ('A' for Active; 'I' for Inactive)
REMARK    1  A    between atoms: C_1  and  O_2
REMARK    2  A    between atoms: O_2  and  C_3
REMARK    3  A    between atoms: C_5  and  C_6
REMARK    4  A    between atoms: C_12  and  C_13
REMARK    5  A    between atoms: C_13  and  C_14
REMARK    6  A    between atoms: C_24  and  O_25
REMARK    7  A    between atoms: O_25  and  C_26
REMARK    8  A    between atoms: C_27  and  O_28
REMARK    9  A    between atoms: O_28  and  C_29
REMARK                            x       y       z     vdW  Elec       q    Type
REMARK                         _______ _______ _______ _____ _____    ______ ____
ROOT
ATOM      1  C   UNL     1       1.964   8.501  18.228  0.00  0.00    +0.000 C 
ATOM      2  C   UNL     1       1.471   8.731  19.456  0.00  0.00    +0.000 C 
ATOM      3  C   UNL     1       1.776   7.961  20.679  0.00  0.00    +0.000 C 
ATOM      4  O   UNL     1       2.233   6.834  20.751  0.00  0.00    +0.000 OA
ATOM      5  O   UNL     1       1.413   8.729  21.745  0.00  0.00    +0.000 OA
ATOM      6  C   UNL     1       1.060  10.039  21.295  0.00  0.00    +0.000 C 
ATOM      7  C   UNL     1       0.591   9.882  19.863  0.00  0.00    +0.000 C 
ENDROOT
BRANCH   1  10
ATOM      8  C   UNL     1       5.020   6.629  17.034  0.00  0.00    +0.000 A 
ATOM      9  C   UNL     1       4.086   7.662  17.252  0.00  0.00    +0.000 A 
ATOM     10  C   UNL     1       2.818   7.399  17.766  0.00  0.00    +0.000 A 
ATOM     11  C   UNL     1       2.451   6.069  17.966  0.00  0.00    +0.000 A 
ATOM     12  C   UNL     1       3.341   5.008  17.689  0.00  0.00    +0.000 A 
ATOM     13  C   UNL     1       4.649   5.280  17.227  0.00  0.00    +0.000 A 
BRANCH   8  15
ATOM     14  C   UNL     1       7.277   7.037  17.631  0.00  0.00    +0.000 C 
ATOM     15  O   UNL     1       6.291   6.927  16.604  0.00  0.00    +0.000 OA
ENDBRANCH   8  15
BRANCH  12  16
ATOM     16  O   UNL     1       2.766   3.794  17.972  0.00  0.00    +0.000 OA
ATOM     17  C   UNL     1       1.367   3.714  18.188  0.00  0.00    +0.000 C 
ENDBRANCH  12  16
BRANCH  13  18
ATOM     18  O   UNL     1       5.452   4.193  17.004  0.00  0.00    +0.000 OA
ATOM     19  C   UNL     1       5.735   3.752  15.686  0.00  0.00    +0.000 C 
ENDBRANCH  13  18
ENDBRANCH   1  10
BRANCH   7  20
ATOM     20  C   UNL     1      -0.942   9.612  19.823  0.00  0.00    +0.000 C 
BRANCH  20  21
ATOM     21  C   UNL     1      -1.594  10.354  18.678  0.00  0.00    +0.000 A 
ATOM     22  C   UNL     1      -1.458   9.892  17.346  0.00  0.00    +0.000 A 
ATOM     23  C   UNL     1      -2.354  10.301  16.354  0.00  0.00    +0.000 A 
ATOM     24  C   UNL     1      -3.389  11.115  16.751  0.00  0.00    +0.000 A 
ATOM     25  C   UNL     1      -3.451  11.652  18.017  0.00  0.00    +0.000 A 
ATOM     26  C   UNL     1      -2.525  11.354  18.984  0.00  0.00    +0.000 A 
ATOM     27  O   UNL     1      -4.621  12.318  18.234  0.00  0.00    +0.000 OA
ATOM     28  C   UNL     1      -5.380  11.780  17.133  0.00  0.00    +0.000 C 
ATOM     29  O   UNL     1      -4.528  11.370  16.043  0.00  0.00    +0.000 OA
ENDBRANCH  20  21
ENDBRANCH   7  20
TORSDOF 6
ENDMDL
