MODEL 1
REMARK VINA RESULT:      -5.9      0.000      0.000
REMARK  Name = 
REMARK  4 active torsions:
REMARK  status: ('A' for Active; 'I' for Inactive)
REMARK    1  A    between atoms: C_1  and  N_2
REMARK    2  A    between atoms: C_6  and  S_7
REMARK    3  A    between atoms: N_8  and  C_9
REMARK    4  A    between atoms: C_12  and  N_13
REMARK                            x       y       z     vdW  Elec       q    Type
REMARK                         _______ _______ _______ _____ _____    ______ ____
ROOT
ATOM      1  C   UNL     1       1.083   2.496  22.115  0.00  0.00    +0.000 C 
ATOM      2  N   UNL     1       2.237   3.256  21.636  0.00  0.00    +0.000 NA
ATOM      3  C   UNL     1       1.792   4.443  20.883  0.00  0.00    +0.000 C 
ATOM      4  C   UNL     1       2.981   5.263  20.338  0.00  0.00    +0.000 C 
ATOM      5  N   UNL     1       3.833   4.430  19.478  0.00  0.00    +0.000 N 
ATOM      6  C   UNL     1       4.381   4.807  18.261  0.00  0.00    +0.000 C 
ATOM      7  N   UNL     1       5.255   4.051  17.641  0.00  0.00    +0.000 NA
ATOM      8  C   UNL     1       4.293   3.212  20.171  0.00  0.00    +0.000 C 
ATOM      9  C   UNL     1       3.096   2.425  20.763  0.00  0.00    +0.000 C 
ENDROOT
BRANCH   7  10
ATOM     10  C   UNL     1       5.867   4.353  16.414  0.00  0.00    +0.000 A 
ATOM     11  C   UNL     1       7.103   5.007  16.316  0.00  0.00    +0.000 A 
ATOM     12  C   UNL     1       7.681   5.294  15.077  0.00  0.00    +0.000 A 
ATOM     13  C   UNL     1       7.061   4.845  13.909  0.00  0.00    +0.000 A 
ATOM     14  C   UNL     1       5.867   4.117  13.980  0.00  0.00    +0.000 A 
ATOM     15  C   UNL     1       5.275   3.886  15.232  0.00  0.00    +0.000 A 
BRANCH  13  16
ATOM     16  N   UNL     1       7.682   5.124  12.609  0.00  0.00    +0.000 N 
ATOM     17  O   UNL     1       8.465   6.084  12.538  0.00  0.00    +0.000 OA
ATOM     18  O   UNL     1       7.390   4.385  11.657  0.00  0.00    +0.000 OA
ENDBRANCH  13  16
ENDBRANCH   7  10
BRANCH   6  19
ATOM     19  S   UNL     1       3.819   6.349  17.588  0.00  0.00    +0.000 S 
ATOM     20  H   UNL     1       2.524   6.007  17.621  0.00  0.00    +0.000 HD
ENDBRANCH   6  19
TORSDOF 3
ENDMDL
MODEL 2
REMARK VINA RESULT:      -5.8      0.223      1.330
REMARK  Name = 
REMARK  4 active torsions:
REMARK  status: ('A' for Active; 'I' for Inactive)
REMARK    1  A    between atoms: C_1  and  N_2
REMARK    2  A    between atoms: C_6  and  S_7
REMARK    3  A    between atoms: N_8  and  C_9
REMARK    4  A    between atoms: C_12  and  N_13
REMARK                            x       y       z     vdW  Elec       q    Type
REMARK                         _______ _______ _______ _____ _____    ______ ____
ROOT
ATOM      1  C   UNL     1       1.034   2.351  22.233  0.00  0.00    +0.000 C 
ATOM      2  N   UNL     1       2.168   3.132  21.741  0.00  0.00    +0.000 NA
ATOM      3  C   UNL     1       1.695   4.277  20.943  0.00  0.00    +0.000 C 
ATOM      4  C   UNL     1       2.863   5.116  20.383  0.00  0.00    +0.000 C 
ATOM      5  N   UNL     1       3.752   4.282  19.561  0.00  0.00    +0.000 N 
ATOM      6  C   UNL     1       4.302   4.635  18.339  0.00  0.00    +0.000 C 
ATOM      7  N   UNL     1       5.207   3.888  17.755  0.00  0.00    +0.000 NA
ATOM      8  C   UNL     1       4.242   3.104  20.301  0.00  0.00    +0.000 C 
ATOM      9  C   UNL     1       3.064   2.300  20.906  0.00  0.00    +0.000 C 
ENDROOT
BRANCH   7  10
ATOM     10  C   UNL     1       5.824   4.168  16.524  0.00  0.00    +0.000 A 
ATOM     11  C   UNL     1       5.208   3.927  15.289  0.00  0.00    +0.000 A 
ATOM     12  C   UNL     1       5.854   4.216  14.083  0.00  0.00    +0.000 A 
ATOM     13  C   UNL     1       7.103   4.838  14.105  0.00  0.00    +0.000 A 
ATOM     14  C   UNL     1       7.706   5.166  15.325  0.00  0.00    +0.000 A 
ATOM     15  C   UNL     1       7.066   4.819  16.525  0.00  0.00    +0.000 A 
BRANCH  13  16
ATOM     16  N   UNL     1       7.769   5.165  12.838  0.00  0.00    +0.000 N 
ATOM     17  O   UNL     1       7.389   4.571  11.817  0.00  0.00    +0.000 OA
ATOM     18  O   UNL     1       8.670   6.015  12.861  0.00  0.00    +0.000 OA
ENDBRANCH  13  16
ENDBRANCH   7  10
BRANCH   6  19
ATOM     19  S   UNL     1       3.699   6.134  17.607  0.00  0.00    +0.000 S 
ATOM     20  H   UNL     1       3.843   5.697  16.349  0.00  0.00    +0.000 HD
ENDBRANCH   6  19
TORSDOF 3
ENDMDL
MODEL 3
REMARK VINA RESULT:      -5.7      5.416      7.195
REMARK  Name = 
REMARK  4 active torsions:
REMARK  status: ('A' for Active; 'I' for Inactive)
REMARK    1  A    between atoms: C_1  and  N_2
REMARK    2  A    between atoms: C_6  and  S_7
REMARK    3  A    between atoms: N_8  and  C_9
REMARK    4  A    between atoms: C_12  and  N_13
REMARK                            x       y       z     vdW  Elec       q    Type
REMARK                         _______ _______ _______ _____ _____    ______ ____
ROOT
ATOM      1  C   UNL     1       1.991  13.777  19.151  0.00  0.00    +0.000 C 
ATOM      2  N   UNL     1       1.405  12.457  18.922  0.00  0.00    +0.000 NA
ATOM      3  C   UNL     1       1.115  11.795  20.207  0.00  0.00    +0.000 C 
ATOM      4  C   UNL     1       0.517  10.386  20.011  0.00  0.00    +0.000 C 
ATOM      5  N   UNL     1       1.426   9.542  19.222  0.00  0.00    +0.000 N 
ATOM      6  C   UNL     1       1.745   8.219  19.484  0.00  0.00    +0.000 C 
ATOM      7  N   UNL     1       2.443   7.503  18.636  0.00  0.00    +0.000 NA
ATOM      8  C   UNL     1       1.772  10.164  17.930  0.00  0.00    +0.000 C 
ATOM      9  C   UNL     1       2.319  11.599  18.134  0.00  0.00    +0.000 C 
ENDROOT
BRANCH   7  10
ATOM     10  C   UNL     1       2.806   6.157  18.812  0.00  0.00    +0.000 A 
ATOM     11  C   UNL     1       1.965   5.088  18.474  0.00  0.00    +0.000 A 
ATOM     12  C   UNL     1       2.359   3.761  18.666  0.00  0.00    +0.000 A 
ATOM     13  C   UNL     1       3.650   3.487  19.121  0.00  0.00    +0.000 A 
ATOM     14  C   UNL     1       4.540   4.533  19.388  0.00  0.00    +0.000 A 
ATOM     15  C   UNL     1       4.108   5.861  19.241  0.00  0.00    +0.000 A 
BRANCH  13  16
ATOM     16  N   UNL     1       4.071   2.092  19.298  0.00  0.00    +0.000 N 
ATOM     17  O   UNL     1       3.536   1.233  18.582  0.00  0.00    +0.000 OA
ATOM     18  O   UNL     1       4.939   1.853  20.150  0.00  0.00    +0.000 OA
ENDBRANCH  13  16
ENDBRANCH   7  10
BRANCH   6  19
ATOM     19  S   UNL     1       1.175   7.562  21.031  0.00  0.00    +0.000 S 
ATOM     20  H   UNL     1       2.208   8.049  21.732  0.00  0.00    +0.000 HD
ENDBRANCH   6  19
TORSDOF 3
ENDMDL
MODEL 4
REMARK VINA RESULT:      -5.7      5.293      6.980
REMARK  Name = 
REMARK  4 active torsions:
REMARK  status: ('A' for Active; 'I' for Inactive)
REMARK    1  A    between atoms: C_1  and  N_2
REMARK    2  A    between atoms: C_6  and  S_7
REMARK    3  A    between atoms: N_8  and  C_9
REMARK    4  A    between atoms: C_12  and  N_13
REMARK                            x       y       z     vdW  Elec       q    Type
REMARK                         _______ _______ _______ _____ _____    ______ ____
ROOT
ATOM      1  C   UNL     1      -1.881  12.110  23.330  0.00  0.00    +0.000 C 
ATOM      2  N   UNL     1      -0.621  11.538  22.858  0.00  0.00    +0.000 NA
ATOM      3  C   UNL     1      -0.503  11.695  21.397  0.00  0.00    +0.000 C 
ATOM      4  C   UNL     1       0.805  11.081  20.852  0.00  0.00    +0.000 C 
ATOM      5  N   UNL     1       0.892   9.655  21.199  0.00  0.00    +0.000 N 
ATOM      6  C   UNL     1       1.303   8.634  20.356  0.00  0.00    +0.000 C 
ATOM      7  N   UNL     1       1.497   7.416  20.801  0.00  0.00    +0.000 NA
ATOM      8  C   UNL     1       0.757   9.432  22.651  0.00  0.00    +0.000 C 
ATOM      9  C   UNL     1      -0.530  10.100  23.197  0.00  0.00    +0.000 C 
ENDROOT
BRANCH   7  10
ATOM     10  C   UNL     1       1.919   6.324  20.026  0.00  0.00    +0.000 A 
ATOM     11  C   UNL     1       2.882   6.432  19.013  0.00  0.00    +0.000 A 
ATOM     12  C   UNL     1       3.276   5.323  18.260  0.00  0.00    +0.000 A 
ATOM     13  C   UNL     1       2.768   4.061  18.577  0.00  0.00    +0.000 A 
ATOM     14  C   UNL     1       1.868   3.910  19.639  0.00  0.00    +0.000 A 
ATOM     15  C   UNL     1       1.444   5.045  20.348  0.00  0.00    +0.000 A 
BRANCH  13  16
ATOM     16  N   UNL     1       3.203   2.893  17.802  0.00  0.00    +0.000 N 
ATOM     17  O   UNL     1       2.380   1.984  17.619  0.00  0.00    +0.000 OA
ATOM     18  O   UNL     1       4.366   2.883  17.374  0.00  0.00    +0.000 OA
ENDBRANCH  13  16
ENDBRANCH   7  10
BRANCH   6  19
ATOM     19  S   UNL     1       1.531   9.064  18.650  0.00  0.00    +0.000 S 
ATOM     20  H   UNL     1       2.788   8.605  18.598  0.00  0.00    +0.000 HD
ENDBRANCH   6  19
TORSDOF 3
ENDMDL
MODEL 5
REMARK VINA RESULT:      -5.7      5.405      7.031
REMARK  Name = 
REMARK  4 active torsions:
REMARK  status: ('A' for Active; 'I' for Inactive)
REMARK    1  A    between atoms: C_1  and  N_2
REMARK    2  A    between atoms: C_6  and  S_7
REMARK    3  A    between atoms: N_8  and  C_9
REMARK    4  A    between atoms: C_12  and  N_13
REMARK                            x       y       z     vdW  Elec       q    Type
REMARK                         _______ _______ _______ _____ _____    ______ ____
ROOT
ATOM      1  C   UNL     1       1.983  13.826  19.128  0.00  0.00    +0.000 C 
ATOM      2  N   UNL     1       1.421  12.497  18.891  0.00  0.00    +0.000 NA
ATOM      3  C   UNL     1       1.178  11.807  20.171  0.00  0.00    +0.000 C 
ATOM      4  C   UNL     1       0.606  10.388  19.965  0.00  0.00    +0.000 C 
ATOM      5  N   UNL     1       1.514   9.579  19.139  0.00  0.00    +0.000 N 
ATOM      6  C   UNL     1       1.869   8.258  19.369  0.00  0.00    +0.000 C 
ATOM      7  N   UNL     1       2.561   7.573  18.492  0.00  0.00    +0.000 NA
ATOM      8  C   UNL     1       1.814  10.230  17.849  0.00  0.00    +0.000 C 
ATOM      9  C   UNL     1       2.334  11.674  18.065  0.00  0.00    +0.000 C 
ENDROOT
BRANCH   7  10
ATOM     10  C   UNL     1       2.958   6.233  18.635  0.00  0.00    +0.000 A 
ATOM     11  C   UNL     1       4.066   5.842  19.400  0.00  0.00    +0.000 A 
ATOM     12  C   UNL     1       4.433   4.499  19.517  0.00  0.00    +0.000 A 
ATOM     13  C   UNL     1       3.633   3.514  18.935  0.00  0.00    +0.000 A 
ATOM     14  C   UNL     1       2.474   3.870  18.235  0.00  0.00    +0.000 A 
ATOM     15  C   UNL     1       2.152   5.228  18.083  0.00  0.00    +0.000 A 
BRANCH  13  16
ATOM     16  N   UNL     1       4.006   2.102  19.082  0.00  0.00    +0.000 N 
ATOM     17  O   UNL     1       4.800   1.806  19.987  0.00  0.00    +0.000 OA
ATOM     18  O   UNL     1       3.505   1.287  18.293  0.00  0.00    +0.000 OA
ENDBRANCH  13  16
ENDBRANCH   7  10
BRANCH   6  19
ATOM     19  S   UNL     1       1.353   7.563  20.918  0.00  0.00    +0.000 S 
ATOM     20  H   UNL     1       1.789   8.601  21.644  0.00  0.00    +0.000 HD
ENDBRANCH   6  19
TORSDOF 3
ENDMDL
MODEL 6
REMARK VINA RESULT:      -5.7      5.342      7.175
REMARK  Name = 
REMARK  4 active torsions:
REMARK  status: ('A' for Active; 'I' for Inactive)
REMARK    1  A    between atoms: C_1  and  N_2
REMARK    2  A    between atoms: C_6  and  S_7
REMARK    3  A    between atoms: N_8  and  C_9
REMARK    4  A    between atoms: C_12  and  N_13
REMARK                            x       y       z     vdW  Elec       q    Type
REMARK                         _______ _______ _______ _____ _____    ______ ____
ROOT
ATOM      1  C   UNL     1      -1.948  12.475  21.123  0.00  0.00    +0.000 C 
ATOM      2  N   UNL     1      -0.633  11.850  20.983  0.00  0.00    +0.000 NA
ATOM      3  C   UNL     1      -0.350  11.563  19.565  0.00  0.00    +0.000 C 
ATOM      4  C   UNL     1       1.021  10.880  19.375  0.00  0.00    +0.000 C 
ATOM      5  N   UNL     1       1.090   9.632  20.149  0.00  0.00    +0.000 N 
ATOM      6  C   UNL     1       1.612   8.426  19.708  0.00  0.00    +0.000 C 
ATOM      7  N   UNL     1       1.773   7.411  20.523  0.00  0.00    +0.000 NA
ATOM      8  C   UNL     1       0.793   9.853  21.577  0.00  0.00    +0.000 C 
ATOM      9  C   UNL     1      -0.559  10.589  21.755  0.00  0.00    +0.000 C 
ENDROOT
BRANCH   7  10
ATOM     10  C   UNL     1       2.299   6.158  20.169  0.00  0.00    +0.000 A 
ATOM     11  C   UNL     1       3.571   5.995  19.605  0.00  0.00    +0.000 A 
ATOM     12  C   UNL     1       4.061   4.732  19.263  0.00  0.00    +0.000 A 
ATOM     13  C   UNL     1       3.307   3.597  19.567  0.00  0.00    +0.000 A 
ATOM     14  C   UNL     1       2.068   3.724  20.206  0.00  0.00    +0.000 A 
ATOM     15  C   UNL     1       1.569   5.005  20.493  0.00  0.00    +0.000 A 
BRANCH  13  16
ATOM     16  N   UNL     1       3.834   2.269  19.230  0.00  0.00    +0.000 N 
ATOM     17  O   UNL     1       3.345   1.686  18.251  0.00  0.00    +0.000 OA
ATOM     18  O   UNL     1       4.737   1.807  19.943  0.00  0.00    +0.000 OA
ENDBRANCH  13  16
ENDBRANCH   7  10
BRANCH   6  19
ATOM     19  S   UNL     1       2.027   8.330  17.986  0.00  0.00    +0.000 S 
ATOM     20  H   UNL     1       0.830   8.764  17.570  0.00  0.00    +0.000 HD
ENDBRANCH   6  19
TORSDOF 3
ENDMDL
MODEL 7
REMARK VINA RESULT:      -5.6      5.339      7.249
REMARK  Name = 
REMARK  4 active torsions:
REMARK  status: ('A' for Active; 'I' for Inactive)
REMARK    1  A    between atoms: C_1  and  N_2
REMARK    2  A    between atoms: C_6  and  S_7
REMARK    3  A    between atoms: N_8  and  C_9
REMARK    4  A    between atoms: C_12  and  N_13
REMARK                            x       y       z     vdW  Elec       q    Type
REMARK                         _______ _______ _______ _____ _____    ______ ____
ROOT
ATOM      1  C   UNL     1      -1.903  12.536  20.608  0.00  0.00    +0.000 C 
ATOM      2  N   UNL     1      -0.596  11.882  20.572  0.00  0.00    +0.000 NA
ATOM      3  C   UNL     1      -0.256  11.494  19.191  0.00  0.00    +0.000 C 
ATOM      4  C   UNL     1       1.108  10.776  19.110  0.00  0.00    +0.000 C 
ATOM      5  N   UNL     1       1.117   9.583  19.968  0.00  0.00    +0.000 N 
ATOM      6  C   UNL     1       1.634   8.341  19.634  0.00  0.00    +0.000 C 
ATOM      7  N   UNL     1       1.738   7.381  20.522  0.00  0.00    +0.000 NA
ATOM      8  C   UNL     1       0.761   9.905  21.363  0.00  0.00    +0.000 C 
ATOM      9  C   UNL     1      -0.583  10.675  21.429  0.00  0.00    +0.000 C 
ENDROOT
BRANCH   7  10
ATOM     10  C   UNL     1       2.253   6.098  20.277  0.00  0.00    +0.000 A 
ATOM     11  C   UNL     1       1.528   4.924  20.523  0.00  0.00    +0.000 A 
ATOM     12  C   UNL     1       2.075   3.663  20.270  0.00  0.00    +0.000 A 
ATOM     13  C   UNL     1       3.336   3.567  19.678  0.00  0.00    +0.000 A 
ATOM     14  C   UNL     1       4.049   4.725  19.346  0.00  0.00    +0.000 A 
ATOM     15  C   UNL     1       3.505   5.981  19.657  0.00  0.00    +0.000 A 
BRANCH  13  16
ATOM     16  N   UNL     1       3.899   2.242  19.390  0.00  0.00    +0.000 N 
ATOM     17  O   UNL     1       4.831   1.843  20.103  0.00  0.00    +0.000 OA
ATOM     18  O   UNL     1       3.409   1.598  18.450  0.00  0.00    +0.000 OA
ENDBRANCH  13  16
ENDBRANCH   7  10
BRANCH   6  19
ATOM     19  S   UNL     1       2.124   8.120  17.943  0.00  0.00    +0.000 S 
ATOM     20  H   UNL     1       1.526   6.927  17.820  0.00  0.00    +0.000 HD
ENDBRANCH   6  19
TORSDOF 3
ENDMDL
MODEL 8
REMARK VINA RESULT:      -5.5      5.433      7.350
REMARK  Name = 
REMARK  4 active torsions:
REMARK  status: ('A' for Active; 'I' for Inactive)
REMARK    1  A    between atoms: C_1  and  N_2
REMARK    2  A    between atoms: C_6  and  S_7
REMARK    3  A    between atoms: N_8  and  C_9
REMARK    4  A    between atoms: C_12  and  N_13
REMARK                            x       y       z     vdW  Elec       q    Type
REMARK                         _______ _______ _______ _____ _____    ______ ____
ROOT
ATOM      1  C   UNL     1      -1.935  12.367  23.067  0.00  0.00    +0.000 C 
ATOM      2  N   UNL     1      -0.690  11.666  22.757  0.00  0.00    +0.000 NA
ATOM      3  C   UNL     1      -0.425  11.708  21.307  0.00  0.00    +0.000 C 
ATOM      4  C   UNL     1       0.871  10.958  20.933  0.00  0.00    +0.000 C 
ATOM      5  N   UNL     1       0.805   9.558  21.376  0.00  0.00    +0.000 N 
ATOM      6  C   UNL     1       1.205   8.450  20.645  0.00  0.00    +0.000 C 
ATOM      7  N   UNL     1       1.254   7.256  21.183  0.00  0.00    +0.000 NA
ATOM      8  C   UNL     1       0.519   9.450  22.819  0.00  0.00    +0.000 C 
ATOM      9  C   UNL     1      -0.752  10.253  23.194  0.00  0.00    +0.000 C 
ENDROOT
BRANCH   7  10
ATOM     10  C   UNL     1       1.652   6.081  20.524  0.00  0.00    +0.000 A 
ATOM     11  C   UNL     1       0.790   4.998  20.307  0.00  0.00    +0.000 A 
ATOM     12  C   UNL     1       1.222   3.843  19.649  0.00  0.00    +0.000 A 
ATOM     13  C   UNL     1       2.513   3.796  19.118  0.00  0.00    +0.000 A 
ATOM     14  C   UNL     1       3.368   4.897  19.248  0.00  0.00    +0.000 A 
ATOM     15  C   UNL     1       2.934   6.027  19.959  0.00  0.00    +0.000 A 
BRANCH  13  16
ATOM     16  N   UNL     1       2.957   2.593  18.406  0.00  0.00    +0.000 N 
ATOM     17  O   UNL     1       2.359   2.286  17.363  0.00  0.00    +0.000 OA
ATOM     18  O   UNL     1       3.904   1.952  18.885  0.00  0.00    +0.000 OA
ENDBRANCH  13  16
ENDBRANCH   7  10
BRANCH   6  19
ATOM     19  S   UNL     1       1.623   8.738  18.945  0.00  0.00    +0.000 S 
ATOM     20  H   UNL     1       1.743  10.064  19.094  0.00  0.00    +0.000 HD
ENDBRANCH   6  19
TORSDOF 3
ENDMDL
MODEL 9
REMARK VINA RESULT:      -5.4      5.592      8.189
REMARK  Name = 
REMARK  4 active torsions:
REMARK  status: ('A' for Active; 'I' for Inactive)
REMARK    1  A    between atoms: C_1  and  N_2
REMARK    2  A    between atoms: C_6  and  S_7
REMARK    3  A    between atoms: N_8  and  C_9
REMARK    4  A    between atoms: C_12  and  N_13
REMARK                            x       y       z     vdW  Elec       q    Type
REMARK                         _______ _______ _______ _____ _____    ______ ____
ROOT
ATOM      1  C   UNL     1       6.318   3.818  13.840  0.00  0.00    +0.000 C 
ATOM      2  N   UNL     1       6.085   4.336  15.187  0.00  0.00    +0.000 NA
ATOM      3  C   UNL     1       4.982   3.602  15.835  0.00  0.00    +0.000 C 
ATOM      4  C   UNL     1       4.687   4.134  17.253  0.00  0.00    +0.000 C 
ATOM      5  N   UNL     1       4.362   5.567  17.212  0.00  0.00    +0.000 N 
ATOM      6  C   UNL     1       3.340   6.193  17.909  0.00  0.00    +0.000 C 
ATOM      7  N   UNL     1       3.226   7.499  17.930  0.00  0.00    +0.000 NA
ATOM      8  C   UNL     1       5.422   6.354  16.553  0.00  0.00    +0.000 C 
ATOM      9  C   UNL     1       5.751   5.777  15.152  0.00  0.00    +0.000 C 
ENDROOT
BRANCH   7  10
ATOM     10  C   UNL     1       2.232   8.219  18.612  0.00  0.00    +0.000 A 
ATOM     11  C   UNL     1       1.977   8.061  19.981  0.00  0.00    +0.000 A 
ATOM     12  C   UNL     1       0.977   8.793  20.626  0.00  0.00    +0.000 A 
ATOM     13  C   UNL     1       0.272   9.767  19.916  0.00  0.00    +0.000 A 
ATOM     14  C   UNL     1       0.562  10.005  18.568  0.00  0.00    +0.000 A 
ATOM     15  C   UNL     1       1.534   9.222  17.924  0.00  0.00    +0.000 A 
BRANCH  13  16
ATOM     16  N   UNL     1      -0.760  10.553  20.602  0.00  0.00    +0.000 N 
ATOM     17  O   UNL     1      -1.537  11.221  19.902  0.00  0.00    +0.000 OA
ATOM     18  O   UNL     1      -0.798  10.504  21.840  0.00  0.00    +0.000 OA
ENDBRANCH  13  16
ENDBRANCH   7  10
BRANCH   6  19
ATOM     19  S   UNL     1       2.192   5.131  18.747  0.00  0.00    +0.000 S 
ATOM     20  H   UNL     1       3.146   4.388  19.324  0.00  0.00    +0.000 HD
ENDBRANCH   6  19
TORSDOF 3
ENDMDL
