MODEL 1
REMARK VINA RESULT:      -7.9      0.000      0.000
REMARK  Name = 
REMARK  6 active torsions:
REMARK  status: ('A' for Active; 'I' for Inactive)
REMARK    1  A    between atoms: C_2  and  C_3
REMARK    2  A    between atoms: C_3  and  O_4
REMARK    3  A    between atoms: C_7  and  C_8
REMARK    4  A    between atoms: C_13  and  O_14
REMARK    5  A    between atoms: C_19  and  C_20
REMARK    6  A    between atoms: C_19  and  C_21
REMARK                            x       y       z     vdW  Elec       q    Type
REMARK                         _______ _______ _______ _____ _____    ______ ____
ROOT
ATOM      1  C   UNL     1       2.367   6.627  18.457  0.00  0.00    +0.000 C 
ATOM      2  C   UNL     1       2.698   7.915  17.667  0.00  0.00    +0.000 C 
ATOM      3  C   UNL     1       1.760   9.088  17.939  0.00  0.00    +0.000 C 
ATOM      4  C   UNL     1       1.396   9.271  19.384  0.00  0.00    +0.000 A 
ATOM      5  C   UNL     1       0.836  10.488  19.800  0.00  0.00    +0.000 A 
ATOM      6  C   UNL     1       0.438  10.658  21.123  0.00  0.00    +0.000 A 
ATOM      7  C   UNL     1       0.600   9.646  22.054  0.00  0.00    +0.000 A 
ATOM      8  C   UNL     1       1.147   8.436  21.650  0.00  0.00    +0.000 A 
ATOM      9  C   UNL     1       1.532   8.237  20.310  0.00  0.00    +0.000 A 
ATOM     10  C   UNL     1       2.069   6.892  19.938  0.00  0.00    +0.000 C 
ENDROOT
BRANCH   1  14
ATOM     11  C   UNL     1       3.851   3.286  19.206  0.00  0.00    +0.000 C 
ATOM     12  C   UNL     1       5.069   4.161  19.511  0.00  0.00    +0.000 C 
ATOM     13  C   UNL     1       4.550   5.584  19.397  0.00  0.00    +0.000 C 
ATOM     14  C   UNL     1       3.492   5.568  18.263  0.00  0.00    +0.000 C 
ATOM     15  C   UNL     1       3.125   4.042  18.036  0.00  0.00    +0.000 C 
ATOM     16  C   UNL     1       3.714   3.656  16.649  0.00  0.00    +0.000 C 
ATOM     17  C   UNL     1       1.642   3.630  17.929  0.00  0.00    +0.000 C 
BRANCH  11  19
ATOM     18  C   UNL     1       2.322   3.052  21.406  0.00  0.00    +0.000 C 
ATOM     19  C   UNL     1       3.012   3.128  20.418  0.00  0.00    +0.000 C 
ENDBRANCH  11  19
BRANCH  11  20
ATOM     20  O   UNL     1       4.264   1.978  18.824  0.00  0.00    +0.000 OA
ATOM     21  H   UNL     1       4.679   2.033  17.952  0.00  0.00    +0.000 HD
ENDBRANCH  11  20
ENDBRANCH   1  14
BRANCH   6  22
ATOM     22  O   UNL     1      -0.134  11.824  21.539  0.00  0.00    +0.000 OA
ATOM     23  H   UNL     1      -0.729  11.619  22.278  0.00  0.00    +0.000 HD
ENDBRANCH   6  22
TORSDOF 4
ENDMDL
MODEL 2
REMARK VINA RESULT:      -7.5      1.260      3.107
REMARK  Name = 
REMARK  6 active torsions:
REMARK  status: ('A' for Active; 'I' for Inactive)
REMARK    1  A    between atoms: C_2  and  C_3
REMARK    2  A    between atoms: C_3  and  O_4
REMARK    3  A    between atoms: C_7  and  C_8
REMARK    4  A    between atoms: C_13  and  O_14
REMARK    5  A    between atoms: C_19  and  C_20
REMARK    6  A    between atoms: C_19  and  C_21
REMARK                            x       y       z     vdW  Elec       q    Type
REMARK                         _______ _______ _______ _____ _____    ______ ____
ROOT
ATOM      1  C   UNL     1       2.620   6.287  19.709  0.00  0.00    +0.000 C 
ATOM      2  C   UNL     1       1.474   6.386  20.745  0.00  0.00    +0.000 C 
ATOM      3  C   UNL     1       1.182   7.800  21.239  0.00  0.00    +0.000 C 
ATOM      4  C   UNL     1       1.200   8.850  20.167  0.00  0.00    +0.000 A 
ATOM      5  C   UNL     1       0.621  10.101  20.424  0.00  0.00    +0.000 A 
ATOM      6  C   UNL     1       0.677  11.108  19.466  0.00  0.00    +0.000 A 
ATOM      7  C   UNL     1       1.285  10.896  18.239  0.00  0.00    +0.000 A 
ATOM      8  C   UNL     1       1.866   9.662  17.978  0.00  0.00    +0.000 A 
ATOM      9  C   UNL     1       1.842   8.640  18.946  0.00  0.00    +0.000 A 
ATOM     10  C   UNL     1       2.530   7.355  18.613  0.00  0.00    +0.000 C 
ENDROOT
BRANCH   1  14
ATOM     11  C   UNL     1       4.097   3.823  17.328  0.00  0.00    +0.000 C 
ATOM     12  C   UNL     1       2.617   3.604  17.008  0.00  0.00    +0.000 C 
ATOM     13  C   UNL     1       1.895   4.676  17.808  0.00  0.00    +0.000 C 
ATOM     14  C   UNL     1       2.699   4.847  19.123  0.00  0.00    +0.000 C 
ATOM     15  C   UNL     1       4.106   4.165  18.861  0.00  0.00    +0.000 C 
ATOM     16  C   UNL     1       4.136   2.879  19.737  0.00  0.00    +0.000 C 
ATOM     17  C   UNL     1       5.395   4.912  19.267  0.00  0.00    +0.000 C 
BRANCH  11  19
ATOM     18  C   UNL     1       5.158   5.775  15.814  0.00  0.00    +0.000 C 
ATOM     19  C   UNL     1       4.656   4.901  16.479  0.00  0.00    +0.000 C 
ENDBRANCH  11  19
BRANCH  11  20
ATOM     20  O   UNL     1       4.845   2.647  17.037  0.00  0.00    +0.000 OA
ATOM     21  H   UNL     1       5.752   2.779  17.348  0.00  0.00    +0.000 HD
ENDBRANCH  11  20
ENDBRANCH   1  14
BRANCH   6  22
ATOM     22  O   UNL     1       0.144  12.340  19.709  0.00  0.00    +0.000 OA
ATOM     23  H   UNL     1      -0.172  12.354  20.627  0.00  0.00    +0.000 HD
ENDBRANCH   6  22
TORSDOF 4
ENDMDL
MODEL 3
REMARK VINA RESULT:      -7.2      2.976      6.498
REMARK  Name = 
REMARK  6 active torsions:
REMARK  status: ('A' for Active; 'I' for Inactive)
REMARK    1  A    between atoms: C_2  and  C_3
REMARK    2  A    between atoms: C_3  and  O_4
REMARK    3  A    between atoms: C_7  and  C_8
REMARK    4  A    between atoms: C_13  and  O_14
REMARK    5  A    between atoms: C_19  and  C_20
REMARK    6  A    between atoms: C_19  and  C_21
REMARK                            x       y       z     vdW  Elec       q    Type
REMARK                         _______ _______ _______ _____ _____    ______ ____
ROOT
ATOM      1  C   UNL     1       4.535   3.039  18.803  0.00  0.00    +0.000 C 
ATOM      2  C   UNL     1       5.071   4.433  19.211  0.00  0.00    +0.000 C 
ATOM      3  C   UNL     1       6.286   4.906  18.418  0.00  0.00    +0.000 C 
ATOM      4  C   UNL     1       6.215   4.627  16.945  0.00  0.00    +0.000 A 
ATOM      5  C   UNL     1       7.086   5.303  16.078  0.00  0.00    +0.000 A 
ATOM      6  C   UNL     1       7.076   5.019  14.716  0.00  0.00    +0.000 A 
ATOM      7  C   UNL     1       6.202   4.083  14.186  0.00  0.00    +0.000 A 
ATOM      8  C   UNL     1       5.340   3.405  15.038  0.00  0.00    +0.000 A 
ATOM      9  C   UNL     1       5.355   3.662  16.422  0.00  0.00    +0.000 A 
ATOM     10  C   UNL     1       4.433   2.859  17.284  0.00  0.00    +0.000 C 
ENDROOT
BRANCH   1  14
ATOM     11  C   UNL     1       1.323   4.214  20.295  0.00  0.00    +0.000 C 
ATOM     12  C   UNL     1       1.847   3.392  21.475  0.00  0.00    +0.000 C 
ATOM     13  C   UNL     1       3.247   2.978  21.055  0.00  0.00    +0.000 C 
ATOM     14  C   UNL     1       3.187   2.745  19.523  0.00  0.00    +0.000 C 
ATOM     15  C   UNL     1       1.849   3.441  19.033  0.00  0.00    +0.000 C 
ATOM     16  C   UNL     1       0.886   2.289  18.622  0.00  0.00    +0.000 C 
ATOM     17  C   UNL     1       1.883   4.349  17.786  0.00  0.00    +0.000 C 
BRANCH  11  19
ATOM     18  C   UNL     1       2.191   6.756  20.399  0.00  0.00    +0.000 C 
ATOM     19  C   UNL     1       1.813   5.610  20.380  0.00  0.00    +0.000 C 
ENDBRANCH  11  19
BRANCH  11  20
ATOM     20  O   UNL     1      -0.099   4.279  20.330  0.00  0.00    +0.000 OA
ATOM     21  H   UNL     1      -0.386   4.977  19.724  0.00  0.00    +0.000 HD
ENDBRANCH  11  20
ENDBRANCH   1  14
BRANCH   6  22
ATOM     22  O   UNL     1       7.935   5.645  13.861  0.00  0.00    +0.000 OA
ATOM     23  H   UNL     1       7.434   6.319  13.373  0.00  0.00    +0.000 HD
ENDBRANCH   6  22
TORSDOF 4
ENDMDL
MODEL 4
REMARK VINA RESULT:      -7.1      3.543      6.563
REMARK  Name = 
REMARK  6 active torsions:
REMARK  status: ('A' for Active; 'I' for Inactive)
REMARK    1  A    between atoms: C_2  and  C_3
REMARK    2  A    between atoms: C_3  and  O_4
REMARK    3  A    between atoms: C_7  and  C_8
REMARK    4  A    between atoms: C_13  and  O_14
REMARK    5  A    between atoms: C_19  and  C_20
REMARK    6  A    between atoms: C_19  and  C_21
REMARK                            x       y       z     vdW  Elec       q    Type
REMARK                         _______ _______ _______ _____ _____    ______ ____
ROOT
ATOM      1  C   UNL     1       5.217   4.041  18.973  0.00  0.00    +0.000 C 
ATOM      2  C   UNL     1       6.171   5.252  19.102  0.00  0.00    +0.000 C 
ATOM      3  C   UNL     1       7.248   5.332  18.023  0.00  0.00    +0.000 C 
ATOM      4  C   UNL     1       6.767   5.011  16.638  0.00  0.00    +0.000 A 
ATOM      5  C   UNL     1       7.556   5.377  15.537  0.00  0.00    +0.000 A 
ATOM      6  C   UNL     1       7.157   5.039  14.248  0.00  0.00    +0.000 A 
ATOM      7  C   UNL     1       5.974   4.354  14.022  0.00  0.00    +0.000 A 
ATOM      8  C   UNL     1       5.190   3.983  15.106  0.00  0.00    +0.000 A 
ATOM      9  C   UNL     1       5.591   4.294  16.419  0.00  0.00    +0.000 A 
ATOM     10  C   UNL     1       4.721   3.820  17.539  0.00  0.00    +0.000 C 
ENDROOT
BRANCH   1  14
ATOM     11  C   UNL     1       1.572   3.915  19.760  0.00  0.00    +0.000 C 
ATOM     12  C   UNL     1       1.893   5.293  20.343  0.00  0.00    +0.000 C 
ATOM     13  C   UNL     1       3.337   5.544  19.944  0.00  0.00    +0.000 C 
ATOM     14  C   UNL     1       4.044   4.165  19.989  0.00  0.00    +0.000 C 
ATOM     15  C   UNL     1       2.883   3.085  20.006  0.00  0.00    +0.000 C 
ATOM     16  C   UNL     1       2.903   2.448  21.426  0.00  0.00    +0.000 C 
ATOM     17  C   UNL     1       2.969   1.868  19.061  0.00  0.00    +0.000 C 
BRANCH  11  19
ATOM     18  C   UNL     1       0.950   4.158  17.156  0.00  0.00    +0.000 C 
ATOM     19  C   UNL     1       1.206   4.031  18.329  0.00  0.00    +0.000 C 
ENDBRANCH  11  19
BRANCH  11  20
ATOM     20  O   UNL     1       0.446   3.347  20.423  0.00  0.00    +0.000 OA
ATOM     21  H   UNL     1      -0.242   3.180  19.764  0.00  0.00    +0.000 HD
ENDBRANCH  11  20
ENDBRANCH   1  14
BRANCH   6  22
ATOM     22  O   UNL     1       7.924   5.362  13.168  0.00  0.00    +0.000 OA
ATOM     23  H   UNL     1       8.837   5.484  13.475  0.00  0.00    +0.000 HD
ENDBRANCH   6  22
TORSDOF 4
ENDMDL
MODEL 5
REMARK VINA RESULT:      -7.0      1.954      3.322
REMARK  Name = 
REMARK  6 active torsions:
REMARK  status: ('A' for Active; 'I' for Inactive)
REMARK    1  A    between atoms: C_2  and  C_3
REMARK    2  A    between atoms: C_3  and  O_4
REMARK    3  A    between atoms: C_7  and  C_8
REMARK    4  A    between atoms: C_13  and  O_14
REMARK    5  A    between atoms: C_19  and  C_20
REMARK    6  A    between atoms: C_19  and  C_21
REMARK                            x       y       z     vdW  Elec       q    Type
REMARK                         _______ _______ _______ _____ _____    ______ ____
ROOT
ATOM      1  C   UNL     1       3.316   7.161  18.620  0.00  0.00    +0.000 C 
ATOM      2  C   UNL     1       2.400   6.454  19.648  0.00  0.00    +0.000 C 
ATOM      3  C   UNL     1       1.676   7.393  20.608  0.00  0.00    +0.000 C 
ATOM      4  C   UNL     1       1.121   8.632  19.967  0.00  0.00    +0.000 A 
ATOM      5  C   UNL     1       0.159   9.386  20.655  0.00  0.00    +0.000 A 
ATOM      6  C   UNL     1      -0.326  10.568  20.104  0.00  0.00    +0.000 A 
ATOM      7  C   UNL     1       0.112  11.016  18.869  0.00  0.00    +0.000 A 
ATOM      8  C   UNL     1       1.069  10.278  18.184  0.00  0.00    +0.000 A 
ATOM      9  C   UNL     1       1.590   9.093  18.737  0.00  0.00    +0.000 A 
ATOM     10  C   UNL     1       2.652   8.378  17.965  0.00  0.00    +0.000 C 
ENDROOT
BRANCH   1  14
ATOM     11  C   UNL     1       6.115   5.243  17.068  0.00  0.00    +0.000 C 
ATOM     12  C   UNL     1       5.521   5.863  15.801  0.00  0.00    +0.000 C 
ATOM     13  C   UNL     1       4.450   6.812  16.312  0.00  0.00    +0.000 C 
ATOM     14  C   UNL     1       3.841   6.139  17.569  0.00  0.00    +0.000 C 
ATOM     15  C   UNL     1       4.869   5.010  17.995  0.00  0.00    +0.000 C 
ATOM     16  C   UNL     1       4.173   3.652  17.691  0.00  0.00    +0.000 C 
ATOM     17  C   UNL     1       5.282   4.884  19.477  0.00  0.00    +0.000 C 
BRANCH  11  19
ATOM     18  C   UNL     1       7.917   6.911  18.163  0.00  0.00    +0.000 C 
ATOM     19  C   UNL     1       7.130   6.147  17.659  0.00  0.00    +0.000 C 
ENDBRANCH  11  19
BRANCH  11  20
ATOM     20  O   UNL     1       6.786   4.027  16.756  0.00  0.00    +0.000 OA
ATOM     21  H   UNL     1       7.244   3.720  17.551  0.00  0.00    +0.000 HD
ENDBRANCH  11  20
ENDBRANCH   1  14
BRANCH   6  22
ATOM     22  O   UNL     1      -1.241  11.330  20.771  0.00  0.00    +0.000 OA
ATOM     23  H   UNL     1      -0.846  12.203  20.928  0.00  0.00    +0.000 HD
ENDBRANCH   6  22
TORSDOF 4
ENDMDL
MODEL 6
REMARK VINA RESULT:      -6.9      1.082      1.672
REMARK  Name = 
REMARK  6 active torsions:
REMARK  status: ('A' for Active; 'I' for Inactive)
REMARK    1  A    between atoms: C_2  and  C_3
REMARK    2  A    between atoms: C_3  and  O_4
REMARK    3  A    between atoms: C_7  and  C_8
REMARK    4  A    between atoms: C_13  and  O_14
REMARK    5  A    between atoms: C_19  and  C_20
REMARK    6  A    between atoms: C_19  and  C_21
REMARK                            x       y       z     vdW  Elec       q    Type
REMARK                         _______ _______ _______ _____ _____    ______ ____
ROOT
ATOM      1  C   UNL     1       2.243   6.370  19.272  0.00  0.00    +0.000 C 
ATOM      2  C   UNL     1       2.980   7.249  18.233  0.00  0.00    +0.000 C 
ATOM      3  C   UNL     1       2.231   8.513  17.822  0.00  0.00    +0.000 C 
ATOM      4  C   UNL     1       1.570   9.241  18.956  0.00  0.00    +0.000 A 
ATOM      5  C   UNL     1       1.155  10.568  18.768  0.00  0.00    +0.000 A 
ATOM      6  C   UNL     1       0.488  11.242  19.787  0.00  0.00    +0.000 A 
ATOM      7  C   UNL     1       0.237  10.631  21.004  0.00  0.00    +0.000 A 
ATOM      8  C   UNL     1       0.639   9.316  21.197  0.00  0.00    +0.000 A 
ATOM      9  C   UNL     1       1.291   8.610  20.168  0.00  0.00    +0.000 A 
ATOM     10  C   UNL     1       1.652   7.183  20.430  0.00  0.00    +0.000 C 
ENDROOT
BRANCH   1  14
ATOM     11  C   UNL     1       3.149   2.754  19.427  0.00  0.00    +0.000 C 
ATOM     12  C   UNL     1       3.138   3.060  20.926  0.00  0.00    +0.000 C 
ATOM     13  C   UNL     1       2.620   4.486  21.017  0.00  0.00    +0.000 C 
ATOM     14  C   UNL     1       3.173   5.225  19.771  0.00  0.00    +0.000 C 
ATOM     15  C   UNL     1       3.651   4.090  18.772  0.00  0.00    +0.000 C 
ATOM     16  C   UNL     1       5.205   4.167  18.739  0.00  0.00    +0.000 C 
ATOM     17  C   UNL     1       3.251   4.176  17.283  0.00  0.00    +0.000 C 
BRANCH  11  19
ATOM     18  C   UNL     1       0.681   2.055  18.622  0.00  0.00    +0.000 C 
ATOM     19  C   UNL     1       1.800   2.343  18.973  0.00  0.00    +0.000 C 
ENDBRANCH  11  19
BRANCH  11  20
ATOM     20  O   UNL     1       4.021   1.662  19.152  0.00  0.00    +0.000 OA
ATOM     21  H   UNL     1       4.105   1.130  19.956  0.00  0.00    +0.000 HD
ENDBRANCH  11  20
ENDBRANCH   1  14
BRANCH   6  22
ATOM     22  O   UNL     1       0.052  12.523  19.613  0.00  0.00    +0.000 OA
ATOM     23  H   UNL     1      -0.753  12.639  20.142  0.00  0.00    +0.000 HD
ENDBRANCH   6  22
TORSDOF 4
ENDMDL
MODEL 7
REMARK VINA RESULT:      -6.8      1.204      2.148
REMARK  Name = 
REMARK  6 active torsions:
REMARK  status: ('A' for Active; 'I' for Inactive)
REMARK    1  A    between atoms: C_2  and  C_3
REMARK    2  A    between atoms: C_3  and  O_4
REMARK    3  A    between atoms: C_7  and  C_8
REMARK    4  A    between atoms: C_13  and  O_14
REMARK    5  A    between atoms: C_19  and  C_20
REMARK    6  A    between atoms: C_19  and  C_21
REMARK                            x       y       z     vdW  Elec       q    Type
REMARK                         _______ _______ _______ _____ _____    ______ ____
ROOT
ATOM      1  C   UNL     1       3.395   6.120  19.375  0.00  0.00    +0.000 C 
ATOM      2  C   UNL     1       2.305   5.999  20.467  0.00  0.00    +0.000 C 
ATOM      3  C   UNL     1       1.744   7.331  20.957  0.00  0.00    +0.000 C 
ATOM      4  C   UNL     1       1.487   8.335  19.871  0.00  0.00    +0.000 A 
ATOM      5  C   UNL     1       0.668   9.441  20.142  0.00  0.00    +0.000 A 
ATOM      6  C   UNL     1       0.463  10.414  19.168  0.00  0.00    +0.000 A 
ATOM      7  C   UNL     1       1.043  10.305  17.915  0.00  0.00    +0.000 A 
ATOM      8  C   UNL     1       1.860   9.217  17.640  0.00  0.00    +0.000 A 
ATOM      9  C   UNL     1       2.099   8.236  18.622  0.00  0.00    +0.000 A 
ATOM     10  C   UNL     1       3.028   7.118  18.271  0.00  0.00    +0.000 C 
ENDROOT
BRANCH   1  14
ATOM     11  C   UNL     1       2.805   2.439  19.202  0.00  0.00    +0.000 C 
ATOM     12  C   UNL     1       4.308   2.426  19.492  0.00  0.00    +0.000 C 
ATOM     13  C   UNL     1       4.656   3.882  19.748  0.00  0.00    +0.000 C 
ATOM     14  C   UNL     1       3.749   4.715  18.806  0.00  0.00    +0.000 C 
ATOM     15  C   UNL     1       2.600   3.730  18.332  0.00  0.00    +0.000 C 
ATOM     16  C   UNL     1       2.860   3.454  16.823  0.00  0.00    +0.000 C 
ATOM     17  C   UNL     1       1.133   4.209  18.366  0.00  0.00    +0.000 C 
BRANCH  11  19
ATOM     18  C   UNL     1       1.434   2.504  21.514  0.00  0.00    +0.000 C 
ATOM     19  C   UNL     1       2.034   2.451  20.468  0.00  0.00    +0.000 C 
ENDBRANCH  11  19
BRANCH  11  20
ATOM     20  O   UNL     1       2.425   1.257  18.506  0.00  0.00    +0.000 OA
ATOM     21  H   UNL     1       3.136   0.608  18.598  0.00  0.00    +0.000 HD
ENDBRANCH  11  20
ENDBRANCH   1  14
BRANCH   6  22
ATOM     22  O   UNL     1      -0.307  11.511  19.422  0.00  0.00    +0.000 OA
ATOM     23  H   UNL     1       0.205  12.112  19.987  0.00  0.00    +0.000 HD
ENDBRANCH   6  22
TORSDOF 4
ENDMDL
MODEL 8
REMARK VINA RESULT:      -6.6      9.208     10.362
REMARK  Name = 
REMARK  6 active torsions:
REMARK  status: ('A' for Active; 'I' for Inactive)
REMARK    1  A    between atoms: C_2  and  C_3
REMARK    2  A    between atoms: C_3  and  O_4
REMARK    3  A    between atoms: C_7  and  C_8
REMARK    4  A    between atoms: C_13  and  O_14
REMARK    5  A    between atoms: C_19  and  C_20
REMARK    6  A    between atoms: C_19  and  C_21
REMARK                            x       y       z     vdW  Elec       q    Type
REMARK                         _______ _______ _______ _____ _____    ______ ____
ROOT
ATOM      1  C   UNL     1       9.587  13.781  21.197  0.00  0.00    +0.000 C 
ATOM      2  C   UNL     1      10.016  14.904  22.171  0.00  0.00    +0.000 C 
ATOM      3  C   UNL     1       9.040  15.163  23.316  0.00  0.00    +0.000 C 
ATOM      4  C   UNL     1       8.472  13.923  23.942  0.00  0.00    +0.000 A 
ATOM      5  C   UNL     1       7.850  14.013  25.196  0.00  0.00    +0.000 A 
ATOM      6  C   UNL     1       7.267  12.887  25.769  0.00  0.00    +0.000 A 
ATOM      7  C   UNL     1       7.302  11.659  25.129  0.00  0.00    +0.000 A 
ATOM      8  C   UNL     1       7.911  11.561  23.885  0.00  0.00    +0.000 A 
ATOM      9  C   UNL     1       8.483  12.696  23.279  0.00  0.00    +0.000 A 
ATOM     10  C   UNL     1       9.079  12.526  21.918  0.00  0.00    +0.000 C 
ENDROOT
BRANCH   1  14
ATOM     11  C   UNL     1      10.874  11.984  18.191  0.00  0.00    +0.000 C 
ATOM     12  C   UNL     1      11.968  11.594  19.188  0.00  0.00    +0.000 C 
ATOM     13  C   UNL     1      11.478  12.138  20.519  0.00  0.00    +0.000 C 
ATOM     14  C   UNL     1      10.736  13.461  20.198  0.00  0.00    +0.000 C 
ATOM     15  C   UNL     1      10.454  13.431  18.637  0.00  0.00    +0.000 C 
ATOM     16  C   UNL     1      11.375  14.516  18.008  0.00  0.00    +0.000 C 
ATOM     17  C   UNL     1       9.049  13.799  18.116  0.00  0.00    +0.000 C 
BRANCH  11  19
ATOM     18  C   UNL     1       8.871  10.196  18.321  0.00  0.00    +0.000 C 
ATOM     19  C   UNL     1       9.761  11.006  18.235  0.00  0.00    +0.000 C 
ENDBRANCH  11  19
BRANCH  11  20
ATOM     20  O   UNL     1      11.384  11.960  16.862  0.00  0.00    +0.000 OA
ATOM     21  H   UNL     1      10.643  12.074  16.250  0.00  0.00    +0.000 HD
ENDBRANCH  11  20
ENDBRANCH   1  14
BRANCH   6  22
ATOM     22  O   UNL     1       6.632  12.961  26.974  0.00  0.00    +0.000 OA
ATOM     23  H   UNL     1       7.194  13.473  27.578  0.00  0.00    +0.000 HD
ENDBRANCH   6  22
TORSDOF 4
ENDMDL
MODEL 9
REMARK VINA RESULT:      -6.3      1.788      7.300
REMARK  Name = 
REMARK  6 active torsions:
REMARK  status: ('A' for Active; 'I' for Inactive)
REMARK    1  A    between atoms: C_2  and  C_3
REMARK    2  A    between atoms: C_3  and  O_4
REMARK    3  A    between atoms: C_7  and  C_8
REMARK    4  A    between atoms: C_13  and  O_14
REMARK    5  A    between atoms: C_19  and  C_20
REMARK    6  A    between atoms: C_19  and  C_21
REMARK                            x       y       z     vdW  Elec       q    Type
REMARK                         _______ _______ _______ _____ _____    ______ ____
ROOT
ATOM      1  C   UNL     1       1.505   9.883  19.004  0.00  0.00    +0.000 C 
ATOM      2  C   UNL     1       1.943   9.300  17.639  0.00  0.00    +0.000 C 
ATOM      3  C   UNL     1       2.914   8.126  17.730  0.00  0.00    +0.000 C 
ATOM      4  C   UNL     1       2.587   7.129  18.804  0.00  0.00    +0.000 A 
ATOM      5  C   UNL     1       3.184   5.861  18.766  0.00  0.00    +0.000 A 
ATOM      6  C   UNL     1       2.940   4.942  19.781  0.00  0.00    +0.000 A 
ATOM      7  C   UNL     1       2.095   5.249  20.835  0.00  0.00    +0.000 A 
ATOM      8  C   UNL     1       1.504   6.504  20.885  0.00  0.00    +0.000 A 
ATOM      9  C   UNL     1       1.760   7.455  19.879  0.00  0.00    +0.000 A 
ATOM     10  C   UNL     1       1.127   8.802  20.024  0.00  0.00    +0.000 C 
ENDROOT
BRANCH   1  14
ATOM     11  C   UNL     1      -1.022  12.242  20.410  0.00  0.00    +0.000 C 
ATOM     12  C   UNL     1      -1.935  11.443  19.477  0.00  0.00    +0.000 C 
ATOM     13  C   UNL     1      -1.052  10.326  18.949  0.00  0.00    +0.000 C 
ATOM     14  C   UNL     1       0.369  10.930  18.807  0.00  0.00    +0.000 C 
ATOM     15  C   UNL     1       0.357  12.268  19.658  0.00  0.00    +0.000 C 
ATOM     16  C   UNL     1       0.430  13.436  18.632  0.00  0.00    +0.000 C 
ATOM     17  C   UNL     1       1.525  12.559  20.624  0.00  0.00    +0.000 C 
BRANCH  11  19
ATOM     18  C   UNL     1      -0.944  11.048  22.817  0.00  0.00    +0.000 C 
ATOM     19  C   UNL     1      -0.955  11.600  21.744  0.00  0.00    +0.000 C 
ENDBRANCH  11  19
BRANCH  11  20
ATOM     20  O   UNL     1      -1.545  13.550  20.615  0.00  0.00    +0.000 OA
ATOM     21  H   UNL     1      -0.964  14.183  20.170  0.00  0.00    +0.000 HD
ENDBRANCH  11  20
ENDBRANCH   1  14
BRANCH   6  22
ATOM     22  O   UNL     1       3.534   3.714  19.776  0.00  0.00    +0.000 OA
ATOM     23  H   UNL     1       3.923   3.574  18.898  0.00  0.00    +0.000 HD
ENDBRANCH   6  22
TORSDOF 4
ENDMDL
