MODEL 1
REMARK VINA RESULT:      -6.3      0.000      0.000
REMARK  Name = 
REMARK  7 active torsions:
REMARK  status: ('A' for Active; 'I' for Inactive)
REMARK    1  A    between atoms: C_1  and  O_2
REMARK    2  A    between atoms: O_2  and  C_3
REMARK    3  A    between atoms: C_6  and  C_7
REMARK    4  A    between atoms: C_8  and  C_9
REMARK    5  A    between atoms: C_12  and  O_13
REMARK    6  A    between atoms: C_18  and  S_19
REMARK    7  A    between atoms: S_19  and  C_22
REMARK                            x       y       z     vdW  Elec       q    Type
REMARK                         _______ _______ _______ _____ _____    ______ ____
ROOT
ATOM      1  C   UNL     1      -0.800  12.800  21.401  0.00  0.00    +0.000 C 
ATOM      2  C   UNL     1      -1.731  11.971  21.923  0.00  0.00    +0.000 C 
ATOM      3  C   UNL     1      -1.015  10.683  22.214  0.00  0.00    +0.000 C 
ATOM      4  C   UNL     1      -0.674   9.954  20.913  0.00  0.00    +0.000 C 
ATOM      5  C   UNL     1       0.529  10.779  20.422  0.00  0.00    +0.000 C 
ATOM      6  C   UNL     1       0.487  12.000  21.339  0.00  0.00    +0.000 C 
ATOM      7  O   UNL     1       0.292  11.227  22.580  0.00  0.00    +0.000 OA
ENDROOT
BRANCH   1  11
ATOM      8  C   UNL     1      -1.289  16.978  22.188  0.00  0.00    +0.000 A 
ATOM      9  C   UNL     1      -0.689  16.132  23.119  0.00  0.00    +0.000 A 
ATOM     10  C   UNL     1      -0.464  14.789  22.815  0.00  0.00    +0.000 A 
ATOM     11  C   UNL     1      -0.862  14.255  21.580  0.00  0.00    +0.000 A 
ATOM     12  C   UNL     1      -1.461  15.107  20.646  0.00  0.00    +0.000 A 
ATOM     13  C   UNL     1      -1.669  16.465  20.946  0.00  0.00    +0.000 A 
BRANCH   8  15
ATOM     14  C   UNL     1      -2.485  18.412  23.648  0.00  0.00    +0.000 C 
ATOM     15  O   UNL     1      -1.502  18.252  22.633  0.00  0.00    +0.000 OA
ENDBRANCH   8  15
ENDBRANCH   1  11
BRANCH   2  16
ATOM     16  C   UNL     1      -2.992  12.301  22.588  0.00  0.00    +0.000 A 
ATOM     17  C   UNL     1      -3.126  12.203  23.978  0.00  0.00    +0.000 A 
ATOM     18  C   UNL     1      -4.327  12.565  24.600  0.00  0.00    +0.000 A 
ATOM     19  C   UNL     1      -5.395  13.013  23.827  0.00  0.00    +0.000 A 
ATOM     20  C   UNL     1      -5.290  13.086  22.445  0.00  0.00    +0.000 A 
ATOM     21  C   UNL     1      -4.089  12.730  21.826  0.00  0.00    +0.000 A 
BRANCH  19  22
ATOM     22  O   UNL     1      -6.575  13.398  24.393  0.00  0.00    +0.000 OA
ATOM     23  H   UNL     1      -7.035  12.607  24.719  0.00  0.00    +0.000 HD
ENDBRANCH  19  22
ENDBRANCH   2  16
BRANCH   5  24
ATOM     24  S   UNL     1       0.568  11.037  18.697  0.00  0.00    +0.000 S 
ATOM     25  O   UNL     1       0.925  12.426  18.478  0.00  0.00    +0.000 OA
ATOM     26  O   UNL     1       1.343   9.982  18.075  0.00  0.00    +0.000 OA
BRANCH  24  27
ATOM     27  C   UNL     1      -1.120  10.863  18.161  0.00  0.00    +0.000 A 
ATOM     28  C   UNL     1      -2.055  11.866  18.451  0.00  0.00    +0.000 A 
ATOM     29  C   UNL     1      -3.362  11.746  17.970  0.00  0.00    +0.000 A 
ATOM     30  C   UNL     1      -3.723  10.642  17.197  0.00  0.00    +0.000 A 
ATOM     31  C   UNL     1      -2.781   9.657  16.897  0.00  0.00    +0.000 A 
ATOM     32  C   UNL     1      -1.474   9.767  17.374  0.00  0.00    +0.000 A 
ENDBRANCH  24  27
ENDBRANCH   5  24
TORSDOF 6
ENDMDL
MODEL 2
REMARK VINA RESULT:      -6.3      2.582      7.078
REMARK  Name = 
REMARK  7 active torsions:
REMARK  status: ('A' for Active; 'I' for Inactive)
REMARK    1  A    between atoms: C_1  and  O_2
REMARK    2  A    between atoms: O_2  and  C_3
REMARK    3  A    between atoms: C_6  and  C_7
REMARK    4  A    between atoms: C_8  and  C_9
REMARK    5  A    between atoms: C_12  and  O_13
REMARK    6  A    between atoms: C_18  and  S_19
REMARK    7  A    between atoms: S_19  and  C_22
REMARK                            x       y       z     vdW  Elec       q    Type
REMARK                         _______ _______ _______ _____ _____    ______ ____
ROOT
ATOM      1  C   UNL     1      -1.732  12.582  20.996  0.00  0.00    +0.000 C 
ATOM      2  C   UNL     1      -0.953  13.654  21.258  0.00  0.00    +0.000 C 
ATOM      3  C   UNL     1      -0.633  13.578  22.724  0.00  0.00    +0.000 C 
ATOM      4  C   UNL     1      -1.872  13.907  23.561  0.00  0.00    +0.000 C 
ATOM      5  C   UNL     1      -2.668  12.596  23.431  0.00  0.00    +0.000 C 
ATOM      6  C   UNL     1      -1.919  11.864  22.319  0.00  0.00    +0.000 C 
ATOM      7  O   UNL     1      -0.576  12.124  22.870  0.00  0.00    +0.000 OA
ENDROOT
BRANCH   1  11
ATOM      8  C   UNL     1      -2.031  10.404  17.324  0.00  0.00    +0.000 A 
ATOM      9  C   UNL     1      -2.984  11.357  17.679  0.00  0.00    +0.000 A 
ATOM     10  C   UNL     1      -2.829  12.116  18.840  0.00  0.00    +0.000 A 
ATOM     11  C   UNL     1      -1.730  11.916  19.688  0.00  0.00    +0.000 A 
ATOM     12  C   UNL     1      -0.774  10.961  19.328  0.00  0.00    +0.000 A 
ATOM     13  C   UNL     1      -0.920  10.210  18.147  0.00  0.00    +0.000 A 
BRANCH   8  15
ATOM     14  C   UNL     1      -2.984  10.407  15.153  0.00  0.00    +0.000 C 
ATOM     15  O   UNL     1      -2.332   9.693  16.196  0.00  0.00    +0.000 OA
ENDBRANCH   8  15
ENDBRANCH   1  11
BRANCH   2  16
ATOM     16  C   UNL     1      -0.122  14.437  20.343  0.00  0.00    +0.000 A 
ATOM     17  C   UNL     1      -0.663  15.488  19.593  0.00  0.00    +0.000 A 
ATOM     18  C   UNL     1       0.157  16.254  18.756  0.00  0.00    +0.000 A 
ATOM     19  C   UNL     1       1.514  15.957  18.662  0.00  0.00    +0.000 A 
ATOM     20  C   UNL     1       2.060  14.899  19.375  0.00  0.00    +0.000 A 
ATOM     21  C   UNL     1       1.243  14.139  20.215  0.00  0.00    +0.000 A 
BRANCH  19  22
ATOM     22  O   UNL     1       2.354  16.691  17.877  0.00  0.00    +0.000 OA
ATOM     23  H   UNL     1       3.144  16.917  18.393  0.00  0.00    +0.000 HD
ENDBRANCH  19  22
ENDBRANCH   2  16
BRANCH   5  24
ATOM     24  S   UNL     1      -4.391  12.814  23.268  0.00  0.00    +0.000 S 
ATOM     25  O   UNL     1      -4.792  12.167  22.034  0.00  0.00    +0.000 OA
ATOM     26  O   UNL     1      -5.036  12.461  24.517  0.00  0.00    +0.000 OA
BRANCH  24  27
ATOM     27  C   UNL     1      -4.618  14.561  23.013  0.00  0.00    +0.000 A 
ATOM     28  C   UNL     1      -4.416  15.117  21.743  0.00  0.00    +0.000 A 
ATOM     29  C   UNL     1      -4.657  16.479  21.543  0.00  0.00    +0.000 A 
ATOM     30  C   UNL     1      -5.110  17.270  22.599  0.00  0.00    +0.000 A 
ATOM     31  C   UNL     1      -5.327  16.705  23.856  0.00  0.00    +0.000 A 
ATOM     32  C   UNL     1      -5.086  15.347  24.067  0.00  0.00    +0.000 A 
ENDBRANCH  24  27
ENDBRANCH   5  24
TORSDOF 6
ENDMDL
MODEL 3
REMARK VINA RESULT:      -6.3      0.268      1.258
REMARK  Name = 
REMARK  7 active torsions:
REMARK  status: ('A' for Active; 'I' for Inactive)
REMARK    1  A    between atoms: C_1  and  O_2
REMARK    2  A    between atoms: O_2  and  C_3
REMARK    3  A    between atoms: C_6  and  C_7
REMARK    4  A    between atoms: C_8  and  C_9
REMARK    5  A    between atoms: C_12  and  O_13
REMARK    6  A    between atoms: C_18  and  S_19
REMARK    7  A    between atoms: S_19  and  C_22
REMARK                            x       y       z     vdW  Elec       q    Type
REMARK                         _______ _______ _______ _____ _____    ______ ____
ROOT
ATOM      1  C   UNL     1      -0.871  12.919  21.401  0.00  0.00    +0.000 C 
ATOM      2  C   UNL     1      -1.795  12.078  21.917  0.00  0.00    +0.000 C 
ATOM      3  C   UNL     1      -1.062  10.804  22.223  0.00  0.00    +0.000 C 
ATOM      4  C   UNL     1      -0.693  10.073  20.931  0.00  0.00    +0.000 C 
ATOM      5  C   UNL     1       0.502  10.915  20.450  0.00  0.00    +0.000 C 
ATOM      6  C   UNL     1       0.430  12.140  21.359  0.00  0.00    +0.000 C 
ATOM      7  O   UNL     1       0.232  11.371  22.602  0.00  0.00    +0.000 OA
ENDROOT
BRANCH   1  11
ATOM      8  C   UNL     1      -1.426  17.092  22.170  0.00  0.00    +0.000 A 
ATOM      9  C   UNL     1      -0.784  16.266  23.091  0.00  0.00    +0.000 A 
ATOM     10  C   UNL     1      -0.540  14.926  22.791  0.00  0.00    +0.000 A 
ATOM     11  C   UNL     1      -0.958  14.374  21.571  0.00  0.00    +0.000 A 
ATOM     12  C   UNL     1      -1.599  15.206  20.647  0.00  0.00    +0.000 A 
ATOM     13  C   UNL     1      -1.828  16.563  20.943  0.00  0.00    +0.000 A 
BRANCH   8  15
ATOM     14  C   UNL     1      -1.334  18.631  23.971  0.00  0.00    +0.000 C 
ATOM     15  O   UNL     1      -1.654  18.365  22.612  0.00  0.00    +0.000 OA
ENDBRANCH   8  15
ENDBRANCH   1  11
BRANCH   2  16
ATOM     16  C   UNL     1      -3.069  12.392  22.564  0.00  0.00    +0.000 A 
ATOM     17  C   UNL     1      -4.178  12.809  21.818  0.00  0.00    +0.000 A 
ATOM     18  C   UNL     1      -5.401  13.063  22.451  0.00  0.00    +0.000 A 
ATOM     19  C   UNL     1      -5.506  12.910  23.831  0.00  0.00    +0.000 A 
ATOM     20  C   UNL     1      -4.409  12.528  24.589  0.00  0.00    +0.000 A 
ATOM     21  C   UNL     1      -3.191  12.269  23.956  0.00  0.00    +0.000 A 
BRANCH  19  22
ATOM     22  O   UNL     1      -6.684  13.124  24.486  0.00  0.00    +0.000 OA
ATOM     23  H   UNL     1      -7.413  13.022  23.854  0.00  0.00    +0.000 HD
ENDBRANCH  19  22
ENDBRANCH   2  16
BRANCH   5  24
ATOM     24  S   UNL     1       0.558  11.164  18.724  0.00  0.00    +0.000 S 
ATOM     25  O   UNL     1       0.900  12.556  18.502  0.00  0.00    +0.000 OA
ATOM     26  O   UNL     1       1.353  10.115  18.117  0.00  0.00    +0.000 OA
BRANCH  24  27
ATOM     27  C   UNL     1      -1.121  10.966  18.169  0.00  0.00    +0.000 A 
ATOM     28  C   UNL     1      -1.504   9.799  17.495  0.00  0.00    +0.000 A 
ATOM     29  C   UNL     1      -2.840   9.629  17.120  0.00  0.00    +0.000 A 
ATOM     30  C   UNL     1      -3.782  10.611  17.429  0.00  0.00    +0.000 A 
ATOM     31  C   UNL     1      -3.396  11.762  18.117  0.00  0.00    +0.000 A 
ATOM     32  C   UNL     1      -2.064  11.942  18.493  0.00  0.00    +0.000 A 
ENDBRANCH  24  27
ENDBRANCH   5  24
TORSDOF 6
ENDMDL
MODEL 4
REMARK VINA RESULT:      -6.2      2.918      5.967
REMARK  Name = 
REMARK  7 active torsions:
REMARK  status: ('A' for Active; 'I' for Inactive)
REMARK    1  A    between atoms: C_1  and  O_2
REMARK    2  A    between atoms: O_2  and  C_3
REMARK    3  A    between atoms: C_6  and  C_7
REMARK    4  A    between atoms: C_8  and  C_9
REMARK    5  A    between atoms: C_12  and  O_13
REMARK    6  A    between atoms: C_18  and  S_19
REMARK    7  A    between atoms: S_19  and  C_22
REMARK                            x       y       z     vdW  Elec       q    Type
REMARK                         _______ _______ _______ _____ _____    ______ ____
ROOT
ATOM      1  C   UNL     1       0.681  13.952  21.211  0.00  0.00    +0.000 C 
ATOM      2  C   UNL     1       0.913  13.384  20.006  0.00  0.00    +0.000 C 
ATOM      3  C   UNL     1       2.400  13.448  19.805  0.00  0.00    +0.000 C 
ATOM      4  C   UNL     1       2.844  14.888  19.538  0.00  0.00    +0.000 C 
ATOM      5  C   UNL     1       2.779  15.481  20.957  0.00  0.00    +0.000 C 
ATOM      6  C   UNL     1       2.034  14.397  21.733  0.00  0.00    +0.000 C 
ATOM      7  O   UNL     1       2.826  13.277  21.193  0.00  0.00    +0.000 OA
ENDROOT
BRANCH   1  11
ATOM      8  C   UNL     1      -2.742  12.558  23.369  0.00  0.00    +0.000 A 
ATOM      9  C   UNL     1      -1.693  11.700  23.045  0.00  0.00    +0.000 A 
ATOM     10  C   UNL     1      -0.549  12.187  22.413  0.00  0.00    +0.000 A 
ATOM     11  C   UNL     1      -0.441  13.541  22.064  0.00  0.00    +0.000 A 
ATOM     12  C   UNL     1      -1.494  14.401  22.393  0.00  0.00    +0.000 A 
ATOM     13  C   UNL     1      -2.639  13.913  23.049  0.00  0.00    +0.000 A 
BRANCH   8  15
ATOM     14  C   UNL     1      -4.971  12.757  24.149  0.00  0.00    +0.000 C 
ATOM     15  O   UNL     1      -3.825  11.944  23.934  0.00  0.00    +0.000 OA
ENDBRANCH   8  15
ENDBRANCH   1  11
BRANCH   2  16
ATOM     16  C   UNL     1       0.089  12.433  19.260  0.00  0.00    +0.000 A 
ATOM     17  C   UNL     1      -1.100  12.835  18.640  0.00  0.00    +0.000 A 
ATOM     18  C   UNL     1      -1.853  11.920  17.894  0.00  0.00    +0.000 A 
ATOM     19  C   UNL     1      -1.419  10.602  17.781  0.00  0.00    +0.000 A 
ATOM     20  C   UNL     1      -0.259  10.179  18.415  0.00  0.00    +0.000 A 
ATOM     21  C   UNL     1       0.494  11.095  19.154  0.00  0.00    +0.000 A 
BRANCH  19  22
ATOM     22  O   UNL     1      -2.108   9.683  17.045  0.00  0.00    +0.000 OA
ATOM     23  H   UNL     1      -2.693  10.154  16.430  0.00  0.00    +0.000 HD
ENDBRANCH  19  22
ENDBRANCH   2  16
BRANCH   5  24
ATOM     24  S   UNL     1       2.177  17.116  21.027  0.00  0.00    +0.000 S 
ATOM     25  O   UNL     1       1.312  17.207  22.187  0.00  0.00    +0.000 OA
ATOM     26  O   UNL     1       3.284  18.039  20.873  0.00  0.00    +0.000 OA
BRANCH  24  27
ATOM     27  C   UNL     1       1.124  17.286  19.602  0.00  0.00    +0.000 A 
ATOM     28  C   UNL     1      -0.232  16.942  19.687  0.00  0.00    +0.000 A 
ATOM     29  C   UNL     1      -1.061  17.139  18.579  0.00  0.00    +0.000 A 
ATOM     30  C   UNL     1      -0.541  17.688  17.407  0.00  0.00    +0.000 A 
ATOM     31  C   UNL     1       0.806  18.045  17.336  0.00  0.00    +0.000 A 
ATOM     32  C   UNL     1       1.643  17.850  18.436  0.00  0.00    +0.000 A 
ENDBRANCH  24  27
ENDBRANCH   5  24
TORSDOF 6
ENDMDL
MODEL 5
REMARK VINA RESULT:      -6.2      2.068      4.962
REMARK  Name = 
REMARK  7 active torsions:
REMARK  status: ('A' for Active; 'I' for Inactive)
REMARK    1  A    between atoms: C_1  and  O_2
REMARK    2  A    between atoms: O_2  and  C_3
REMARK    3  A    between atoms: C_6  and  C_7
REMARK    4  A    between atoms: C_8  and  C_9
REMARK    5  A    between atoms: C_12  and  O_13
REMARK    6  A    between atoms: C_18  and  S_19
REMARK    7  A    between atoms: S_19  and  C_22
REMARK                            x       y       z     vdW  Elec       q    Type
REMARK                         _______ _______ _______ _____ _____    ______ ____
ROOT
ATOM      1  C   UNL     1      -1.730  12.500  21.353  0.00  0.00    +0.000 C 
ATOM      2  C   UNL     1      -0.974  13.608  21.187  0.00  0.00    +0.000 C 
ATOM      3  C   UNL     1      -0.325  13.461  19.839  0.00  0.00    +0.000 C 
ATOM      4  C   UNL     1       0.753  12.377  19.878  0.00  0.00    +0.000 C 
ATOM      5  C   UNL     1      -0.112  11.104  19.856  0.00  0.00    +0.000 C 
ATOM      6  C   UNL     1      -1.513  11.654  20.112  0.00  0.00    +0.000 C 
ATOM      7  O   UNL     1      -1.402  12.760  19.143  0.00  0.00    +0.000 OA
ENDROOT
BRANCH   1  11
ATOM      8  C   UNL     1      -5.336  12.941  23.614  0.00  0.00    +0.000 A 
ATOM      9  C   UNL     1      -5.326  13.102  22.230  0.00  0.00    +0.000 A 
ATOM     10  C   UNL     1      -4.160  12.875  21.499  0.00  0.00    +0.000 A 
ATOM     11  C   UNL     1      -2.968  12.510  22.141  0.00  0.00    +0.000 A 
ATOM     12  C   UNL     1      -2.981  12.346  23.530  0.00  0.00    +0.000 A 
ATOM     13  C   UNL     1      -4.162  12.556  24.265  0.00  0.00    +0.000 A 
BRANCH   8  15
ATOM     14  C   UNL     1      -7.695  12.719  23.606  0.00  0.00    +0.000 C 
ATOM     15  O   UNL     1      -6.525  13.248  24.214  0.00  0.00    +0.000 OA
ENDBRANCH   8  15
ENDBRANCH   1  11
BRANCH   2  16
ATOM     16  C   UNL     1      -1.104  14.918  21.825  0.00  0.00    +0.000 A 
ATOM     17  C   UNL     1      -1.873  15.933  21.246  0.00  0.00    +0.000 A 
ATOM     18  C   UNL     1      -2.021  17.166  21.894  0.00  0.00    +0.000 A 
ATOM     19  C   UNL     1      -1.386  17.382  23.114  0.00  0.00    +0.000 A 
ATOM     20  C   UNL     1      -0.594  16.397  23.686  0.00  0.00    +0.000 A 
ATOM     21  C   UNL     1      -0.452  15.166  23.042  0.00  0.00    +0.000 A 
BRANCH  19  22
ATOM     22  O   UNL     1      -1.521  18.559  23.791  0.00  0.00    +0.000 OA
ATOM     23  H   UNL     1      -2.433  18.628  24.114  0.00  0.00    +0.000 HD
ENDBRANCH  19  22
ENDBRANCH   2  16
BRANCH   5  24
ATOM     24  S   UNL     1       0.475   9.817  20.876  0.00  0.00    +0.000 S 
ATOM     25  O   UNL     1       1.444  10.396  21.786  0.00  0.00    +0.000 OA
ATOM     26  O   UNL     1      -0.653   9.069  21.396  0.00  0.00    +0.000 OA
BRANCH  24  27
ATOM     27  C   UNL     1       1.388   8.742  19.791  0.00  0.00    +0.000 A 
ATOM     28  C   UNL     1       1.688   9.152  18.485  0.00  0.00    +0.000 A 
ATOM     29  C   UNL     1       2.458   8.324  17.664  0.00  0.00    +0.000 A 
ATOM     30  C   UNL     1       2.935   7.107  18.151  0.00  0.00    +0.000 A 
ATOM     31  C   UNL     1       2.649   6.714  19.459  0.00  0.00    +0.000 A 
ATOM     32  C   UNL     1       1.877   7.532  20.285  0.00  0.00    +0.000 A 
ENDBRANCH  24  27
ENDBRANCH   5  24
TORSDOF 6
ENDMDL
MODEL 6
REMARK VINA RESULT:      -6.2      2.520      6.953
REMARK  Name = 
REMARK  7 active torsions:
REMARK  status: ('A' for Active; 'I' for Inactive)
REMARK    1  A    between atoms: C_1  and  O_2
REMARK    2  A    between atoms: O_2  and  C_3
REMARK    3  A    between atoms: C_6  and  C_7
REMARK    4  A    between atoms: C_8  and  C_9
REMARK    5  A    between atoms: C_12  and  O_13
REMARK    6  A    between atoms: C_18  and  S_19
REMARK    7  A    between atoms: S_19  and  C_22
REMARK                            x       y       z     vdW  Elec       q    Type
REMARK                         _______ _______ _______ _____ _____    ______ ____
ROOT
ATOM      1  C   UNL     1      -1.589  12.456  20.925  0.00  0.00    +0.000 C 
ATOM      2  C   UNL     1      -0.690  13.419  21.229  0.00  0.00    +0.000 C 
ATOM      3  C   UNL     1      -0.443  13.296  22.705  0.00  0.00    +0.000 C 
ATOM      4  C   UNL     1      -1.661  13.776  23.495  0.00  0.00    +0.000 C 
ATOM      5  C   UNL     1      -2.613  12.580  23.322  0.00  0.00    +0.000 C 
ATOM      6  C   UNL     1      -1.920  11.763  22.233  0.00  0.00    +0.000 C 
ATOM      7  O   UNL     1      -0.578  11.846  22.838  0.00  0.00    +0.000 OA
ENDROOT
BRANCH   1  11
ATOM      8  C   UNL     1      -2.000  10.332  17.233  0.00  0.00    +0.000 A 
ATOM      9  C   UNL     1      -2.888  11.346  17.586  0.00  0.00    +0.000 A 
ATOM     10  C   UNL     1      -2.694  12.083  18.755  0.00  0.00    +0.000 A 
ATOM     11  C   UNL     1      -1.619  11.802  19.612  0.00  0.00    +0.000 A 
ATOM     12  C   UNL     1      -0.727  10.786  19.253  0.00  0.00    +0.000 A 
ATOM     13  C   UNL     1      -0.913  10.056  18.065  0.00  0.00    +0.000 A 
BRANCH   8  15
ATOM     14  C   UNL     1      -3.012  10.396  15.091  0.00  0.00    +0.000 C 
ATOM     15  O   UNL     1      -2.337   9.652  16.096  0.00  0.00    +0.000 OA
ENDBRANCH   8  15
ENDBRANCH   1  11
BRANCH   2  16
ATOM     16  C   UNL     1       0.270  14.093  20.355  0.00  0.00    +0.000 A 
ATOM     17  C   UNL     1       1.575  13.610  20.202  0.00  0.00    +0.000 A 
ATOM     18  C   UNL     1       2.466  14.244  19.328  0.00  0.00    +0.000 A 
ATOM     19  C   UNL     1       2.052  15.369  18.619  0.00  0.00    +0.000 A 
ATOM     20  C   UNL     1       0.772  15.880  18.783  0.00  0.00    +0.000 A 
ATOM     21  C   UNL     1      -0.118  15.242  19.650  0.00  0.00    +0.000 A 
BRANCH  19  22
ATOM     22  O   UNL     1       2.879  16.004  17.740  0.00  0.00    +0.000 OA
ATOM     23  H   UNL     1       2.372  16.691  17.278  0.00  0.00    +0.000 HD
ENDBRANCH  19  22
ENDBRANCH   2  16
BRANCH   5  24
ATOM     24  S   UNL     1      -4.286  13.017  23.093  0.00  0.00    +0.000 S 
ATOM     25  O   UNL     1      -4.794  12.216  21.997  0.00  0.00    +0.000 OA
ATOM     26  O   UNL     1      -4.961  13.005  24.376  0.00  0.00    +0.000 OA
BRANCH  24  27
ATOM     27  C   UNL     1      -4.253  14.699  22.511  0.00  0.00    +0.000 A 
ATOM     28  C   UNL     1      -4.384  15.758  23.418  0.00  0.00    +0.000 A 
ATOM     29  C   UNL     1      -4.294  17.074  22.956  0.00  0.00    +0.000 A 
ATOM     30  C   UNL     1      -4.060  17.324  21.603  0.00  0.00    +0.000 A 
ATOM     31  C   UNL     1      -3.911  16.263  20.709  0.00  0.00    +0.000 A 
ATOM     32  C   UNL     1      -4.003  14.946  21.161  0.00  0.00    +0.000 A 
ENDBRANCH  24  27
ENDBRANCH   5  24
TORSDOF 6
ENDMDL
MODEL 7
REMARK VINA RESULT:      -6.2      2.524      6.840
REMARK  Name = 
REMARK  7 active torsions:
REMARK  status: ('A' for Active; 'I' for Inactive)
REMARK    1  A    between atoms: C_1  and  O_2
REMARK    2  A    between atoms: O_2  and  C_3
REMARK    3  A    between atoms: C_6  and  C_7
REMARK    4  A    between atoms: C_8  and  C_9
REMARK    5  A    between atoms: C_12  and  O_13
REMARK    6  A    between atoms: C_18  and  S_19
REMARK    7  A    between atoms: S_19  and  C_22
REMARK                            x       y       z     vdW  Elec       q    Type
REMARK                         _______ _______ _______ _____ _____    ______ ____
ROOT
ATOM      1  C   UNL     1      -2.200  12.773  21.078  0.00  0.00    +0.000 C 
ATOM      2  C   UNL     1      -1.062  13.457  21.330  0.00  0.00    +0.000 C 
ATOM      3  C   UNL     1      -0.947  13.522  22.827  0.00  0.00    +0.000 C 
ATOM      4  C   UNL     1      -1.993  14.476  23.404  0.00  0.00    +0.000 C 
ATOM      5  C   UNL     1      -3.262  13.611  23.309  0.00  0.00    +0.000 C 
ATOM      6  C   UNL     1      -2.803  12.448  22.432  0.00  0.00    +0.000 C 
ATOM      7  O   UNL     1      -1.539  12.226  23.156  0.00  0.00    +0.000 OA
ENDROOT
BRANCH   1  11
ATOM      8  C   UNL     1      -2.355  10.556  17.421  0.00  0.00    +0.000 A 
ATOM      9  C   UNL     1      -1.360  10.321  18.368  0.00  0.00    +0.000 A 
ATOM     10  C   UNL     1      -1.370  10.994  19.590  0.00  0.00    +0.000 A 
ATOM     11  C   UNL     1      -2.362  11.942  19.879  0.00  0.00    +0.000 A 
ATOM     12  C   UNL     1      -3.361  12.175  18.928  0.00  0.00    +0.000 A 
ATOM     13  C   UNL     1      -3.361  11.481  17.705  0.00  0.00    +0.000 A 
BRANCH   8  15
ATOM     14  C   UNL     1      -2.959  10.334  15.140  0.00  0.00    +0.000 C 
ATOM     15  O   UNL     1      -2.195   9.874  16.247  0.00  0.00    +0.000 OA
ENDBRANCH   8  15
ENDBRANCH   1  11
BRANCH   2  16
ATOM     16  C   UNL     1       0.109  13.650  20.473  0.00  0.00    +0.000 A 
ATOM     17  C   UNL     1       1.310  12.976  20.725  0.00  0.00    +0.000 A 
ATOM     18  C   UNL     1       2.405  13.140  19.868  0.00  0.00    +0.000 A 
ATOM     19  C   UNL     1       2.298  13.988  18.769  0.00  0.00    +0.000 A 
ATOM     20  C   UNL     1       1.125  14.687  18.523  0.00  0.00    +0.000 A 
ATOM     21  C   UNL     1       0.031  14.518  19.375  0.00  0.00    +0.000 A 
BRANCH  19  22
ATOM     22  O   UNL     1       3.332  14.159  17.895  0.00  0.00    +0.000 OA
ATOM     23  H   UNL     1       2.968  14.283  17.004  0.00  0.00    +0.000 HD
ENDBRANCH  19  22
ENDBRANCH   2  16
BRANCH   5  24
ATOM     24  S   UNL     1      -4.697  14.487  22.843  0.00  0.00    +0.000 S 
ATOM     25  O   UNL     1      -5.161  15.207  24.013  0.00  0.00    +0.000 OA
ATOM     26  O   UNL     1      -4.441  15.198  21.606  0.00  0.00    +0.000 OA
BRANCH  24  27
ATOM     27  C   UNL     1      -5.918  13.236  22.508  0.00  0.00    +0.000 A 
ATOM     28  C   UNL     1      -6.788  12.815  23.523  0.00  0.00    +0.000 A 
ATOM     29  C   UNL     1      -7.783  11.878  23.231  0.00  0.00    +0.000 A 
ATOM     30  C   UNL     1      -7.913  11.380  21.934  0.00  0.00    +0.000 A 
ATOM     31  C   UNL     1      -7.055  11.818  20.925  0.00  0.00    +0.000 A 
ATOM     32  C   UNL     1      -6.057  12.751  21.207  0.00  0.00    +0.000 A 
ENDBRANCH  24  27
ENDBRANCH   5  24
TORSDOF 6
ENDMDL
MODEL 8
REMARK VINA RESULT:      -6.1      2.843      6.483
REMARK  Name = 
REMARK  7 active torsions:
REMARK  status: ('A' for Active; 'I' for Inactive)
REMARK    1  A    between atoms: C_1  and  O_2
REMARK    2  A    between atoms: O_2  and  C_3
REMARK    3  A    between atoms: C_6  and  C_7
REMARK    4  A    between atoms: C_8  and  C_9
REMARK    5  A    between atoms: C_12  and  O_13
REMARK    6  A    between atoms: C_18  and  S_19
REMARK    7  A    between atoms: S_19  and  C_22
REMARK                            x       y       z     vdW  Elec       q    Type
REMARK                         _______ _______ _______ _____ _____    ______ ____
ROOT
ATOM      1  C   UNL     1      -1.310  13.037  20.237  0.00  0.00    +0.000 C 
ATOM      2  C   UNL     1      -0.441  12.415  21.064  0.00  0.00    +0.000 C 
ATOM      3  C   UNL     1      -0.426  13.228  22.327  0.00  0.00    +0.000 C 
ATOM      4  C   UNL     1       0.292  14.559  22.100  0.00  0.00    +0.000 C 
ATOM      5  C   UNL     1      -0.787  15.346  21.334  0.00  0.00    +0.000 C 
ATOM      6  C   UNL     1      -1.804  14.259  20.988  0.00  0.00    +0.000 C 
ATOM      7  O   UNL     1      -1.822  13.660  22.336  0.00  0.00    +0.000 OA
ENDROOT
BRANCH   1  11
ATOM      8  C   UNL     1      -3.608  11.245  17.103  0.00  0.00    +0.000 A 
ATOM      9  C   UNL     1      -2.240  11.466  16.961  0.00  0.00    +0.000 A 
ATOM     10  C   UNL     1      -1.490  11.976  18.021  0.00  0.00    +0.000 A 
ATOM     11  C   UNL     1      -2.100  12.304  19.240  0.00  0.00    +0.000 A 
ATOM     12  C   UNL     1      -3.473  12.079  19.382  0.00  0.00    +0.000 A 
ATOM     13  C   UNL     1      -4.225  11.546  18.319  0.00  0.00    +0.000 A 
BRANCH   8  15
ATOM     14  C   UNL     1      -3.388  10.355  14.917  0.00  0.00    +0.000 C 
ATOM     15  O   UNL     1      -4.232  10.797  15.973  0.00  0.00    +0.000 OA
ENDBRANCH   8  15
ENDBRANCH   1  11
BRANCH   2  16
ATOM     16  C   UNL     1       0.004  11.021  21.056  0.00  0.00    +0.000 A 
ATOM     17  C   UNL     1       0.834  10.530  20.042  0.00  0.00    +0.000 A 
ATOM     18  C   UNL     1       1.284   9.205  20.075  0.00  0.00    +0.000 A 
ATOM     19  C   UNL     1       0.891   8.371  21.118  0.00  0.00    +0.000 A 
ATOM     20  C   UNL     1       0.042   8.832  22.115  0.00  0.00    +0.000 A 
ATOM     21  C   UNL     1      -0.401  10.156  22.084  0.00  0.00    +0.000 A 
BRANCH  19  22
ATOM     22  O   UNL     1       1.324   7.080  21.203  0.00  0.00    +0.000 OA
ATOM     23  H   UNL     1       1.252   6.789  22.126  0.00  0.00    +0.000 HD
ENDBRANCH  19  22
ENDBRANCH   2  16
BRANCH   5  24
ATOM     24  S   UNL     1      -0.171  16.346  20.045  0.00  0.00    +0.000 S 
ATOM     25  O   UNL     1      -1.112  16.261  18.946  0.00  0.00    +0.000 OA
ATOM     26  O   UNL     1       0.203  17.640  20.584  0.00  0.00    +0.000 OA
BRANCH  24  27
ATOM     27  C   UNL     1       1.315  15.536  19.496  0.00  0.00    +0.000 A 
ATOM     28  C   UNL     1       2.561  15.936  19.999  0.00  0.00    +0.000 A 
ATOM     29  C   UNL     1       3.713  15.250  19.606  0.00  0.00    +0.000 A 
ATOM     30  C   UNL     1       3.617  14.167  18.732  0.00  0.00    +0.000 A 
ATOM     31  C   UNL     1       2.371  13.762  18.250  0.00  0.00    +0.000 A 
ATOM     32  C   UNL     1       1.215  14.443  18.634  0.00  0.00    +0.000 A 
ENDBRANCH  24  27
ENDBRANCH   5  24
TORSDOF 6
ENDMDL
MODEL 9
REMARK VINA RESULT:      -6.1      9.177     11.308
REMARK  Name = 
REMARK  7 active torsions:
REMARK  status: ('A' for Active; 'I' for Inactive)
REMARK    1  A    between atoms: C_1  and  O_2
REMARK    2  A    between atoms: O_2  and  C_3
REMARK    3  A    between atoms: C_6  and  C_7
REMARK    4  A    between atoms: C_8  and  C_9
REMARK    5  A    between atoms: C_12  and  O_13
REMARK    6  A    between atoms: C_18  and  S_19
REMARK    7  A    between atoms: S_19  and  C_22
REMARK                            x       y       z     vdW  Elec       q    Type
REMARK                         _______ _______ _______ _____ _____    ______ ____
ROOT
ATOM      1  C   UNL     1       8.753  15.638  20.383  0.00  0.00    +0.000 C 
ATOM      2  C   UNL     1       9.391  14.896  21.316  0.00  0.00    +0.000 C 
ATOM      3  C   UNL     1      10.713  15.572  21.542  0.00  0.00    +0.000 C 
ATOM      4  C   UNL     1      11.631  15.373  20.334  0.00  0.00    +0.000 C 
ATOM      5  C   UNL     1      11.027  16.378  19.339  0.00  0.00    +0.000 C 
ATOM      6  C   UNL     1       9.709  16.757  20.011  0.00  0.00    +0.000 C 
ATOM      7  O   UNL     1      10.295  16.960  21.349  0.00  0.00    +0.000 OA
ENDROOT
BRANCH   1  11
ATOM      8  C   UNL     1       4.535  16.178  19.911  0.00  0.00    +0.000 A 
ATOM      9  C   UNL     1       5.237  15.260  19.134  0.00  0.00    +0.000 A 
ATOM     10  C   UNL     1       6.597  15.037  19.356  0.00  0.00    +0.000 A 
ATOM     11  C   UNL     1       7.291  15.752  20.343  0.00  0.00    +0.000 A 
ATOM     12  C   UNL     1       6.583  16.672  21.123  0.00  0.00    +0.000 A 
ATOM     13  C   UNL     1       5.207  16.881  20.912  0.00  0.00    +0.000 A 
BRANCH   8  15
ATOM     14  C   UNL     1       2.812  15.698  18.355  0.00  0.00    +0.000 C 
ATOM     15  O   UNL     1       3.225  16.341  19.554  0.00  0.00    +0.000 OA
ENDBRANCH   8  15
ENDBRANCH   1  11
BRANCH   2  16
ATOM     16  C   UNL     1       8.829  13.983  22.312  0.00  0.00    +0.000 A 
ATOM     17  C   UNL     1       8.524  14.421  23.606  0.00  0.00    +0.000 A 
ATOM     18  C   UNL     1       7.946  13.543  24.531  0.00  0.00    +0.000 A 
ATOM     19  C   UNL     1       7.687  12.226  24.162  0.00  0.00    +0.000 A 
ATOM     20  C   UNL     1       8.013  11.768  22.893  0.00  0.00    +0.000 A 
ATOM     21  C   UNL     1       8.583  12.646  21.969  0.00  0.00    +0.000 A 
BRANCH  19  22
ATOM     22  O   UNL     1       7.105  11.344  25.024  0.00  0.00    +0.000 OA
ATOM     23  H   UNL     1       6.558  11.840  25.653  0.00  0.00    +0.000 HD
ENDBRANCH  19  22
ENDBRANCH   2  16
BRANCH   5  24
ATOM     24  S   UNL     1      10.985  15.819  17.687  0.00  0.00    +0.000 S 
ATOM     25  O   UNL     1       9.800  16.384  17.071  0.00  0.00    +0.000 OA
ATOM     26  O   UNL     1      12.286  16.025  17.081  0.00  0.00    +0.000 OA
BRANCH  24  27
ATOM     27  C   UNL     1      10.705  14.065  17.795  0.00  0.00    +0.000 A 
ATOM     28  C   UNL     1       9.397  13.563  17.812  0.00  0.00    +0.000 A 
ATOM     29  C   UNL     1       9.192  12.181  17.835  0.00  0.00    +0.000 A 
ATOM     30  C   UNL     1      10.285  11.313  17.825  0.00  0.00    +0.000 A 
ATOM     31  C   UNL     1      11.584  11.821  17.789  0.00  0.00    +0.000 A 
ATOM     32  C   UNL     1      11.799  13.199  17.769  0.00  0.00    +0.000 A 
ENDBRANCH  24  27
ENDBRANCH   5  24
TORSDOF 6
ENDMDL
