MODEL 1
REMARK VINA RESULT:      -6.9      0.000      0.000
REMARK  Name = 
REMARK  9 active torsions:
REMARK  status: ('A' for Active; 'I' for Inactive)
REMARK    1  A    between atoms: C_1  and  C_2
REMARK    2  A    between atoms: C_2  and  C_3
REMARK    3  A    between atoms: C_2  and  C_4
REMARK    4  A    between atoms: C_4  and  C_5
REMARK    5  A    between atoms: C_4  and  N_6
REMARK    6  A    between atoms: N_6  and  C_7
REMARK    7  A    between atoms: N_6  and  C_8
REMARK    8  A    between atoms: C_8  and  C_9
REMARK    9  A    between atoms: C_12  and  C_13
REMARK                            x       y       z     vdW  Elec       q    Type
REMARK                         _______ _______ _______ _____ _____    ______ ____
ROOT
ATOM      1  C   UNL     1       6.177   4.847  18.045  0.00  0.00    +0.000 A 
ATOM      2  N   UNL     1       7.467   4.581  18.049  0.00  0.00    +0.000 NA
ATOM      3  N   UNL     1       7.833   4.393  16.736  0.00  0.00    +0.000 NA
ATOM      4  C   UNL     1       6.742   4.536  16.007  0.00  0.00    +0.000 A 
ATOM      5  O   UNL     1       5.645   4.842  16.780  0.00  0.00    +0.000 OA
ENDROOT
BRANCH   4   6
ATOM      6  C   UNL     1       6.698   4.350  14.590  0.00  0.00    +0.000 A 
ATOM      7  C   UNL     1       7.502   4.934  13.622  0.00  0.00    +0.000 A 
ATOM      8  C   UNL     1       7.098   4.416  12.368  0.00  0.00    +0.000 A 
ATOM      9  C   UNL     1       6.066   3.553  12.632  0.00  0.00    +0.000 A 
ATOM     10  O   UNL     1       5.814   3.503  13.968  0.00  0.00    +0.000 OA
ENDBRANCH   4   6
BRANCH   1  11
ATOM     11  C   UNL     1       5.233   5.053  19.188  0.00  0.00    +0.000 C 
BRANCH  11  12
ATOM     12  N   UNL     1       3.791   4.785  18.936  0.00  0.00    +0.000 NA
ATOM     13  C   UNL     1       2.985   5.888  19.470  0.00  0.00    +0.000 C 
BRANCH  12  14
ATOM     14  C   UNL     1       3.317   3.444  19.394  0.00  0.00    +0.000 C 
ATOM     15  C   UNL     1       3.212   2.463  18.204  0.00  0.00    +0.000 C 
BRANCH  14  17
ATOM     16  C   UNL     1       0.804   2.794  19.471  0.00  0.00    +0.000 C 
ATOM     17  C   UNL     1       1.961   3.502  20.184  0.00  0.00    +0.000 C 
ATOM     18  C   UNL     1       2.095   2.975  21.621  0.00  0.00    +0.000 C 
ENDBRANCH  14  17
ENDBRANCH  12  14
ENDBRANCH  11  12
ENDBRANCH   1  11
TORSDOF 5
ENDMDL
MODEL 2
REMARK VINA RESULT:      -6.9      1.210      1.918
REMARK  Name = 
REMARK  9 active torsions:
REMARK  status: ('A' for Active; 'I' for Inactive)
REMARK    1  A    between atoms: C_1  and  C_2
REMARK    2  A    between atoms: C_2  and  C_3
REMARK    3  A    between atoms: C_2  and  C_4
REMARK    4  A    between atoms: C_4  and  C_5
REMARK    5  A    between atoms: C_4  and  N_6
REMARK    6  A    between atoms: N_6  and  C_7
REMARK    7  A    between atoms: N_6  and  C_8
REMARK    8  A    between atoms: C_8  and  C_9
REMARK    9  A    between atoms: C_12  and  C_13
REMARK                            x       y       z     vdW  Elec       q    Type
REMARK                         _______ _______ _______ _____ _____    ______ ____
ROOT
ATOM      1  C   UNL     1       5.475   5.222  18.636  0.00  0.00    +0.000 A 
ATOM      2  N   UNL     1       6.662   4.736  18.932  0.00  0.00    +0.000 NA
ATOM      3  N   UNL     1       7.304   4.514  17.736  0.00  0.00    +0.000 NA
ATOM      4  C   UNL     1       6.465   4.860  16.777  0.00  0.00    +0.000 A 
ATOM      5  O   UNL     1       5.277   5.336  17.284  0.00  0.00    +0.000 OA
ENDROOT
BRANCH   4   6
ATOM      6  C   UNL     1       6.741   4.713  15.382  0.00  0.00    +0.000 A 
ATOM      7  C   UNL     1       6.115   3.881  14.466  0.00  0.00    +0.000 A 
ATOM      8  C   UNL     1       6.714   4.113  13.205  0.00  0.00    +0.000 A 
ATOM      9  C   UNL     1       7.679   5.064  13.416  0.00  0.00    +0.000 A 
ATOM     10  O   UNL     1       7.707   5.436  14.724  0.00  0.00    +0.000 OA
ENDBRANCH   4   6
BRANCH   1  11
ATOM     11  C   UNL     1       4.325   5.566  19.531  0.00  0.00    +0.000 C 
BRANCH  11  12
ATOM     12  N   UNL     1       2.972   5.618  18.912  0.00  0.00    +0.000 NA
ATOM     13  C   UNL     1       2.462   6.992  18.960  0.00  0.00    +0.000 C 
BRANCH  12  14
ATOM     14  C   UNL     1       2.001   4.617  19.451  0.00  0.00    +0.000 C 
ATOM     15  C   UNL     1       2.165   4.463  20.980  0.00  0.00    +0.000 C 
BRANCH  14  17
ATOM     16  C   UNL     1       0.832   2.365  18.901  0.00  0.00    +0.000 C 
ATOM     17  C   UNL     1       2.094   3.220  18.741  0.00  0.00    +0.000 C 
ATOM     18  C   UNL     1       2.463   3.340  17.254  0.00  0.00    +0.000 C 
ENDBRANCH  14  17
ENDBRANCH  12  14
ENDBRANCH  11  12
ENDBRANCH   1  11
TORSDOF 5
ENDMDL
MODEL 3
REMARK VINA RESULT:      -6.9      1.066      1.749
REMARK  Name = 
REMARK  9 active torsions:
REMARK  status: ('A' for Active; 'I' for Inactive)
REMARK    1  A    between atoms: C_1  and  C_2
REMARK    2  A    between atoms: C_2  and  C_3
REMARK    3  A    between atoms: C_2  and  C_4
REMARK    4  A    between atoms: C_4  and  C_5
REMARK    5  A    between atoms: C_4  and  N_6
REMARK    6  A    between atoms: N_6  and  C_7
REMARK    7  A    between atoms: N_6  and  C_8
REMARK    8  A    between atoms: C_8  and  C_9
REMARK    9  A    between atoms: C_12  and  C_13
REMARK                            x       y       z     vdW  Elec       q    Type
REMARK                         _______ _______ _______ _____ _____    ______ ____
ROOT
ATOM      1  C   UNL     1       5.931   4.994  18.265  0.00  0.00    +0.000 A 
ATOM      2  N   UNL     1       7.204   4.695  18.425  0.00  0.00    +0.000 NA
ATOM      3  N   UNL     1       7.735   4.554  17.163  0.00  0.00    +0.000 NA
ATOM      4  C   UNL     1       6.752   4.756  16.306  0.00  0.00    +0.000 A 
ATOM      5  O   UNL     1       5.570   5.057  16.943  0.00  0.00    +0.000 OA
ENDROOT
BRANCH   4   6
ATOM      6  C   UNL     1       6.890   4.632  14.888  0.00  0.00    +0.000 A 
ATOM      7  C   UNL     1       6.184   3.805  14.026  0.00  0.00    +0.000 A 
ATOM      8  C   UNL     1       6.653   4.061  12.716  0.00  0.00    +0.000 A 
ATOM      9  C   UNL     1       7.625   5.020  12.844  0.00  0.00    +0.000 A 
ATOM     10  O   UNL     1       7.778   5.375  14.149  0.00  0.00    +0.000 OA
ENDBRANCH   4   6
BRANCH   1  11
ATOM     11  C   UNL     1       4.850   5.176  19.284  0.00  0.00    +0.000 C 
BRANCH  11  12
ATOM     12  N   UNL     1       4.050   3.974  19.648  0.00  0.00    +0.000 NA
ATOM     13  C   UNL     1       4.912   2.788  19.635  0.00  0.00    +0.000 C 
BRANCH  12  14
ATOM     14  C   UNL     1       2.799   3.793  18.850  0.00  0.00    +0.000 C 
ATOM     15  C   UNL     1       2.219   5.160  18.422  0.00  0.00    +0.000 C 
BRANCH  14  17
ATOM     16  C   UNL     1       1.092   3.645  20.801  0.00  0.00    +0.000 C 
ATOM     17  C   UNL     1       1.710   2.938  19.591  0.00  0.00    +0.000 C 
ATOM     18  C   UNL     1       0.602   2.450  18.643  0.00  0.00    +0.000 C 
ENDBRANCH  14  17
ENDBRANCH  12  14
ENDBRANCH  11  12
ENDBRANCH   1  11
TORSDOF 5
ENDMDL
MODEL 4
REMARK VINA RESULT:      -6.7      0.786      1.344
REMARK  Name = 
REMARK  9 active torsions:
REMARK  status: ('A' for Active; 'I' for Inactive)
REMARK    1  A    between atoms: C_1  and  C_2
REMARK    2  A    between atoms: C_2  and  C_3
REMARK    3  A    between atoms: C_2  and  C_4
REMARK    4  A    between atoms: C_4  and  C_5
REMARK    5  A    between atoms: C_4  and  N_6
REMARK    6  A    between atoms: N_6  and  C_7
REMARK    7  A    between atoms: N_6  and  C_8
REMARK    8  A    between atoms: C_8  and  C_9
REMARK    9  A    between atoms: C_12  and  C_13
REMARK                            x       y       z     vdW  Elec       q    Type
REMARK                         _______ _______ _______ _____ _____    ______ ____
ROOT
ATOM      1  C   UNL     1       6.082   4.986  18.075  0.00  0.00    +0.000 A 
ATOM      2  N   UNL     1       7.338   4.599  18.159  0.00  0.00    +0.000 NA
ATOM      3  N   UNL     1       7.769   4.387  16.869  0.00  0.00    +0.000 NA
ATOM      4  C   UNL     1       6.746   4.638  16.074  0.00  0.00    +0.000 A 
ATOM      5  O   UNL     1       5.635   5.041  16.780  0.00  0.00    +0.000 OA
ENDROOT
BRANCH   4   6
ATOM      6  C   UNL     1       6.777   4.468  14.654  0.00  0.00    +0.000 A 
ATOM      7  C   UNL     1       7.577   5.122  13.729  0.00  0.00    +0.000 A 
ATOM      8  C   UNL     1       7.267   4.592  12.453  0.00  0.00    +0.000 A 
ATOM      9  C   UNL     1       6.291   3.652  12.663  0.00  0.00    +0.000 A 
ATOM     10  O   UNL     1       5.985   3.566  13.986  0.00  0.00    +0.000 OA
ENDBRANCH   4   6
BRANCH   1  11
ATOM     11  C   UNL     1       5.089   5.272  19.159  0.00  0.00    +0.000 C 
BRANCH  11  12
ATOM     12  N   UNL     1       3.982   4.294  19.342  0.00  0.00    +0.000 NA
ATOM     13  C   UNL     1       4.494   2.932  19.160  0.00  0.00    +0.000 C 
BRANCH  12  14
ATOM     14  C   UNL     1       2.764   4.572  18.521  0.00  0.00    +0.000 C 
ATOM     15  C   UNL     1       2.635   6.083  18.224  0.00  0.00    +0.000 C 
BRANCH  14  17
ATOM     16  C   UNL     1       1.082   2.602  18.715  0.00  0.00    +0.000 C 
ATOM     17  C   UNL     1       1.442   4.021  19.167  0.00  0.00    +0.000 C 
ATOM     18  C   UNL     1       1.465   4.095  20.703  0.00  0.00    +0.000 C 
ENDBRANCH  14  17
ENDBRANCH  12  14
ENDBRANCH  11  12
ENDBRANCH   1  11
TORSDOF 5
ENDMDL
MODEL 5
REMARK VINA RESULT:      -6.5      1.178      1.340
REMARK  Name = 
REMARK  9 active torsions:
REMARK  status: ('A' for Active; 'I' for Inactive)
REMARK    1  A    between atoms: C_1  and  C_2
REMARK    2  A    between atoms: C_2  and  C_3
REMARK    3  A    between atoms: C_2  and  C_4
REMARK    4  A    between atoms: C_4  and  C_5
REMARK    5  A    between atoms: C_4  and  N_6
REMARK    6  A    between atoms: N_6  and  C_7
REMARK    7  A    between atoms: N_6  and  C_8
REMARK    8  A    between atoms: C_8  and  C_9
REMARK    9  A    between atoms: C_12  and  C_13
REMARK                            x       y       z     vdW  Elec       q    Type
REMARK                         _______ _______ _______ _____ _____    ______ ____
ROOT
ATOM      1  C   UNL     1       5.500   5.188  17.505  0.00  0.00    +0.000 A 
ATOM      2  N   UNL     1       5.982   6.365  17.161  0.00  0.00    +0.000 NA
ATOM      3  N   UNL     1       6.321   6.276  15.831  0.00  0.00    +0.000 NA
ATOM      4  C   UNL     1       6.044   5.044  15.444  0.00  0.00    +0.000 A 
ATOM      5  O   UNL     1       5.502   4.296  16.464  0.00  0.00    +0.000 OA
ENDROOT
BRANCH   4   6
ATOM      6  C   UNL     1       6.318   4.537  14.135  0.00  0.00    +0.000 A 
ATOM      7  C   UNL     1       5.613   3.580  13.421  0.00  0.00    +0.000 A 
ATOM      8  C   UNL     1       6.249   3.436  12.164  0.00  0.00    +0.000 A 
ATOM      9  C   UNL     1       7.312   4.303  12.179  0.00  0.00    +0.000 A 
ATOM     10  O   UNL     1       7.366   4.974  13.361  0.00  0.00    +0.000 OA
ENDBRANCH   4   6
BRANCH   1  11
ATOM     11  C   UNL     1       5.057   4.684  18.844  0.00  0.00    +0.000 C 
BRANCH  11  12
ATOM     12  N   UNL     1       3.591   4.580  19.080  0.00  0.00    +0.000 NA
ATOM     13  C   UNL     1       3.133   5.746  19.842  0.00  0.00    +0.000 C 
BRANCH  12  14
ATOM     14  C   UNL     1       3.146   3.284  19.675  0.00  0.00    +0.000 C 
ATOM     15  C   UNL     1       3.505   2.102  18.746  0.00  0.00    +0.000 C 
BRANCH  14  17
ATOM     16  C   UNL     1       0.766   2.455  19.048  0.00  0.00    +0.000 C 
ATOM     17  C   UNL     1       1.617   3.260  20.036  0.00  0.00    +0.000 C 
ATOM     18  C   UNL     1       1.361   2.773  21.471  0.00  0.00    +0.000 C 
ENDBRANCH  14  17
ENDBRANCH  12  14
ENDBRANCH  11  12
ENDBRANCH   1  11
TORSDOF 5
ENDMDL
MODEL 6
REMARK VINA RESULT:      -6.5      1.600      2.018
REMARK  Name = 
REMARK  9 active torsions:
REMARK  status: ('A' for Active; 'I' for Inactive)
REMARK    1  A    between atoms: C_1  and  C_2
REMARK    2  A    between atoms: C_2  and  C_3
REMARK    3  A    between atoms: C_2  and  C_4
REMARK    4  A    between atoms: C_4  and  C_5
REMARK    5  A    between atoms: C_4  and  N_6
REMARK    6  A    between atoms: N_6  and  C_7
REMARK    7  A    between atoms: N_6  and  C_8
REMARK    8  A    between atoms: C_8  and  C_9
REMARK    9  A    between atoms: C_12  and  C_13
REMARK                            x       y       z     vdW  Elec       q    Type
REMARK                         _______ _______ _______ _____ _____    ______ ____
ROOT
ATOM      1  C   UNL     1       4.865   5.457  17.657  0.00  0.00    +0.000 A 
ATOM      2  N   UNL     1       4.843   6.681  17.171  0.00  0.00    +0.000 NA
ATOM      3  N   UNL     1       5.304   6.596  15.877  0.00  0.00    +0.000 NA
ATOM      4  C   UNL     1       5.599   5.329  15.654  0.00  0.00    +0.000 A 
ATOM      5  O   UNL     1       5.329   4.540  16.749  0.00  0.00    +0.000 OA
ENDROOT
BRANCH   4   6
ATOM      6  C   UNL     1       6.173   4.844  14.437  0.00  0.00    +0.000 A 
ATOM      7  C   UNL     1       5.714   3.821  13.620  0.00  0.00    +0.000 A 
ATOM      8  C   UNL     1       6.598   3.732  12.518  0.00  0.00    +0.000 A 
ATOM      9  C   UNL     1       7.553   4.695  12.722  0.00  0.00    +0.000 A 
ATOM     10  O   UNL     1       7.309   5.374  13.876  0.00  0.00    +0.000 OA
ENDBRANCH   4   6
BRANCH   1  11
ATOM     11  C   UNL     1       4.556   4.964  19.037  0.00  0.00    +0.000 C 
BRANCH  11  12
ATOM     12  N   UNL     1       3.163   4.509  19.300  0.00  0.00    +0.000 NA
ATOM     13  C   UNL     1       2.491   5.469  20.181  0.00  0.00    +0.000 C 
BRANCH  12  14
ATOM     14  C   UNL     1       3.050   3.098  19.782  0.00  0.00    +0.000 C 
ATOM     15  C   UNL     1       4.449   2.473  19.982  0.00  0.00    +0.000 C 
BRANCH  14  17
ATOM     16  C   UNL     1       0.669   2.492  18.941  0.00  0.00    +0.000 C 
ATOM     17  C   UNL     1       2.169   2.194  18.848  0.00  0.00    +0.000 C 
ATOM     18  C   UNL     1       2.625   2.244  17.381  0.00  0.00    +0.000 C 
ENDBRANCH  14  17
ENDBRANCH  12  14
ENDBRANCH  11  12
ENDBRANCH   1  11
TORSDOF 5
ENDMDL
MODEL 7
REMARK VINA RESULT:      -6.5      2.033      3.057
REMARK  Name = 
REMARK  9 active torsions:
REMARK  status: ('A' for Active; 'I' for Inactive)
REMARK    1  A    between atoms: C_1  and  C_2
REMARK    2  A    between atoms: C_2  and  C_3
REMARK    3  A    between atoms: C_2  and  C_4
REMARK    4  A    between atoms: C_4  and  C_5
REMARK    5  A    between atoms: C_4  and  N_6
REMARK    6  A    between atoms: N_6  and  C_7
REMARK    7  A    between atoms: N_6  and  C_8
REMARK    8  A    between atoms: C_8  and  C_9
REMARK    9  A    between atoms: C_12  and  C_13
REMARK                            x       y       z     vdW  Elec       q    Type
REMARK                         _______ _______ _______ _____ _____    ______ ____
ROOT
ATOM      1  C   UNL     1       7.017   4.676  16.048  0.00  0.00    +0.000 A 
ATOM      2  N   UNL     1       7.607   5.540  15.248  0.00  0.00    +0.000 NA
ATOM      3  N   UNL     1       7.209   5.226  13.969  0.00  0.00    +0.000 NA
ATOM      4  C   UNL     1       6.414   4.175  14.059  0.00  0.00    +0.000 A 
ATOM      5  O   UNL     1       6.237   3.778  15.365  0.00  0.00    +0.000 OA
ENDROOT
BRANCH   4   6
ATOM      6  C   UNL     1       5.845   3.504  12.932  0.00  0.00    +0.000 A 
ATOM      7  C   UNL     1       4.616   3.729  12.331  0.00  0.00    +0.000 A 
ATOM      8  C   UNL     1       4.513   2.841  11.233  0.00  0.00    +0.000 A 
ATOM      9  C   UNL     1       5.677   2.115  11.226  0.00  0.00    +0.000 A 
ATOM     10  O   UNL     1       6.490   2.505  12.245  0.00  0.00    +0.000 OA
ENDBRANCH   4   6
BRANCH   1  11
ATOM     11  C   UNL     1       7.149   4.488  17.527  0.00  0.00    +0.000 C 
BRANCH  11  12
ATOM     12  N   UNL     1       6.556   5.536  18.402  0.00  0.00    +0.000 NA
ATOM     13  C   UNL     1       7.466   5.819  19.516  0.00  0.00    +0.000 C 
BRANCH  12  14
ATOM     14  C   UNL     1       5.158   5.255  18.849  0.00  0.00    +0.000 C 
ATOM     15  C   UNL     1       5.002   3.774  19.265  0.00  0.00    +0.000 C 
BRANCH  14  17
ATOM     16  C   UNL     1       3.179   4.477  17.359  0.00  0.00    +0.000 C 
ATOM     17  C   UNL     1       4.075   5.646  17.781  0.00  0.00    +0.000 C 
ATOM     18  C   UNL     1       3.212   6.836  18.228  0.00  0.00    +0.000 C 
ENDBRANCH  14  17
ENDBRANCH  12  14
ENDBRANCH  11  12
ENDBRANCH   1  11
TORSDOF 5
ENDMDL
MODEL 8
REMARK VINA RESULT:      -6.4      0.894      1.080
REMARK  Name = 
REMARK  9 active torsions:
REMARK  status: ('A' for Active; 'I' for Inactive)
REMARK    1  A    between atoms: C_1  and  C_2
REMARK    2  A    between atoms: C_2  and  C_3
REMARK    3  A    between atoms: C_2  and  C_4
REMARK    4  A    between atoms: C_4  and  C_5
REMARK    5  A    between atoms: C_4  and  N_6
REMARK    6  A    between atoms: N_6  and  C_7
REMARK    7  A    between atoms: N_6  and  C_8
REMARK    8  A    between atoms: C_8  and  C_9
REMARK    9  A    between atoms: C_12  and  C_13
REMARK                            x       y       z     vdW  Elec       q    Type
REMARK                         _______ _______ _______ _____ _____    ______ ____
ROOT
ATOM      1  C   UNL     1       6.049   5.197  17.575  0.00  0.00    +0.000 A 
ATOM      2  N   UNL     1       7.273   4.731  17.708  0.00  0.00    +0.000 NA
ATOM      3  N   UNL     1       7.715   4.423  16.441  0.00  0.00    +0.000 NA
ATOM      4  C   UNL     1       6.729   4.702  15.610  0.00  0.00    +0.000 A 
ATOM      5  O   UNL     1       5.634   5.215  16.268  0.00  0.00    +0.000 OA
ENDROOT
BRANCH   4   6
ATOM      6  C   UNL     1       6.776   4.455  14.202  0.00  0.00    +0.000 A 
ATOM      7  C   UNL     1       7.580   5.066  13.251  0.00  0.00    +0.000 A 
ATOM      8  C   UNL     1       7.290   4.466  12.003  0.00  0.00    +0.000 A 
ATOM      9  C   UNL     1       6.320   3.529  12.253  0.00  0.00    +0.000 A 
ATOM     10  O   UNL     1       6.001   3.511  13.575  0.00  0.00    +0.000 OA
ENDBRANCH   4   6
BRANCH   1  11
ATOM     11  C   UNL     1       5.056   5.606  18.618  0.00  0.00    +0.000 C 
BRANCH  11  12
ATOM     12  N   UNL     1       3.616   5.550  18.245  0.00  0.00    +0.000 NA
ATOM     13  C   UNL     1       2.870   6.553  19.013  0.00  0.00    +0.000 C 
BRANCH  12  14
ATOM     14  C   UNL     1       3.006   4.188  18.320  0.00  0.00    +0.000 C 
ATOM     15  C   UNL     1       1.597   4.182  17.684  0.00  0.00    +0.000 C 
BRANCH  14  17
ATOM     16  C   UNL     1       1.552   3.187  20.225  0.00  0.00    +0.000 C 
ATOM     17  C   UNL     1       2.955   3.611  19.780  0.00  0.00    +0.000 C 
ATOM     18  C   UNL     1       3.946   2.454  19.988  0.00  0.00    +0.000 C 
ENDBRANCH  14  17
ENDBRANCH  12  14
ENDBRANCH  11  12
ENDBRANCH   1  11
TORSDOF 5
ENDMDL
MODEL 9
REMARK VINA RESULT:      -6.4      0.771      1.430
REMARK  Name = 
REMARK  9 active torsions:
REMARK  status: ('A' for Active; 'I' for Inactive)
REMARK    1  A    between atoms: C_1  and  C_2
REMARK    2  A    between atoms: C_2  and  C_3
REMARK    3  A    between atoms: C_2  and  C_4
REMARK    4  A    between atoms: C_4  and  C_5
REMARK    5  A    between atoms: C_4  and  N_6
REMARK    6  A    between atoms: N_6  and  C_7
REMARK    7  A    between atoms: N_6  and  C_8
REMARK    8  A    between atoms: C_8  and  C_9
REMARK    9  A    between atoms: C_12  and  C_13
REMARK                            x       y       z     vdW  Elec       q    Type
REMARK                         _______ _______ _______ _____ _____    ______ ____
ROOT
ATOM      1  C   UNL     1       5.864   4.943  18.058  0.00  0.00    +0.000 A 
ATOM      2  N   UNL     1       7.140   4.641  18.187  0.00  0.00    +0.000 NA
ATOM      3  N   UNL     1       7.627   4.445  16.915  0.00  0.00    +0.000 NA
ATOM      4  C   UNL     1       6.617   4.620  16.084  0.00  0.00    +0.000 A 
ATOM      5  O   UNL     1       5.458   4.954  16.748  0.00  0.00    +0.000 OA
ENDROOT
BRANCH   4   6
ATOM      6  C   UNL     1       6.706   4.437  14.668  0.00  0.00    +0.000 A 
ATOM      7  C   UNL     1       7.529   5.097  13.768  0.00  0.00    +0.000 A 
ATOM      8  C   UNL     1       7.279   4.550  12.487  0.00  0.00    +0.000 A 
ATOM      9  C   UNL     1       6.313   3.593  12.668  0.00  0.00    +0.000 A 
ATOM     10  O   UNL     1       5.958   3.514  13.979  0.00  0.00    +0.000 OA
ENDBRANCH   4   6
BRANCH   1  11
ATOM     11  C   UNL     1       4.819   5.173  19.105  0.00  0.00    +0.000 C 
BRANCH  11  12
ATOM     12  N   UNL     1       3.408   5.288  18.644  0.00  0.00    +0.000 NA
ATOM     13  C   UNL     1       3.055   6.703  18.493  0.00  0.00    +0.000 C 
BRANCH  12  14
ATOM     14  C   UNL     1       2.420   4.526  19.466  0.00  0.00    +0.000 C 
ATOM     15  C   UNL     1       1.891   5.393  20.631  0.00  0.00    +0.000 C 
BRANCH  14  17
ATOM     16  C   UNL     1       2.411   2.755  21.366  0.00  0.00    +0.000 C 
ATOM     17  C   UNL     1       2.983   3.162  20.004  0.00  0.00    +0.000 C 
ATOM     18  C   UNL     1       2.806   2.015  18.995  0.00  0.00    +0.000 C 
ENDBRANCH  14  17
ENDBRANCH  12  14
ENDBRANCH  11  12
ENDBRANCH   1  11
TORSDOF 5
ENDMDL
