MODEL 1
REMARK VINA RESULT:      -7.4      0.000      0.000
REMARK  Name = 
REMARK  5 active torsions:
REMARK  status: ('A' for Active; 'I' for Inactive)
REMARK    1  A    between atoms: C_4  and  C_5
REMARK    2  A    between atoms: C_5  and  C_6
REMARK    3  A    between atoms: C_6  and  N_7
REMARK    4  A    between atoms: N_10  and  C_11
REMARK    5  A    between atoms: C_13  and  C_14
REMARK                            x       y       z     vdW  Elec       q    Type
REMARK                         _______ _______ _______ _____ _____    ______ ____
ROOT
ATOM      1  C   UNL     1      -2.245  13.046  20.765  0.00  0.00    +0.000 A 
ATOM      2  N   UNL     1      -3.438  12.669  21.304  0.00  0.00    +0.000 NA
ATOM      3  C   UNL     1      -4.362  13.578  21.662  0.00  0.00    +0.000 A 
ATOM      4  N   UNL     1      -4.253  14.894  21.486  0.00  0.00    +0.000 NA
ATOM      5  C   UNL     1      -3.101  15.262  20.904  0.00  0.00    +0.000 A 
ATOM      6  S   UNL     1      -2.847  16.914  20.580  0.00  0.00    +0.000 S 
ATOM      7  C   UNL     1      -1.345  16.606  19.866  0.00  0.00    +0.000 A 
ATOM      8  C   UNL     1      -0.991  15.269  19.906  0.00  0.00    +0.000 A 
ATOM      9  C   UNL     1      -2.045  14.441  20.519  0.00  0.00    +0.000 A 
ATOM     10  C   UNL     1       0.309  14.834  19.286  0.00  0.00    +0.000 C 
ATOM     11  C   UNL     1       1.236  15.969  18.847  0.00  0.00    +0.000 C 
ATOM     12  C   UNL     1       0.475  17.145  18.253  0.00  0.00    +0.000 C 
ATOM     13  C   UNL     1      -0.517  17.707  19.275  0.00  0.00    +0.000 C 
ENDROOT
BRANCH   1  17
ATOM     14  N   UNL     1       0.905  10.240  19.851  0.00  0.00    +0.000 NA
ATOM     15  C   UNL     1      -0.063  10.750  18.859  0.00  0.00    +0.000 C 
ATOM     16  C   UNL     1      -1.431  11.108  19.450  0.00  0.00    +0.000 C 
ATOM     17  N   UNL     1      -1.337  12.026  20.570  0.00  0.00    +0.000 N 
ATOM     18  C   UNL     1      -0.313  11.735  21.579  0.00  0.00    +0.000 C 
ATOM     19  C   UNL     1       1.017  11.276  20.916  0.00  0.00    +0.000 C 
BRANCH  14  20
ATOM     20  C   UNL     1       0.536   8.926  20.421  0.00  0.00    +0.000 C 
BRANCH  20  21
ATOM     21  C   UNL     1       1.726   8.100  20.952  0.00  0.00    +0.000 C 
BRANCH  21  25
ATOM     22  C   UNL     1       2.500   4.607  18.538  0.00  0.00    +0.000 A 
ATOM     23  C   UNL     1       1.956   4.466  19.814  0.00  0.00    +0.000 A 
ATOM     24  C   UNL     1       1.700   5.596  20.593  0.00  0.00    +0.000 A 
ATOM     25  C   UNL     1       1.982   6.878  20.100  0.00  0.00    +0.000 A 
ATOM     26  C   UNL     1       2.528   7.007  18.817  0.00  0.00    +0.000 A 
ATOM     27  C   UNL     1       2.785   5.872  18.039  0.00  0.00    +0.000 A 
ENDBRANCH  21  25
ENDBRANCH  20  21
ENDBRANCH  14  20
ENDBRANCH   1  17
BRANCH   3  28
ATOM     28  C   UNL     1      -5.585  13.080  22.335  0.00  0.00    +0.000 A 
ATOM     29  C   UNL     1      -6.645  12.510  21.615  0.00  0.00    +0.000 A 
ATOM     30  C   UNL     1      -7.767  12.048  22.290  0.00  0.00    +0.000 A 
ATOM     31  N   UNL     1      -7.915  12.108  23.629  0.00  0.00    +0.000 NA
ATOM     32  C   UNL     1      -6.894  12.651  24.320  0.00  0.00    +0.000 A 
ATOM     33  C   UNL     1      -5.735  13.139  23.732  0.00  0.00    +0.000 A 
ENDBRANCH   3  28
TORSDOF 5
ENDMDL
MODEL 2
REMARK VINA RESULT:      -7.3      3.672      6.355
REMARK  Name = 
REMARK  5 active torsions:
REMARK  status: ('A' for Active; 'I' for Inactive)
REMARK    1  A    between atoms: C_4  and  C_5
REMARK    2  A    between atoms: C_5  and  C_6
REMARK    3  A    between atoms: C_6  and  N_7
REMARK    4  A    between atoms: N_10  and  C_11
REMARK    5  A    between atoms: C_13  and  C_14
REMARK                            x       y       z     vdW  Elec       q    Type
REMARK                         _______ _______ _______ _____ _____    ______ ____
ROOT
ATOM      1  C   UNL     1      -1.938  13.770  23.269  0.00  0.00    +0.000 A 
ATOM      2  N   UNL     1      -1.094  14.434  24.108  0.00  0.00    +0.000 NA
ATOM      3  C   UNL     1      -1.491  15.532  24.774  0.00  0.00    +0.000 A 
ATOM      4  N   UNL     1      -2.719  16.047  24.743  0.00  0.00    +0.000 NA
ATOM      5  C   UNL     1      -3.567  15.362  23.960  0.00  0.00    +0.000 A 
ATOM      6  S   UNL     1      -5.185  15.886  23.860  0.00  0.00    +0.000 S 
ATOM      7  C   UNL     1      -5.597  14.613  22.826  0.00  0.00    +0.000 A 
ATOM      8  C   UNL     1      -4.520  13.808  22.501  0.00  0.00    +0.000 A 
ATOM      9  C   UNL     1      -3.288  14.239  23.186  0.00  0.00    +0.000 A 
ATOM     10  C   UNL     1      -4.735  12.617  21.608  0.00  0.00    +0.000 C 
ATOM     11  C   UNL     1      -6.117  12.528  20.959  0.00  0.00    +0.000 C 
ATOM     12  C   UNL     1      -7.230  12.979  21.893  0.00  0.00    +0.000 C 
ATOM     13  C   UNL     1      -7.001  14.428  22.332  0.00  0.00    +0.000 C 
ENDROOT
BRANCH   1  17
ATOM     14  N   UNL     1       0.338  10.679  21.297  0.00  0.00    +0.000 NA
ATOM     15  C   UNL     1       0.528  12.124  21.062  0.00  0.00    +0.000 C 
ATOM     16  C   UNL     1      -0.743  12.959  21.255  0.00  0.00    +0.000 C 
ATOM     17  N   UNL     1      -1.366  12.744  22.547  0.00  0.00    +0.000 N 
ATOM     18  C   UNL     1      -1.497  11.353  22.995  0.00  0.00    +0.000 C 
ATOM     19  C   UNL     1      -0.213  10.535  22.674  0.00  0.00    +0.000 C 
BRANCH  14  20
ATOM     20  C   UNL     1      -0.535  10.023  20.300  0.00  0.00    +0.000 C 
BRANCH  20  21
ATOM     21  C   UNL     1      -0.324  10.502  18.848  0.00  0.00    +0.000 C 
BRANCH  21  25
ATOM     22  C   UNL     1      -4.084  10.851  16.758  0.00  0.00    +0.000 A 
ATOM     23  C   UNL     1      -3.859  11.595  17.916  0.00  0.00    +0.000 A 
ATOM     24  C   UNL     1      -2.640  11.486  18.590  0.00  0.00    +0.000 A 
ATOM     25  C   UNL     1      -1.634  10.636  18.108  0.00  0.00    +0.000 A 
ATOM     26  C   UNL     1      -1.873   9.895  16.944  0.00  0.00    +0.000 A 
ATOM     27  C   UNL     1      -3.096  10.005  16.272  0.00  0.00    +0.000 A 
ENDBRANCH  21  25
ENDBRANCH  20  21
ENDBRANCH  14  20
ENDBRANCH   1  17
BRANCH   3  28
ATOM     28  C   UNL     1      -0.475  16.246  25.582  0.00  0.00    +0.000 A 
ATOM     29  C   UNL     1      -0.363  16.053  26.967  0.00  0.00    +0.000 A 
ATOM     30  C   UNL     1       0.613  16.736  27.681  0.00  0.00    +0.000 A 
ATOM     31  N   UNL     1       1.489  17.595  27.123  0.00  0.00    +0.000 NA
ATOM     32  C   UNL     1       1.384  17.776  25.791  0.00  0.00    +0.000 A 
ATOM     33  C   UNL     1       0.441  17.138  24.997  0.00  0.00    +0.000 A 
ENDBRANCH   3  28
TORSDOF 5
ENDMDL
MODEL 3
REMARK VINA RESULT:      -7.3      1.553      2.442
REMARK  Name = 
REMARK  5 active torsions:
REMARK  status: ('A' for Active; 'I' for Inactive)
REMARK    1  A    between atoms: C_4  and  C_5
REMARK    2  A    between atoms: C_5  and  C_6
REMARK    3  A    between atoms: C_6  and  N_7
REMARK    4  A    between atoms: N_10  and  C_11
REMARK    5  A    between atoms: C_13  and  C_14
REMARK                            x       y       z     vdW  Elec       q    Type
REMARK                         _______ _______ _______ _____ _____    ______ ____
ROOT
ATOM      1  C   UNL     1      -0.410  12.744  20.051  0.00  0.00    +0.000 A 
ATOM      2  N   UNL     1      -1.540  12.518  20.776  0.00  0.00    +0.000 NA
ATOM      3  C   UNL     1      -2.159  13.513  21.434  0.00  0.00    +0.000 A 
ATOM      4  N   UNL     1      -1.793  14.794  21.409  0.00  0.00    +0.000 NA
ATOM      5  C   UNL     1      -0.712  15.026  20.651  0.00  0.00    +0.000 A 
ATOM      6  S   UNL     1      -0.158  16.630  20.495  0.00  0.00    +0.000 S 
ATOM      7  C   UNL     1       1.085  16.163  19.447  0.00  0.00    +0.000 A 
ATOM      8  C   UNL     1       1.134  14.796  19.240  0.00  0.00    +0.000 A 
ATOM      9  C   UNL     1       0.049  14.095  19.949  0.00  0.00    +0.000 A 
ATOM     10  C   UNL     1       2.172  14.231  18.310  0.00  0.00    +0.000 C 
ATOM     11  C   UNL     1       3.235  15.223  17.835  0.00  0.00    +0.000 C 
ATOM     12  C   UNL     1       2.662  16.607  17.571  0.00  0.00    +0.000 C 
ATOM     13  C   UNL     1       2.019  17.168  18.841  0.00  0.00    +0.000 C 
ENDROOT
BRANCH   1  17
ATOM     14  N   UNL     1       1.432   9.465  17.932  0.00  0.00    +0.000 NA
ATOM     15  C   UNL     1      -0.008   9.783  17.873  0.00  0.00    +0.000 C 
ATOM     16  C   UNL     1      -0.554  10.440  19.146  0.00  0.00    +0.000 C 
ATOM     17  N   UNL     1       0.199  11.616  19.540  0.00  0.00    +0.000 N 
ATOM     18  C   UNL     1       1.661  11.506  19.510  0.00  0.00    +0.000 C 
ATOM     19  C   UNL     1       2.142  10.737  18.246  0.00  0.00    +0.000 C 
BRANCH  14  20
ATOM     20  C   UNL     1       1.769   8.410  18.912  0.00  0.00    +0.000 C 
BRANCH  20  21
ATOM     21  C   UNL     1       2.663   7.281  18.358  0.00  0.00    +0.000 C 
BRANCH  21  25
ATOM     22  C   UNL     1       1.289   3.409  19.681  0.00  0.00    +0.000 A 
ATOM     23  C   UNL     1       1.464   3.659  18.320  0.00  0.00    +0.000 A 
ATOM     24  C   UNL     1       1.913   4.910  17.892  0.00  0.00    +0.000 A 
ATOM     25  C   UNL     1       2.197   5.920  18.822  0.00  0.00    +0.000 A 
ATOM     26  C   UNL     1       2.018   5.657  20.185  0.00  0.00    +0.000 A 
ATOM     27  C   UNL     1       1.565   4.402  20.611  0.00  0.00    +0.000 A 
ENDBRANCH  21  25
ENDBRANCH  20  21
ENDBRANCH  14  20
ENDBRANCH   1  17
BRANCH   3  28
ATOM     28  C   UNL     1      -3.322  13.154  22.280  0.00  0.00    +0.000 A 
ATOM     29  C   UNL     1      -3.172  12.780  23.624  0.00  0.00    +0.000 A 
ATOM     30  C   UNL     1      -4.292  12.463  24.380  0.00  0.00    +0.000 A 
ATOM     31  N   UNL     1      -5.553  12.491  23.903  0.00  0.00    +0.000 NA
ATOM     32  C   UNL     1      -5.696  12.855  22.613  0.00  0.00    +0.000 A 
ATOM     33  C   UNL     1      -4.636  13.189  21.782  0.00  0.00    +0.000 A 
ENDBRANCH   3  28
TORSDOF 5
ENDMDL
MODEL 4
REMARK VINA RESULT:      -7.3      0.188      1.175
REMARK  Name = 
REMARK  5 active torsions:
REMARK  status: ('A' for Active; 'I' for Inactive)
REMARK    1  A    between atoms: C_4  and  C_5
REMARK    2  A    between atoms: C_5  and  C_6
REMARK    3  A    between atoms: C_6  and  N_7
REMARK    4  A    between atoms: N_10  and  C_11
REMARK    5  A    between atoms: C_13  and  C_14
REMARK                            x       y       z     vdW  Elec       q    Type
REMARK                         _______ _______ _______ _____ _____    ______ ____
ROOT
ATOM      1  C   UNL     1      -2.257  13.108  20.662  0.00  0.00    +0.000 A 
ATOM      2  N   UNL     1      -3.443  12.725  21.209  0.00  0.00    +0.000 NA
ATOM      3  C   UNL     1      -4.358  13.630  21.599  0.00  0.00    +0.000 A 
ATOM      4  N   UNL     1      -4.245  14.949  21.450  0.00  0.00    +0.000 NA
ATOM      5  C   UNL     1      -3.100  15.324  20.861  0.00  0.00    +0.000 A 
ATOM      6  S   UNL     1      -2.842  16.983  20.568  0.00  0.00    +0.000 S 
ATOM      7  C   UNL     1      -1.352  16.683  19.827  0.00  0.00    +0.000 A 
ATOM      8  C   UNL     1      -1.004  15.344  19.833  0.00  0.00    +0.000 A 
ATOM      9  C   UNL     1      -2.053  14.507  20.443  0.00  0.00    +0.000 A 
ATOM     10  C   UNL     1       0.286  14.917  19.186  0.00  0.00    +0.000 C 
ATOM     11  C   UNL     1       1.212  16.057  18.759  0.00  0.00    +0.000 C 
ATOM     12  C   UNL     1       0.449  17.249  18.202  0.00  0.00    +0.000 C 
ATOM     13  C   UNL     1      -0.526  17.793  19.249  0.00  0.00    +0.000 C 
ENDROOT
BRANCH   1  17
ATOM     14  N   UNL     1       0.839  10.294  19.600  0.00  0.00    +0.000 NA
ATOM     15  C   UNL     1      -0.211  10.757  18.673  0.00  0.00    +0.000 C 
ATOM     16  C   UNL     1      -1.531  11.127  19.359  0.00  0.00    +0.000 C 
ATOM     17  N   UNL     1      -1.356  12.089  20.432  0.00  0.00    +0.000 N 
ATOM     18  C   UNL     1      -0.250  11.846  21.364  0.00  0.00    +0.000 C 
ATOM     19  C   UNL     1       1.027  11.372  20.612  0.00  0.00    +0.000 C 
BRANCH  14  20
ATOM     20  C   UNL     1       0.533   9.001  20.248  0.00  0.00    +0.000 C 
BRANCH  20  21
ATOM     21  C   UNL     1       1.769   8.226  20.753  0.00  0.00    +0.000 C 
BRANCH  21  25
ATOM     22  C   UNL     1       2.280   4.529  18.586  0.00  0.00    +0.000 A 
ATOM     23  C   UNL     1       2.577   5.745  17.970  0.00  0.00    +0.000 A 
ATOM     24  C   UNL     1       2.417   6.941  18.672  0.00  0.00    +0.000 A 
ATOM     25  C   UNL     1       1.963   6.931  19.999  0.00  0.00    +0.000 A 
ATOM     26  C   UNL     1       1.669   5.704  20.606  0.00  0.00    +0.000 A 
ATOM     27  C   UNL     1       1.829   4.507  19.899  0.00  0.00    +0.000 A 
ENDBRANCH  21  25
ENDBRANCH  20  21
ENDBRANCH  14  20
ENDBRANCH   1  17
BRANCH   3  28
ATOM     28  C   UNL     1      -5.574  13.124  22.278  0.00  0.00    +0.000 A 
ATOM     29  C   UNL     1      -5.870  13.454  23.609  0.00  0.00    +0.000 A 
ATOM     30  C   UNL     1      -7.027  12.964  24.199  0.00  0.00    +0.000 A 
ATOM     31  N   UNL     1      -7.916  12.172  23.567  0.00  0.00    +0.000 NA
ATOM     32  C   UNL     1      -7.633  11.859  22.286  0.00  0.00    +0.000 A 
ATOM     33  C   UNL     1      -6.502  12.301  21.615  0.00  0.00    +0.000 A 
ENDBRANCH   3  28
TORSDOF 5
ENDMDL
MODEL 5
REMARK VINA RESULT:      -7.3      1.462      2.154
REMARK  Name = 
REMARK  5 active torsions:
REMARK  status: ('A' for Active; 'I' for Inactive)
REMARK    1  A    between atoms: C_4  and  C_5
REMARK    2  A    between atoms: C_5  and  C_6
REMARK    3  A    between atoms: C_6  and  N_7
REMARK    4  A    between atoms: N_10  and  C_11
REMARK    5  A    between atoms: C_13  and  C_14
REMARK                            x       y       z     vdW  Elec       q    Type
REMARK                         _______ _______ _______ _____ _____    ______ ____
ROOT
ATOM      1  C   UNL     1      -0.947  11.948  20.622  0.00  0.00    +0.000 A 
ATOM      2  N   UNL     1      -2.224  11.877  21.089  0.00  0.00    +0.000 NA
ATOM      3  C   UNL     1      -2.965  12.984  21.269  0.00  0.00    +0.000 A 
ATOM      4  N   UNL     1      -2.579  14.224  20.970  0.00  0.00    +0.000 NA
ATOM      5  C   UNL     1      -1.341  14.289  20.459  0.00  0.00    +0.000 A 
ATOM      6  S   UNL     1      -0.733  15.811  19.993  0.00  0.00    +0.000 S 
ATOM      7  C   UNL     1       0.718  15.134  19.450  0.00  0.00    +0.000 A 
ATOM      8  C   UNL     1       0.789  13.767  19.657  0.00  0.00    +0.000 A 
ATOM      9  C   UNL     1      -0.450  13.238  20.254  0.00  0.00    +0.000 A 
ATOM     10  C   UNL     1       2.011  13.018  19.202  0.00  0.00    +0.000 C 
ATOM     11  C   UNL     1       3.177  13.890  18.734  0.00  0.00    +0.000 C 
ATOM     12  C   UNL     1       2.714  15.115  17.960  0.00  0.00    +0.000 C 
ATOM     13  C   UNL     1       1.792  15.975  18.827  0.00  0.00    +0.000 C 
ENDROOT
BRANCH   1  17
ATOM     14  N   UNL     1       1.693   8.535  20.503  0.00  0.00    +0.000 NA
ATOM     15  C   UNL     1       1.339   9.349  19.323  0.00  0.00    +0.000 C 
ATOM     16  C   UNL     1      -0.054   9.985  19.400  0.00  0.00    +0.000 C 
ATOM     17  N   UNL     1      -0.255  10.755  20.613  0.00  0.00    +0.000 N 
ATOM     18  C   UNL     1       0.185  10.137  21.869  0.00  0.00    +0.000 C 
ATOM     19  C   UNL     1       1.554   9.420  21.694  0.00  0.00    +0.000 C 
BRANCH  14  20
ATOM     20  C   UNL     1       0.876   7.311  20.648  0.00  0.00    +0.000 C 
BRANCH  20  21
ATOM     21  C   UNL     1       1.667   6.059  21.083  0.00  0.00    +0.000 C 
BRANCH  21  25
ATOM     22  C   UNL     1       1.487   2.910  18.138  0.00  0.00    +0.000 A 
ATOM     23  C   UNL     1       0.997   2.690  19.424  0.00  0.00    +0.000 A 
ATOM     24  C   UNL     1       1.050   3.710  20.376  0.00  0.00    +0.000 A 
ATOM     25  C   UNL     1       1.589   4.962  20.047  0.00  0.00    +0.000 A 
ATOM     26  C   UNL     1       2.078   5.171  18.752  0.00  0.00    +0.000 A 
ATOM     27  C   UNL     1       2.025   4.145  17.800  0.00  0.00    +0.000 A 
ENDBRANCH  21  25
ENDBRANCH  20  21
ENDBRANCH  14  20
ENDBRANCH   1  17
BRANCH   3  28
ATOM     28  C   UNL     1      -4.306  12.818  21.877  0.00  0.00    +0.000 A 
ATOM     29  C   UNL     1      -4.524  13.004  23.251  0.00  0.00    +0.000 A 
ATOM     30  C   UNL     1      -5.800  12.847  23.774  0.00  0.00    +0.000 A 
ATOM     31  N   UNL     1      -6.880  12.521  23.035  0.00  0.00    +0.000 NA
ATOM     32  C   UNL     1      -6.671  12.347  21.715  0.00  0.00    +0.000 A 
ATOM     33  C   UNL     1      -5.432  12.482  21.104  0.00  0.00    +0.000 A 
ENDBRANCH   3  28
TORSDOF 5
ENDMDL
MODEL 6
REMARK VINA RESULT:      -7.2      1.571      2.354
REMARK  Name = 
REMARK  5 active torsions:
REMARK  status: ('A' for Active; 'I' for Inactive)
REMARK    1  A    between atoms: C_4  and  C_5
REMARK    2  A    between atoms: C_5  and  C_6
REMARK    3  A    between atoms: C_6  and  N_7
REMARK    4  A    between atoms: N_10  and  C_11
REMARK    5  A    between atoms: C_13  and  C_14
REMARK                            x       y       z     vdW  Elec       q    Type
REMARK                         _______ _______ _______ _____ _____    ______ ____
ROOT
ATOM      1  C   UNL     1      -0.433  12.674  19.516  0.00  0.00    +0.000 A 
ATOM      2  N   UNL     1      -1.660  12.476  20.073  0.00  0.00    +0.000 NA
ATOM      3  C   UNL     1      -2.361  13.495  20.601  0.00  0.00    +0.000 A 
ATOM      4  N   UNL     1      -1.984  14.773  20.588  0.00  0.00    +0.000 NA
ATOM      5  C   UNL     1      -0.801  14.977  19.990  0.00  0.00    +0.000 A 
ATOM      6  S   UNL     1      -0.217  16.572  19.866  0.00  0.00    +0.000 S 
ATOM      7  C   UNL     1       1.163  16.067  19.029  0.00  0.00    +0.000 A 
ATOM      8  C   UNL     1       1.230  14.693  18.875  0.00  0.00    +0.000 A 
ATOM      9  C   UNL     1       0.047  14.019  19.439  0.00  0.00    +0.000 A 
ATOM     10  C   UNL     1       2.389  14.093  18.127  0.00  0.00    +0.000 C 
ATOM     11  C   UNL     1       3.519  15.066  17.782  0.00  0.00    +0.000 C 
ATOM     12  C   UNL     1       3.002  16.442  17.392  0.00  0.00    +0.000 C 
ATOM     13  C   UNL     1       2.184  17.048  18.535  0.00  0.00    +0.000 C 
ENDROOT
BRANCH   1  17
ATOM     14  N   UNL     1       1.590   9.276  17.786  0.00  0.00    +0.000 NA
ATOM     15  C   UNL     1       0.137   9.517  17.680  0.00  0.00    +0.000 C 
ATOM     16  C   UNL     1      -0.457  10.281  18.868  0.00  0.00    +0.000 C 
ATOM     17  N   UNL     1       0.235  11.528  19.137  0.00  0.00    +0.000 N 
ATOM     18  C   UNL     1       1.701  11.486  19.132  0.00  0.00    +0.000 C 
ATOM     19  C   UNL     1       2.235  10.608  17.964  0.00  0.00    +0.000 C 
BRANCH  14  20
ATOM     20  C   UNL     1       1.962   8.352  18.878  0.00  0.00    +0.000 C 
BRANCH  20  21
ATOM     21  C   UNL     1       2.814   7.144  18.435  0.00  0.00    +0.000 C 
BRANCH  21  25
ATOM     22  C   UNL     1       1.087   3.387  19.670  0.00  0.00    +0.000 A 
ATOM     23  C   UNL     1       1.372   4.368  20.619  0.00  0.00    +0.000 A 
ATOM     24  C   UNL     1       1.926   5.586  20.219  0.00  0.00    +0.000 A 
ATOM     25  C   UNL     1       2.195   5.835  18.866  0.00  0.00    +0.000 A 
ATOM     26  C   UNL     1       1.904   4.841  17.923  0.00  0.00    +0.000 A 
ATOM     27  C   UNL     1       1.350   3.621  18.327  0.00  0.00    +0.000 A 
ENDBRANCH  21  25
ENDBRANCH  20  21
ENDBRANCH  14  20
ENDBRANCH   1  17
BRANCH   3  28
ATOM     28  C   UNL     1      -3.638  13.169  21.277  0.00  0.00    +0.000 A 
ATOM     29  C   UNL     1      -4.752  12.697  20.565  0.00  0.00    +0.000 A 
ATOM     30  C   UNL     1      -5.924  12.393  21.244  0.00  0.00    +0.000 A 
ATOM     31  N   UNL     1      -6.075  12.521  22.578  0.00  0.00    +0.000 NA
ATOM     32  C   UNL     1      -5.003  12.971  23.260  0.00  0.00    +0.000 A 
ATOM     33  C   UNL     1      -3.792  13.299  22.668  0.00  0.00    +0.000 A 
ENDBRANCH   3  28
TORSDOF 5
ENDMDL
MODEL 7
REMARK VINA RESULT:      -7.2      2.232      5.577
REMARK  Name = 
REMARK  5 active torsions:
REMARK  status: ('A' for Active; 'I' for Inactive)
REMARK    1  A    between atoms: C_4  and  C_5
REMARK    2  A    between atoms: C_5  and  C_6
REMARK    3  A    between atoms: C_6  and  N_7
REMARK    4  A    between atoms: N_10  and  C_11
REMARK    5  A    between atoms: C_13  and  C_14
REMARK                            x       y       z     vdW  Elec       q    Type
REMARK                         _______ _______ _______ _____ _____    ______ ____
ROOT
ATOM      1  C   UNL     1      -0.867  13.913  20.380  0.00  0.00    +0.000 A 
ATOM      2  N   UNL     1      -0.252  14.790  19.539  0.00  0.00    +0.000 NA
ATOM      3  C   UNL     1      -0.628  16.079  19.476  0.00  0.00    +0.000 A 
ATOM      4  N   UNL     1      -1.565  16.644  20.237  0.00  0.00    +0.000 NA
ATOM      5  C   UNL     1      -2.133  15.793  21.105  0.00  0.00    +0.000 A 
ATOM      6  S   UNL     1      -3.320  16.391  22.171  0.00  0.00    +0.000 S 
ATOM      7  C   UNL     1      -3.504  14.882  22.911  0.00  0.00    +0.000 A 
ATOM      8  C   UNL     1      -2.717  13.898  22.337  0.00  0.00    +0.000 A 
ATOM      9  C   UNL     1      -1.874  14.433  21.253  0.00  0.00    +0.000 A 
ATOM     10  C   UNL     1      -2.753  12.505  22.904  0.00  0.00    +0.000 C 
ATOM     11  C   UNL     1      -3.839  12.253  23.952  0.00  0.00    +0.000 C 
ATOM     12  C   UNL     1      -4.048  13.446  24.872  0.00  0.00    +0.000 C 
ATOM     13  C   UNL     1      -4.446  14.681  24.060  0.00  0.00    +0.000 C 
ENDROOT
BRANCH   1  17
ATOM     14  N   UNL     1       0.492   9.930  19.421  0.00  0.00    +0.000 NA
ATOM     15  C   UNL     1      -0.746  10.533  18.888  0.00  0.00    +0.000 C 
ATOM     16  C   UNL     1      -1.396  11.555  19.827  0.00  0.00    +0.000 C 
ATOM     17  N   UNL     1      -0.478  12.596  20.247  0.00  0.00    +0.000 N 
ATOM     18  C   UNL     1       0.859  12.167  20.672  0.00  0.00    +0.000 C 
ATOM     19  C   UNL     1       1.416  11.054  19.738  0.00  0.00    +0.000 C 
BRANCH  14  20
ATOM     20  C   UNL     1       0.273   9.068  20.602  0.00  0.00    +0.000 C 
BRANCH  20  21
ATOM     21  C   UNL     1       1.530   8.319  21.091  0.00  0.00    +0.000 C 
BRANCH  21  25
ATOM     22  C   UNL     1       2.538   4.977  18.552  0.00  0.00    +0.000 A 
ATOM     23  C   UNL     1       1.955   4.754  19.799  0.00  0.00    +0.000 A 
ATOM     24  C   UNL     1       1.624   5.835  20.619  0.00  0.00    +0.000 A 
ATOM     25  C   UNL     1       1.868   7.150  20.196  0.00  0.00    +0.000 A 
ATOM     26  C   UNL     1       2.453   7.360  18.941  0.00  0.00    +0.000 A 
ATOM     27  C   UNL     1       2.785   6.275  18.122  0.00  0.00    +0.000 A 
ENDBRANCH  21  25
ENDBRANCH  20  21
ENDBRANCH  14  20
ENDBRANCH   1  17
BRANCH   3  28
ATOM     28  C   UNL     1       0.028  16.934  18.459  0.00  0.00    +0.000 A 
ATOM     29  C   UNL     1       1.408  16.868  18.217  0.00  0.00    +0.000 A 
ATOM     30  C   UNL     1       1.977  17.681  17.246  0.00  0.00    +0.000 A 
ATOM     31  N   UNL     1       1.277  18.555  16.494  0.00  0.00    +0.000 NA
ATOM     32  C   UNL     1      -0.050  18.614  16.724  0.00  0.00    +0.000 A 
ATOM     33  C   UNL     1      -0.704  17.841  17.673  0.00  0.00    +0.000 A 
ENDBRANCH   3  28
TORSDOF 5
ENDMDL
MODEL 8
REMARK VINA RESULT:      -7.1      2.691      4.497
REMARK  Name = 
REMARK  5 active torsions:
REMARK  status: ('A' for Active; 'I' for Inactive)
REMARK    1  A    between atoms: C_4  and  C_5
REMARK    2  A    between atoms: C_5  and  C_6
REMARK    3  A    between atoms: C_6  and  N_7
REMARK    4  A    between atoms: N_10  and  C_11
REMARK    5  A    between atoms: C_13  and  C_14
REMARK                            x       y       z     vdW  Elec       q    Type
REMARK                         _______ _______ _______ _____ _____    ______ ____
ROOT
ATOM      1  C   UNL     1      -2.324  13.125  21.099  0.00  0.00    +0.000 A 
ATOM      2  N   UNL     1      -1.950  13.873  22.174  0.00  0.00    +0.000 NA
ATOM      3  C   UNL     1      -2.804  14.730  22.760  0.00  0.00    +0.000 A 
ATOM      4  N   UNL     1      -4.080  14.900  22.414  0.00  0.00    +0.000 NA
ATOM      5  C   UNL     1      -4.464  14.123  21.391  0.00  0.00    +0.000 A 
ATOM      6  S   UNL     1      -6.085  14.207  20.871  0.00  0.00    +0.000 S 
ATOM      7  C   UNL     1      -5.834  13.016  19.697  0.00  0.00    +0.000 A 
ATOM      8  C   UNL     1      -4.523  12.575  19.644  0.00  0.00    +0.000 A 
ATOM      9  C   UNL     1      -3.684  13.225  20.667  0.00  0.00    +0.000 A 
ATOM     10  C   UNL     1      -4.150  11.496  18.664  0.00  0.00    +0.000 C 
ATOM     11  C   UNL     1      -5.235  11.129  17.651  0.00  0.00    +0.000 C 
ATOM     12  C   UNL     1      -6.628  11.143  18.259  0.00  0.00    +0.000 C 
ATOM     13  C   UNL     1      -6.950  12.530  18.821  0.00  0.00    +0.000 C 
ENDROOT
BRANCH   1  17
ATOM     14  N   UNL     1       1.197  11.201  19.508  0.00  0.00    +0.000 NA
ATOM     15  C   UNL     1       0.696  12.514  19.057  0.00  0.00    +0.000 C 
ATOM     16  C   UNL     1      -0.823  12.677  19.177  0.00  0.00    +0.000 C 
ATOM     17  N   UNL     1      -1.315  12.390  20.512  0.00  0.00    +0.000 N 
ATOM     18  C   UNL     1      -0.794  11.183  21.164  0.00  0.00    +0.000 C 
ATOM     19  C   UNL     1       0.733  11.023  20.913  0.00  0.00    +0.000 C 
BRANCH  14  20
ATOM     20  C   UNL     1       0.765  10.073  18.655  0.00  0.00    +0.000 C 
BRANCH  20  21
ATOM     21  C   UNL     1       1.870   9.496  17.746  0.00  0.00    +0.000 C 
BRANCH  21  25
ATOM     22  C   UNL     1       3.419   5.772  19.282  0.00  0.00    +0.000 A 
ATOM     23  C   UNL     1       2.417   6.449  19.976  0.00  0.00    +0.000 A 
ATOM     24  C   UNL     1       1.912   7.652  19.477  0.00  0.00    +0.000 A 
ATOM     25  C   UNL     1       2.401   8.184  18.275  0.00  0.00    +0.000 A 
ATOM     26  C   UNL     1       3.407   7.495  17.588  0.00  0.00    +0.000 A 
ATOM     27  C   UNL     1       3.913   6.290  18.091  0.00  0.00    +0.000 A 
ENDBRANCH  21  25
ENDBRANCH  20  21
ENDBRANCH  14  20
ENDBRANCH   1  17
BRANCH   3  28
ATOM     28  C   UNL     1      -2.278  15.577  23.856  0.00  0.00    +0.000 A 
ATOM     29  C   UNL     1      -2.115  16.963  23.708  0.00  0.00    +0.000 A 
ATOM     30  C   UNL     1      -1.628  17.716  24.767  0.00  0.00    +0.000 A 
ATOM     31  N   UNL     1      -1.293  17.198  25.966  0.00  0.00    +0.000 NA
ATOM     32  C   UNL     1      -1.455  15.868  26.109  0.00  0.00    +0.000 A 
ATOM     33  C   UNL     1      -1.933  15.035  25.107  0.00  0.00    +0.000 A 
ENDBRANCH   3  28
TORSDOF 5
ENDMDL
MODEL 9
REMARK VINA RESULT:      -7.1      1.616      2.293
REMARK  Name = 
REMARK  5 active torsions:
REMARK  status: ('A' for Active; 'I' for Inactive)
REMARK    1  A    between atoms: C_4  and  C_5
REMARK    2  A    between atoms: C_5  and  C_6
REMARK    3  A    between atoms: C_6  and  N_7
REMARK    4  A    between atoms: N_10  and  C_11
REMARK    5  A    between atoms: C_13  and  C_14
REMARK                            x       y       z     vdW  Elec       q    Type
REMARK                         _______ _______ _______ _____ _____    ______ ____
ROOT
ATOM      1  C   UNL     1      -0.724  11.792  21.002  0.00  0.00    +0.000 A 
ATOM      2  N   UNL     1      -1.933  11.760  21.628  0.00  0.00    +0.000 NA
ATOM      3  C   UNL     1      -2.602  12.891  21.914  0.00  0.00    +0.000 A 
ATOM      4  N   UNL     1      -2.210  14.120  21.582  0.00  0.00    +0.000 NA
ATOM      5  C   UNL     1      -1.046  14.148  20.917  0.00  0.00    +0.000 A 
ATOM      6  S   UNL     1      -0.445  15.654  20.393  0.00  0.00    +0.000 S 
ATOM      7  C   UNL     1       0.898  14.933  19.661  0.00  0.00    +0.000 A 
ATOM      8  C   UNL     1       0.942  13.562  19.841  0.00  0.00    +0.000 A 
ATOM      9  C   UNL     1      -0.230  13.069  20.588  0.00  0.00    +0.000 A 
ATOM     10  C   UNL     1       2.066  12.775  19.225  0.00  0.00    +0.000 C 
ATOM     11  C   UNL     1       3.196  13.612  18.621  0.00  0.00    +0.000 C 
ATOM     12  C   UNL     1       2.684  14.864  17.926  0.00  0.00    +0.000 C 
ATOM     13  C   UNL     1       1.914  15.744  18.913  0.00  0.00    +0.000 C 
ENDROOT
BRANCH   1  17
ATOM     14  N   UNL     1       1.762   8.289  20.583  0.00  0.00    +0.000 NA
ATOM     15  C   UNL     1       1.433   9.207  19.475  0.00  0.00    +0.000 C 
ATOM     16  C   UNL     1       0.070   9.894  19.619  0.00  0.00    +0.000 C 
ATOM     17  N   UNL     1      -0.085  10.575  20.891  0.00  0.00    +0.000 N 
ATOM     18  C   UNL     1       0.340   9.843  22.089  0.00  0.00    +0.000 C 
ATOM     19  C   UNL     1       1.675   9.083  21.841  0.00  0.00    +0.000 C 
BRANCH  14  20
ATOM     20  C   UNL     1       0.894   7.093  20.643  0.00  0.00    +0.000 C 
BRANCH  20  21
ATOM     21  C   UNL     1       1.643   5.769  20.900  0.00  0.00    +0.000 C 
BRANCH  21  25
ATOM     22  C   UNL     1       3.420   4.259  17.269  0.00  0.00    +0.000 A 
ATOM     23  C   UNL     1       4.136   5.136  18.083  0.00  0.00    +0.000 A 
ATOM     24  C   UNL     1       3.563   5.621  19.261  0.00  0.00    +0.000 A 
ATOM     25  C   UNL     1       2.271   5.228  19.638  0.00  0.00    +0.000 A 
ATOM     26  C   UNL     1       1.563   4.345  18.812  0.00  0.00    +0.000 A 
ATOM     27  C   UNL     1       2.139   3.862  17.631  0.00  0.00    +0.000 A 
ENDBRANCH  21  25
ENDBRANCH  20  21
ENDBRANCH  14  20
ENDBRANCH   1  17
BRANCH   3  28
ATOM     28  C   UNL     1      -3.860  12.764  22.688  0.00  0.00    +0.000 A 
ATOM     29  C   UNL     1      -5.117  12.928  22.087  0.00  0.00    +0.000 A 
ATOM     30  C   UNL     1      -6.268  12.788  22.851  0.00  0.00    +0.000 A 
ATOM     31  N   UNL     1      -6.266  12.496  24.167  0.00  0.00    +0.000 NA
ATOM     32  C   UNL     1      -5.058  12.335  24.742  0.00  0.00    +0.000 A 
ATOM     33  C   UNL     1      -3.855  12.455  24.059  0.00  0.00    +0.000 A 
ENDBRANCH   3  28
TORSDOF 5
ENDMDL
