MODEL 1
REMARK VINA RESULT:      -7.9      0.000      0.000
REMARK  Name = 
REMARK  16 active torsions:
REMARK  status: ('A' for Active; 'I' for Inactive)
REMARK    1  A    between atoms: C_2  and  O_3
REMARK    2  A    between atoms: C_2  and  C_4
REMARK    3  A    between atoms: C_4  and  O_5
REMARK    4  A    between atoms: C_4  and  C_28
REMARK    5  A    between atoms: O_5  and  C_6
REMARK    6  A    between atoms: C_8  and  C_9
REMARK    7  A    between atoms: C_9  and  O_10
REMARK    8  A    between atoms: O_10  and  C_11
REMARK    9  A    between atoms: C_13  and  C_14
REMARK   10  A    between atoms: C_14  and  O_15
REMARK   11  A    between atoms: C_16  and  O_17
REMARK   12  A    between atoms: C_18  and  O_19
REMARK   13  A    between atoms: C_20  and  O_21
REMARK   14  A    between atoms: C_22  and  O_23
REMARK   15  A    between atoms: C_24  and  O_25
REMARK   16  A    between atoms: C_26  and  O_27
REMARK                            x       y       z     vdW  Elec       q    Type
REMARK                         _______ _______ _______ _____ _____    ______ ____
ROOT
ATOM      1  C   UNL     1       4.304   4.395  19.325  0.00  0.00    +0.000 C 
ATOM      2  O   UNL     1       3.754   4.602  20.641  0.00  0.00    +0.000 OA
ATOM      3  C   UNL     1       2.312   4.692  20.658  0.00  0.00    +0.000 C 
ATOM      4  C   UNL     1       1.708   3.361  20.165  0.00  0.00    +0.000 C 
ATOM      5  C   UNL     1       2.233   3.055  18.756  0.00  0.00    +0.000 C 
ATOM      6  C   UNL     1       3.767   3.075  18.746  0.00  0.00    +0.000 C 
ENDROOT
BRANCH   6   7
ATOM      7  O   UNL     1       4.241   1.946  19.513  0.00  0.00    +0.000 OA
ATOM      8  H   UNL     1       5.222   1.988  19.505  0.00  0.00    +0.000 HD
ENDBRANCH   6   7
BRANCH   5   9
ATOM      9  O   UNL     1       1.785   1.775  18.299  0.00  0.00    +0.000 OA
ATOM     10  H   UNL     1       1.871   1.172  19.064  0.00  0.00    +0.000 HD
ENDBRANCH   5   9
BRANCH   4  11
ATOM     11  O   UNL     1       0.282   3.344  20.197  0.00  0.00    +0.000 OA
ATOM     12  H   UNL     1      -0.045   4.203  19.877  0.00  0.00    +0.000 HD
ENDBRANCH   4  11
BRANCH   3  13
ATOM     13  C   UNL     1       1.820   5.936  19.888  0.00  0.00    +0.000 C 
BRANCH  13  14
ATOM     14  O   UNL     1       2.362   7.153  20.419  0.00  0.00    +0.000 OA
BRANCH  14  15
ATOM     15  C   UNL     1       1.368   8.186  20.379  0.00  0.00    +0.000 C 
ATOM     16  O   UNL     1       1.848   9.263  19.578  0.00  0.00    +0.000 OA
ATOM     17  C   UNL     1       0.914  10.336  19.411  0.00  0.00    +0.000 C 
ATOM     18  C   UNL     1       0.633  10.966  20.780  0.00  0.00    +0.000 C 
ATOM     19  C   UNL     1       0.086   9.890  21.745  0.00  0.00    +0.000 C 
ATOM     20  C   UNL     1       1.051   8.689  21.809  0.00  0.00    +0.000 C 
BRANCH  20  21
ATOM     21  O   UNL     1       2.237   9.135  22.500  0.00  0.00    +0.000 OA
ATOM     22  H   UNL     1       2.944   9.222  21.830  0.00  0.00    +0.000 HD
ENDBRANCH  20  21
BRANCH  19  23
ATOM     23  O   UNL     1      -0.092  10.445  23.050  0.00  0.00    +0.000 OA
ATOM     24  H   UNL     1      -0.613   9.786  23.554  0.00  0.00    +0.000 HD
ENDBRANCH  19  23
BRANCH  18  25
ATOM     25  O   UNL     1      -0.226  12.086  20.635  0.00  0.00    +0.000 OA
ATOM     26  H   UNL     1       0.038  12.610  19.860  0.00  0.00    +0.000 HD
ENDBRANCH  18  25
BRANCH  17  27
ATOM     27  C   UNL     1      -0.371   9.906  18.667  0.00  0.00    +0.000 C 
BRANCH  27  28
ATOM     28  O   UNL     1      -0.882  10.968  17.870  0.00  0.00    +0.000 OA
ATOM     29  H   UNL     1      -1.838  10.824  17.749  0.00  0.00    +0.000 HD
ENDBRANCH  27  28
ENDBRANCH  17  27
ENDBRANCH  14  15
ENDBRANCH  13  14
ENDBRANCH   3  13
BRANCH   1  30
ATOM     30  O   UNL     1       5.728   4.389  19.426  0.00  0.00    +0.000 OA
BRANCH  30  31
ATOM     31  C   UNL     1       6.348   5.558  18.877  0.00  0.00    +0.000 C 
BRANCH  31  32
ATOM     32  C   UNL     1       6.242   5.439  17.372  0.00  0.00    +0.000 A 
ATOM     33  C   UNL     1       5.395   6.279  16.632  0.00  0.00    +0.000 A 
ATOM     34  C   UNL     1       5.273   6.118  15.253  0.00  0.00    +0.000 A 
ATOM     35  C   UNL     1       5.999   5.123  14.595  0.00  0.00    +0.000 A 
ATOM     36  C   UNL     1       6.847   4.289  15.319  0.00  0.00    +0.000 A 
ATOM     37  C   UNL     1       6.967   4.444  16.698  0.00  0.00    +0.000 A 
ENDBRANCH  31  32
BRANCH  31  39
ATOM     38  O   UNL     1       8.492   5.072  19.996  0.00  0.00    +0.000 OA
ATOM     39  C   UNL     1       7.807   5.813  19.298  0.00  0.00    +0.000 C 
BRANCH  39  40
ATOM     40  O   UNL     1       8.309   7.017  18.886  0.00  0.00    +0.000 OA
ATOM     41  H   UNL     1       9.173   6.961  18.419  0.00  0.00    +0.000 HD
ENDBRANCH  39  40
ENDBRANCH  31  39
ENDBRANCH  30  31
ENDBRANCH   1  30
TORSDOF 16
ENDMDL
MODEL 2
REMARK VINA RESULT:      -7.8      1.736      2.898
REMARK  Name = 
REMARK  16 active torsions:
REMARK  status: ('A' for Active; 'I' for Inactive)
REMARK    1  A    between atoms: C_2  and  O_3
REMARK    2  A    between atoms: C_2  and  C_4
REMARK    3  A    between atoms: C_4  and  O_5
REMARK    4  A    between atoms: C_4  and  C_28
REMARK    5  A    between atoms: O_5  and  C_6
REMARK    6  A    between atoms: C_8  and  C_9
REMARK    7  A    between atoms: C_9  and  O_10
REMARK    8  A    between atoms: O_10  and  C_11
REMARK    9  A    between atoms: C_13  and  C_14
REMARK   10  A    between atoms: C_14  and  O_15
REMARK   11  A    between atoms: C_16  and  O_17
REMARK   12  A    between atoms: C_18  and  O_19
REMARK   13  A    between atoms: C_20  and  O_21
REMARK   14  A    between atoms: C_22  and  O_23
REMARK   15  A    between atoms: C_24  and  O_25
REMARK   16  A    between atoms: C_26  and  O_27
REMARK                            x       y       z     vdW  Elec       q    Type
REMARK                         _______ _______ _______ _____ _____    ______ ____
ROOT
ATOM      1  C   UNL     1       4.077   4.329  17.464  0.00  0.00    +0.000 C 
ATOM      2  O   UNL     1       4.573   5.486  18.165  0.00  0.00    +0.000 OA
ATOM      3  C   UNL     1       3.620   6.052  19.094  0.00  0.00    +0.000 C 
ATOM      4  C   UNL     1       3.296   5.017  20.190  0.00  0.00    +0.000 C 
ATOM      5  C   UNL     1       2.750   3.739  19.538  0.00  0.00    +0.000 C 
ATOM      6  C   UNL     1       3.733   3.224  18.478  0.00  0.00    +0.000 C 
ENDROOT
BRANCH   6   7
ATOM      7  O   UNL     1       4.921   2.753  19.151  0.00  0.00    +0.000 OA
ATOM      8  H   UNL     1       5.036   1.811  18.899  0.00  0.00    +0.000 HD
ENDBRANCH   6   7
BRANCH   5   9
ATOM      9  O   UNL     1       2.535   2.709  20.508  0.00  0.00    +0.000 OA
ATOM     10  H   UNL     1       2.714   3.118  21.378  0.00  0.00    +0.000 HD
ENDBRANCH   5   9
BRANCH   4  11
ATOM     11  O   UNL     1       2.397   5.511  21.182  0.00  0.00    +0.000 OA
ATOM     12  H   UNL     1       2.903   5.695  21.994  0.00  0.00    +0.000 HD
ENDBRANCH   4  11
BRANCH   3  13
ATOM     13  C   UNL     1       2.383   6.607  18.358  0.00  0.00    +0.000 C 
BRANCH  13  14
ATOM     14  O   UNL     1       2.536   7.989  18.004  0.00  0.00    +0.000 OA
BRANCH  14  15
ATOM     15  C   UNL     1       2.023   8.819  19.055  0.00  0.00    +0.000 C 
ATOM     16  O   UNL     1       1.119   8.056  19.852  0.00  0.00    +0.000 OA
ATOM     17  C   UNL     1       0.584   8.763  20.976  0.00  0.00    +0.000 C 
ATOM     18  C   UNL     1      -0.250   9.945  20.468  0.00  0.00    +0.000 C 
ATOM     19  C   UNL     1       0.631  10.865  19.593  0.00  0.00    +0.000 C 
ATOM     20  C   UNL     1       1.296  10.054  18.464  0.00  0.00    +0.000 C 
BRANCH  20  21
ATOM     21  O   UNL     1       0.252   9.676  17.542  0.00  0.00    +0.000 OA
ATOM     22  H   UNL     1       0.548   8.861  17.090  0.00  0.00    +0.000 HD
ENDBRANCH  20  21
BRANCH  19  23
ATOM     23  O   UNL     1      -0.159  11.920  19.039  0.00  0.00    +0.000 OA
ATOM     24  H   UNL     1      -0.568  11.551  18.228  0.00  0.00    +0.000 HD
ENDBRANCH  19  23
BRANCH  18  25
ATOM     25  O   UNL     1      -0.862  10.615  21.558  0.00  0.00    +0.000 OA
ATOM     26  H   UNL     1      -1.120   9.973  22.242  0.00  0.00    +0.000 HD
ENDBRANCH  18  25
BRANCH  17  27
ATOM     27  C   UNL     1       1.667   9.181  21.997  0.00  0.00    +0.000 C 
BRANCH  27  28
ATOM     28  O   UNL     1       1.080   9.651  23.204  0.00  0.00    +0.000 OA
ATOM     29  H   UNL     1       0.117   9.517  23.144  0.00  0.00    +0.000 HD
ENDBRANCH  27  28
ENDBRANCH  17  27
ENDBRANCH  14  15
ENDBRANCH  13  14
ENDBRANCH   3  13
BRANCH   1  30
ATOM     30  O   UNL     1       5.073   3.902  16.535  0.00  0.00    +0.000 OA
BRANCH  30  31
ATOM     31  C   UNL     1       5.973   4.944  16.138  0.00  0.00    +0.000 C 
BRANCH  31  32
ATOM     32  C   UNL     1       6.325   4.685  14.689  0.00  0.00    +0.000 A 
ATOM     33  C   UNL     1       5.605   3.759  13.919  0.00  0.00    +0.000 A 
ATOM     34  C   UNL     1       5.978   3.497  12.601  0.00  0.00    +0.000 A 
ATOM     35  C   UNL     1       7.068   4.161  12.036  0.00  0.00    +0.000 A 
ATOM     36  C   UNL     1       7.784   5.087  12.789  0.00  0.00    +0.000 A 
ATOM     37  C   UNL     1       7.418   5.347  14.108  0.00  0.00    +0.000 A 
ENDBRANCH  31  32
BRANCH  31  39
ATOM     38  O   UNL     1       8.068   4.209  17.216  0.00  0.00    +0.000 OA
ATOM     39  C   UNL     1       7.250   5.096  16.986  0.00  0.00    +0.000 C 
BRANCH  39  40
ATOM     40  O   UNL     1       7.399   6.327  17.563  0.00  0.00    +0.000 OA
ATOM     41  H   UNL     1       8.265   6.467  18.008  0.00  0.00    +0.000 HD
ENDBRANCH  39  40
ENDBRANCH  31  39
ENDBRANCH  30  31
ENDBRANCH   1  30
TORSDOF 16
ENDMDL
MODEL 3
REMARK VINA RESULT:      -7.8      1.619      2.066
REMARK  Name = 
REMARK  16 active torsions:
REMARK  status: ('A' for Active; 'I' for Inactive)
REMARK    1  A    between atoms: C_2  and  O_3
REMARK    2  A    between atoms: C_2  and  C_4
REMARK    3  A    between atoms: C_4  and  O_5
REMARK    4  A    between atoms: C_4  and  C_28
REMARK    5  A    between atoms: O_5  and  C_6
REMARK    6  A    between atoms: C_8  and  C_9
REMARK    7  A    between atoms: C_9  and  O_10
REMARK    8  A    between atoms: O_10  and  C_11
REMARK    9  A    between atoms: C_13  and  C_14
REMARK   10  A    between atoms: C_14  and  O_15
REMARK   11  A    between atoms: C_16  and  O_17
REMARK   12  A    between atoms: C_18  and  O_19
REMARK   13  A    between atoms: C_20  and  O_21
REMARK   14  A    between atoms: C_22  and  O_23
REMARK   15  A    between atoms: C_24  and  O_25
REMARK   16  A    between atoms: C_26  and  O_27
REMARK                            x       y       z     vdW  Elec       q    Type
REMARK                         _______ _______ _______ _____ _____    ______ ____
ROOT
ATOM      1  C   UNL     1       3.945   4.243  17.176  0.00  0.00    +0.000 C 
ATOM      2  O   UNL     1       4.323   4.661  18.503  0.00  0.00    +0.000 OA
ATOM      3  C   UNL     1       3.218   5.162  19.288  0.00  0.00    +0.000 C 
ATOM      4  C   UNL     1       2.182   4.037  19.492  0.00  0.00    +0.000 C 
ATOM      5  C   UNL     1       1.709   3.527  18.125  0.00  0.00    +0.000 C 
ATOM      6  C   UNL     1       2.913   3.106  17.271  0.00  0.00    +0.000 C 
ENDROOT
BRANCH   6   7
ATOM      7  O   UNL     1       3.499   1.926  17.864  0.00  0.00    +0.000 OA
ATOM      8  H   UNL     1       4.351   1.769  17.401  0.00  0.00    +0.000 HD
ENDBRANCH   6   7
BRANCH   5   9
ATOM      9  O   UNL     1       0.827   2.409  18.261  0.00  0.00    +0.000 OA
ATOM     10  H   UNL     1       1.253   1.807  18.904  0.00  0.00    +0.000 HD
ENDBRANCH   5   9
BRANCH   4  11
ATOM     11  O   UNL     1       1.076   4.431  20.303  0.00  0.00    +0.000 OA
ATOM     12  H   UNL     1       1.345   4.384  21.238  0.00  0.00    +0.000 HD
ENDBRANCH   4  11
BRANCH   3  13
ATOM     13  C   UNL     1       2.640   6.456  18.679  0.00  0.00    +0.000 C 
BRANCH  13  14
ATOM     14  O   UNL     1       2.807   7.586  19.546  0.00  0.00    +0.000 OA
BRANCH  14  15
ATOM     15  C   UNL     1       1.566   8.296  19.665  0.00  0.00    +0.000 C 
ATOM     16  O   UNL     1       1.788   9.674  19.376  0.00  0.00    +0.000 OA
ATOM     17  C   UNL     1       0.605  10.480  19.403  0.00  0.00    +0.000 C 
ATOM     18  C   UNL     1       0.029  10.469  20.823  0.00  0.00    +0.000 C 
ATOM     19  C   UNL     1      -0.272   9.015  21.251  0.00  0.00    +0.000 C 
ATOM     20  C   UNL     1       0.986   8.139  21.093  0.00  0.00    +0.000 C 
BRANCH  20  21
ATOM     21  O   UNL     1       1.925   8.560  22.105  0.00  0.00    +0.000 OA
ATOM     22  H   UNL     1       1.884   7.901  22.826  0.00  0.00    +0.000 HD
ENDBRANCH  20  21
BRANCH  19  23
ATOM     23  O   UNL     1      -0.722   8.985  22.607  0.00  0.00    +0.000 OA
ATOM     24  H   UNL     1       0.082   8.868  23.155  0.00  0.00    +0.000 HD
ENDBRANCH  19  23
BRANCH  18  25
ATOM     25  O   UNL     1      -1.098  11.328  20.900  0.00  0.00    +0.000 OA
ATOM     26  H   UNL     1      -1.724  11.120  20.186  0.00  0.00    +0.000 HD
ENDBRANCH  18  25
BRANCH  17  27
ATOM     27  C   UNL     1      -0.428  10.071  18.327  0.00  0.00    +0.000 C 
BRANCH  27  28
ATOM     28  O   UNL     1      -1.114  11.208  17.817  0.00  0.00    +0.000 OA
ATOM     29  H   UNL     1      -0.840  11.985  18.336  0.00  0.00    +0.000 HD
ENDBRANCH  27  28
ENDBRANCH  17  27
ENDBRANCH  14  15
ENDBRANCH  13  14
ENDBRANCH   3  13
BRANCH   1  30
ATOM     30  O   UNL     1       5.121   3.834  16.478  0.00  0.00    +0.000 OA
BRANCH  30  31
ATOM     31  C   UNL     1       5.886   4.925  15.953  0.00  0.00    +0.000 C 
BRANCH  31  32
ATOM     32  C   UNL     1       6.194   4.584  14.510  0.00  0.00    +0.000 A 
ATOM     33  C   UNL     1       5.376   3.710  13.778  0.00  0.00    +0.000 A 
ATOM     34  C   UNL     1       5.706   3.368  12.467  0.00  0.00    +0.000 A 
ATOM     35  C   UNL     1       6.851   3.900  11.871  0.00  0.00    +0.000 A 
ATOM     36  C   UNL     1       7.665   4.774  12.587  0.00  0.00    +0.000 A 
ATOM     37  C   UNL     1       7.341   5.113  13.898  0.00  0.00    +0.000 A 
ENDBRANCH  31  32
BRANCH  31  39
ATOM     38  O   UNL     1       7.887   4.483  17.327  0.00  0.00    +0.000 OA
ATOM     39  C   UNL     1       7.178   5.276  16.713  0.00  0.00    +0.000 C 
BRANCH  39  40
ATOM     40  O   UNL     1       7.477   6.610  16.730  0.00  0.00    +0.000 OA
ATOM     41  H   UNL     1       6.694   7.204  16.776  0.00  0.00    +0.000 HD
ENDBRANCH  39  40
ENDBRANCH  31  39
ENDBRANCH  30  31
ENDBRANCH   1  30
TORSDOF 16
ENDMDL
MODEL 4
REMARK VINA RESULT:      -7.7      1.775      2.987
REMARK  Name = 
REMARK  16 active torsions:
REMARK  status: ('A' for Active; 'I' for Inactive)
REMARK    1  A    between atoms: C_2  and  O_3
REMARK    2  A    between atoms: C_2  and  C_4
REMARK    3  A    between atoms: C_4  and  O_5
REMARK    4  A    between atoms: C_4  and  C_28
REMARK    5  A    between atoms: O_5  and  C_6
REMARK    6  A    between atoms: C_8  and  C_9
REMARK    7  A    between atoms: C_9  and  O_10
REMARK    8  A    between atoms: O_10  and  C_11
REMARK    9  A    between atoms: C_13  and  C_14
REMARK   10  A    between atoms: C_14  and  O_15
REMARK   11  A    between atoms: C_16  and  O_17
REMARK   12  A    between atoms: C_18  and  O_19
REMARK   13  A    between atoms: C_20  and  O_21
REMARK   14  A    between atoms: C_22  and  O_23
REMARK   15  A    between atoms: C_24  and  O_25
REMARK   16  A    between atoms: C_26  and  O_27
REMARK                            x       y       z     vdW  Elec       q    Type
REMARK                         _______ _______ _______ _____ _____    ______ ____
ROOT
ATOM      1  C   UNL     1       4.172   4.402  17.432  0.00  0.00    +0.000 C 
ATOM      2  O   UNL     1       4.636   5.548  18.173  0.00  0.00    +0.000 OA
ATOM      3  C   UNL     1       3.647   6.090  19.077  0.00  0.00    +0.000 C 
ATOM      4  C   UNL     1       3.289   5.032  20.141  0.00  0.00    +0.000 C 
ATOM      5  C   UNL     1       2.774   3.766  19.445  0.00  0.00    +0.000 C 
ATOM      6  C   UNL     1       3.797   3.276  18.411  0.00  0.00    +0.000 C 
ENDROOT
BRANCH   6   7
ATOM      7  O   UNL     1       4.963   2.798  19.117  0.00  0.00    +0.000 OA
ATOM      8  H   UNL     1       5.403   3.585  19.506  0.00  0.00    +0.000 HD
ENDBRANCH   6   7
BRANCH   5   9
ATOM      9  O   UNL     1       2.530   2.715  20.385  0.00  0.00    +0.000 OA
ATOM     10  H   UNL     1       1.576   2.757  20.594  0.00  0.00    +0.000 HD
ENDBRANCH   5   9
BRANCH   4  11
ATOM     11  O   UNL     1       2.353   5.502  21.110  0.00  0.00    +0.000 OA
ATOM     12  H   UNL     1       2.806   5.577  21.968  0.00  0.00    +0.000 HD
ENDBRANCH   4  11
BRANCH   3  13
ATOM     13  C   UNL     1       2.434   6.654  18.308  0.00  0.00    +0.000 C 
BRANCH  13  14
ATOM     14  O   UNL     1       2.591   8.044  17.989  0.00  0.00    +0.000 OA
BRANCH  14  15
ATOM     15  C   UNL     1       2.062   8.849  19.051  0.00  0.00    +0.000 C 
ATOM     16  O   UNL     1       1.146   8.069  19.816  0.00  0.00    +0.000 OA
ATOM     17  C   UNL     1       0.595   8.748  20.949  0.00  0.00    +0.000 C 
ATOM     18  C   UNL     1      -0.230   9.943  20.456  0.00  0.00    +0.000 C 
ATOM     19  C   UNL     1       0.665  10.883  19.618  0.00  0.00    +0.000 C 
ATOM     20  C   UNL     1       1.346  10.098  18.480  0.00  0.00    +0.000 C 
BRANCH  20  21
ATOM     21  O   UNL     1       0.316   9.745  17.533  0.00  0.00    +0.000 OA
ATOM     22  H   UNL     1       0.578  10.120  16.669  0.00  0.00    +0.000 HD
ENDBRANCH  20  21
BRANCH  19  23
ATOM     23  O   UNL     1      -0.116  11.952  19.077  0.00  0.00    +0.000 OA
ATOM     24  H   UNL     1       0.070  11.960  18.115  0.00  0.00    +0.000 HD
ENDBRANCH  19  23
BRANCH  18  25
ATOM     25  O   UNL     1      -0.859  10.588  21.553  0.00  0.00    +0.000 OA
ATOM     26  H   UNL     1      -0.911   9.981  22.311  0.00  0.00    +0.000 HD
ENDBRANCH  18  25
BRANCH  17  27
ATOM     27  C   UNL     1       1.662   9.141  21.996  0.00  0.00    +0.000 C 
BRANCH  27  28
ATOM     28  O   UNL     1       1.057   9.614  23.193  0.00  0.00    +0.000 OA
ATOM     29  H   UNL     1       1.766   9.897  23.799  0.00  0.00    +0.000 HD
ENDBRANCH  27  28
ENDBRANCH  17  27
ENDBRANCH  14  15
ENDBRANCH  13  14
ENDBRANCH   3  13
BRANCH   1  30
ATOM     30  O   UNL     1       5.203   3.999  16.531  0.00  0.00    +0.000 OA
BRANCH  30  31
ATOM     31  C   UNL     1       5.932   5.094  15.964  0.00  0.00    +0.000 C 
BRANCH  31  32
ATOM     32  C   UNL     1       6.296   4.689  14.552  0.00  0.00    +0.000 A 
ATOM     33  C   UNL     1       7.407   5.243  13.899  0.00  0.00    +0.000 A 
ATOM     34  C   UNL     1       7.695   4.895  12.580  0.00  0.00    +0.000 A 
ATOM     35  C   UNL     1       6.882   3.985  11.901  0.00  0.00    +0.000 A 
ATOM     36  C   UNL     1       5.781   3.423  12.544  0.00  0.00    +0.000 A 
ATOM     37  C   UNL     1       5.488   3.773  13.859  0.00  0.00    +0.000 A 
ENDBRANCH  31  32
BRANCH  31  39
ATOM     38  O   UNL     1       7.602   6.699  16.814  0.00  0.00    +0.000 OA
ATOM     39  C   UNL     1       7.185   5.547  16.737  0.00  0.00    +0.000 C 
BRANCH  39  40
ATOM     40  O   UNL     1       7.892   4.526  17.310  0.00  0.00    +0.000 OA
ATOM     41  H   UNL     1       8.482   4.040  16.691  0.00  0.00    +0.000 HD
ENDBRANCH  39  40
ENDBRANCH  31  39
ENDBRANCH  30  31
ENDBRANCH   1  30
TORSDOF 16
ENDMDL
MODEL 5
REMARK VINA RESULT:      -7.7      0.868      2.017
REMARK  Name = 
REMARK  16 active torsions:
REMARK  status: ('A' for Active; 'I' for Inactive)
REMARK    1  A    between atoms: C_2  and  O_3
REMARK    2  A    between atoms: C_2  and  C_4
REMARK    3  A    between atoms: C_4  and  O_5
REMARK    4  A    between atoms: C_4  and  C_28
REMARK    5  A    between atoms: O_5  and  C_6
REMARK    6  A    between atoms: C_8  and  C_9
REMARK    7  A    between atoms: C_9  and  O_10
REMARK    8  A    between atoms: O_10  and  C_11
REMARK    9  A    between atoms: C_13  and  C_14
REMARK   10  A    between atoms: C_14  and  O_15
REMARK   11  A    between atoms: C_16  and  O_17
REMARK   12  A    between atoms: C_18  and  O_19
REMARK   13  A    between atoms: C_20  and  O_21
REMARK   14  A    between atoms: C_22  and  O_23
REMARK   15  A    between atoms: C_24  and  O_25
REMARK   16  A    between atoms: C_26  and  O_27
REMARK                            x       y       z     vdW  Elec       q    Type
REMARK                         _______ _______ _______ _____ _____    ______ ____
ROOT
ATOM      1  C   UNL     1       4.339   4.215  19.266  0.00  0.00    +0.000 C 
ATOM      2  O   UNL     1       3.766   4.449  20.568  0.00  0.00    +0.000 OA
ATOM      3  C   UNL     1       2.321   4.482  20.565  0.00  0.00    +0.000 C 
ATOM      4  C   UNL     1       1.777   3.109  20.119  0.00  0.00    +0.000 C 
ATOM      5  C   UNL     1       2.330   2.771  18.727  0.00  0.00    +0.000 C 
ATOM      6  C   UNL     1       3.863   2.853  18.733  0.00  0.00    +0.000 C 
ENDROOT
BRANCH   6   7
ATOM      7  O   UNL     1       4.373   1.774  19.547  0.00  0.00    +0.000 OA
ATOM      8  H   UNL     1       4.335   0.961  18.997  0.00  0.00    +0.000 HD
ENDBRANCH   6   7
BRANCH   5   9
ATOM      9  O   UNL     1       1.940   1.458  18.315  0.00  0.00    +0.000 OA
ATOM     10  H   UNL     1       1.077   1.562  17.868  0.00  0.00    +0.000 HD
ENDBRANCH   5   9
BRANCH   4  11
ATOM     11  O   UNL     1       0.352   3.035  20.136  0.00  0.00    +0.000 OA
ATOM     12  H   UNL     1       0.068   2.378  19.476  0.00  0.00    +0.000 HD
ENDBRANCH   4  11
BRANCH   3  13
ATOM     13  C   UNL     1       1.789   5.674  19.744  0.00  0.00    +0.000 C 
BRANCH  13  14
ATOM     14  O   UNL     1       2.744   6.741  19.652  0.00  0.00    +0.000 OA
BRANCH  14  15
ATOM     15  C   UNL     1       2.141   7.970  20.080  0.00  0.00    +0.000 C 
ATOM     16  O   UNL     1       0.919   7.680  20.754  0.00  0.00    +0.000 OA
ATOM     17  C   UNL     1       0.251   8.829  21.285  0.00  0.00    +0.000 C 
ATOM     18  C   UNL     1      -0.155   9.746  20.125  0.00  0.00    +0.000 C 
ATOM     19  C   UNL     1       1.100  10.148  19.317  0.00  0.00    +0.000 C 
ATOM     20  C   UNL     1       1.870   8.892  18.865  0.00  0.00    +0.000 C 
BRANCH  20  21
ATOM     21  O   UNL     1       1.065   8.240  17.861  0.00  0.00    +0.000 OA
ATOM     22  H   UNL     1       1.577   7.473  17.535  0.00  0.00    +0.000 HD
ENDBRANCH  20  21
BRANCH  19  23
ATOM     23  O   UNL     1       0.723  10.927  18.179  0.00  0.00    +0.000 OA
ATOM     24  H   UNL     1      -0.142  10.573  17.886  0.00  0.00    +0.000 HD
ENDBRANCH  19  23
BRANCH  18  25
ATOM     25  O   UNL     1      -0.893  10.855  20.613  0.00  0.00    +0.000 OA
ATOM     26  H   UNL     1      -1.489  10.570  21.328  0.00  0.00    +0.000 HD
ENDBRANCH  18  25
BRANCH  17  27
ATOM     27  C   UNL     1       1.074   9.557  22.372  0.00  0.00    +0.000 C 
BRANCH  27  28
ATOM     28  O   UNL     1       0.333   9.679  23.581  0.00  0.00    +0.000 OA
ATOM     29  H   UNL     1       0.286  10.624  23.812  0.00  0.00    +0.000 HD
ENDBRANCH  27  28
ENDBRANCH  17  27
ENDBRANCH  14  15
ENDBRANCH  13  14
ENDBRANCH   3  13
BRANCH   1  30
ATOM     30  O   UNL     1       5.761   4.271  19.381  0.00  0.00    +0.000 OA
BRANCH  30  31
ATOM     31  C   UNL     1       6.331   5.486  18.880  0.00  0.00    +0.000 C 
BRANCH  31  32
ATOM     32  C   UNL     1       6.238   5.418  17.371  0.00  0.00    +0.000 A 
ATOM     33  C   UNL     1       5.373   6.260  16.656  0.00  0.00    +0.000 A 
ATOM     34  C   UNL     1       5.264   6.146  15.271  0.00  0.00    +0.000 A 
ATOM     35  C   UNL     1       6.021   5.195  14.583  0.00  0.00    +0.000 A 
ATOM     36  C   UNL     1       6.888   4.360  15.283  0.00  0.00    +0.000 A 
ATOM     37  C   UNL     1       6.995   4.468  16.667  0.00  0.00    +0.000 A 
ENDBRANCH  31  32
BRANCH  31  39
ATOM     38  O   UNL     1       8.456   5.099  20.073  0.00  0.00    +0.000 OA
ATOM     39  C   UNL     1       7.776   5.789  19.319  0.00  0.00    +0.000 C 
BRANCH  39  40
ATOM     40  O   UNL     1       8.268   6.977  18.853  0.00  0.00    +0.000 OA
ATOM     41  H   UNL     1       7.952   7.770  19.342  0.00  0.00    +0.000 HD
ENDBRANCH  39  40
ENDBRANCH  31  39
ENDBRANCH  30  31
ENDBRANCH   1  30
TORSDOF 16
ENDMDL
MODEL 6
REMARK VINA RESULT:      -7.6      1.305      1.800
REMARK  Name = 
REMARK  16 active torsions:
REMARK  status: ('A' for Active; 'I' for Inactive)
REMARK    1  A    between atoms: C_2  and  O_3
REMARK    2  A    between atoms: C_2  and  C_4
REMARK    3  A    between atoms: C_4  and  O_5
REMARK    4  A    between atoms: C_4  and  C_28
REMARK    5  A    between atoms: O_5  and  C_6
REMARK    6  A    between atoms: C_8  and  C_9
REMARK    7  A    between atoms: C_9  and  O_10
REMARK    8  A    between atoms: O_10  and  C_11
REMARK    9  A    between atoms: C_13  and  C_14
REMARK   10  A    between atoms: C_14  and  O_15
REMARK   11  A    between atoms: C_16  and  O_17
REMARK   12  A    between atoms: C_18  and  O_19
REMARK   13  A    between atoms: C_20  and  O_21
REMARK   14  A    between atoms: C_22  and  O_23
REMARK   15  A    between atoms: C_24  and  O_25
REMARK   16  A    between atoms: C_26  and  O_27
REMARK                            x       y       z     vdW  Elec       q    Type
REMARK                         _______ _______ _______ _____ _____    ______ ____
ROOT
ATOM      1  C   UNL     1       3.600   4.108  17.740  0.00  0.00    +0.000 C 
ATOM      2  O   UNL     1       3.979   4.188  19.128  0.00  0.00    +0.000 OA
ATOM      3  C   UNL     1       2.897   4.583  20.001  0.00  0.00    +0.000 C 
ATOM      4  C   UNL     1       1.777   3.524  19.942  0.00  0.00    +0.000 C 
ATOM      5  C   UNL     1       1.298   3.372  18.492  0.00  0.00    +0.000 C 
ATOM      6  C   UNL     1       2.486   3.061  17.572  0.00  0.00    +0.000 C 
ENDROOT
BRANCH   6   7
ATOM      7  O   UNL     1       2.970   1.737  17.886  0.00  0.00    +0.000 OA
ATOM      8  H   UNL     1       3.692   1.540  17.250  0.00  0.00    +0.000 HD
ENDBRANCH   6   7
BRANCH   5   9
ATOM      9  O   UNL     1       0.333   2.322  18.369  0.00  0.00    +0.000 OA
ATOM     10  H   UNL     1       0.768   1.617  17.849  0.00  0.00    +0.000 HD
ENDBRANCH   5   9
BRANCH   4  11
ATOM     11  O   UNL     1       0.686   3.810  20.816  0.00  0.00    +0.000 OA
ATOM     12  H   UNL     1       0.739   4.745  21.082  0.00  0.00    +0.000 HD
ENDBRANCH   4  11
BRANCH   3  13
ATOM     13  C   UNL     1       2.429   6.021  19.697  0.00  0.00    +0.000 C 
BRANCH  13  14
ATOM     14  O   UNL     1       1.881   6.670  20.852  0.00  0.00    +0.000 OA
BRANCH  14  15
ATOM     15  C   UNL     1       1.165   7.847  20.454  0.00  0.00    +0.000 C 
ATOM     16  O   UNL     1       1.947   8.570  19.506  0.00  0.00    +0.000 OA
ATOM     17  C   UNL     1       1.309   9.741  18.984  0.00  0.00    +0.000 C 
ATOM     18  C   UNL     1       1.076  10.731  20.131  0.00  0.00    +0.000 C 
ATOM     19  C   UNL     1       0.217  10.064  21.229  0.00  0.00    +0.000 C 
ATOM     20  C   UNL     1       0.863   8.741  21.683  0.00  0.00    +0.000 C 
BRANCH  20  21
ATOM     21  O   UNL     1       2.062   9.082  22.410  0.00  0.00    +0.000 OA
ATOM     22  H   UNL     1       2.306   9.993  22.150  0.00  0.00    +0.000 HD
ENDBRANCH  20  21
BRANCH  19  23
ATOM     23  O   UNL     1       0.072  10.947  22.344  0.00  0.00    +0.000 OA
ATOM     24  H   UNL     1       0.039  11.851  21.968  0.00  0.00    +0.000 HD
ENDBRANCH  19  23
BRANCH  18  25
ATOM     25  O   UNL     1       0.520  11.937  19.631  0.00  0.00    +0.000 OA
ATOM     26  H   UNL     1       0.500  12.611  20.332  0.00  0.00    +0.000 HD
ENDBRANCH  18  25
BRANCH  17  27
ATOM     27  C   UNL     1       0.021   9.422  18.190  0.00  0.00    +0.000 C 
BRANCH  27  28
ATOM     28  O   UNL     1      -0.460  10.575  17.509  0.00  0.00    +0.000 OA
ATOM     29  H   UNL     1      -0.052  11.359  17.917  0.00  0.00    +0.000 HD
ENDBRANCH  27  28
ENDBRANCH  17  27
ENDBRANCH  14  15
ENDBRANCH  13  14
ENDBRANCH   3  13
BRANCH   1  30
ATOM     30  O   UNL     1       4.758   3.777  16.974  0.00  0.00    +0.000 OA
BRANCH  30  31
ATOM     31  C   UNL     1       5.535   4.916  16.585  0.00  0.00    +0.000 C 
BRANCH  31  32
ATOM     32  C   UNL     1       6.037   4.641  15.184  0.00  0.00    +0.000 A 
ATOM     33  C   UNL     1       7.215   5.233  14.703  0.00  0.00    +0.000 A 
ATOM     34  C   UNL     1       7.632   5.008  13.392  0.00  0.00    +0.000 A 
ATOM     35  C   UNL     1       6.883   4.184  12.549  0.00  0.00    +0.000 A 
ATOM     36  C   UNL     1       5.717   3.586  13.020  0.00  0.00    +0.000 A 
ATOM     37  C   UNL     1       5.295   3.813  14.327  0.00  0.00    +0.000 A 
ENDBRANCH  31  32
BRANCH  31  39
ATOM     38  O   UNL     1       7.025   6.426  17.846  0.00  0.00    +0.000 OA
ATOM     39  C   UNL     1       6.705   5.288  17.516  0.00  0.00    +0.000 C 
BRANCH  39  40
ATOM     40  O   UNL     1       7.460   4.223  17.925  0.00  0.00    +0.000 OA
ATOM     41  H   UNL     1       8.391   4.445  18.149  0.00  0.00    +0.000 HD
ENDBRANCH  39  40
ENDBRANCH  31  39
ENDBRANCH  30  31
ENDBRANCH   1  30
TORSDOF 16
ENDMDL
MODEL 7
REMARK VINA RESULT:      -7.6      1.734      2.839
REMARK  Name = 
REMARK  16 active torsions:
REMARK  status: ('A' for Active; 'I' for Inactive)
REMARK    1  A    between atoms: C_2  and  O_3
REMARK    2  A    between atoms: C_2  and  C_4
REMARK    3  A    between atoms: C_4  and  O_5
REMARK    4  A    between atoms: C_4  and  C_28
REMARK    5  A    between atoms: O_5  and  C_6
REMARK    6  A    between atoms: C_8  and  C_9
REMARK    7  A    between atoms: C_9  and  O_10
REMARK    8  A    between atoms: O_10  and  C_11
REMARK    9  A    between atoms: C_13  and  C_14
REMARK   10  A    between atoms: C_14  and  O_15
REMARK   11  A    between atoms: C_16  and  O_17
REMARK   12  A    between atoms: C_18  and  O_19
REMARK   13  A    between atoms: C_20  and  O_21
REMARK   14  A    between atoms: C_22  and  O_23
REMARK   15  A    between atoms: C_24  and  O_25
REMARK   16  A    between atoms: C_26  and  O_27
REMARK                            x       y       z     vdW  Elec       q    Type
REMARK                         _______ _______ _______ _____ _____    ______ ____
ROOT
ATOM      1  C   UNL     1       3.931   4.090  17.194  0.00  0.00    +0.000 C 
ATOM      2  O   UNL     1       4.240   4.738  18.443  0.00  0.00    +0.000 OA
ATOM      3  C   UNL     1       3.070   5.108  19.207  0.00  0.00    +0.000 C 
ATOM      4  C   UNL     1       2.283   3.837  19.589  0.00  0.00    +0.000 C 
ATOM      5  C   UNL     1       1.899   3.075  18.313  0.00  0.00    +0.000 C 
ATOM      6  C   UNL     1       3.149   2.793  17.468  0.00  0.00    +0.000 C 
ENDROOT
BRANCH   6   7
ATOM      7  O   UNL     1       3.969   1.837  18.175  0.00  0.00    +0.000 OA
ATOM      8  H   UNL     1       4.862   1.873  17.768  0.00  0.00    +0.000 HD
ENDBRANCH   6   7
BRANCH   5   9
ATOM      9  O   UNL     1       1.261   1.832  18.621  0.00  0.00    +0.000 OA
ATOM     10  H   UNL     1       1.685   1.507  19.440  0.00  0.00    +0.000 HD
ENDBRANCH   5   9
BRANCH   4  11
ATOM     11  O   UNL     1       1.134   4.107  20.391  0.00  0.00    +0.000 OA
ATOM     12  H   UNL     1       0.510   3.365  20.297  0.00  0.00    +0.000 HD
ENDBRANCH   4  11
BRANCH   3  13
ATOM     13  C   UNL     1       2.235   6.176  18.471  0.00  0.00    +0.000 C 
BRANCH  13  14
ATOM     14  O   UNL     1       2.945   7.413  18.321  0.00  0.00    +0.000 OA
BRANCH  14  15
ATOM     15  C   UNL     1       2.343   8.421  19.145  0.00  0.00    +0.000 C 
ATOM     16  O   UNL     1       1.237   7.853  19.843  0.00  0.00    +0.000 OA
ATOM     17  C   UNL     1       0.587   8.751  20.750  0.00  0.00    +0.000 C 
ATOM     18  C   UNL     1      -0.013   9.914  19.951  0.00  0.00    +0.000 C 
ATOM     19  C   UNL     1       1.102  10.628  19.155  0.00  0.00    +0.000 C 
ATOM     20  C   UNL     1       1.868   9.616  18.281  0.00  0.00    +0.000 C 
BRANCH  20  21
ATOM     21  O   UNL     1       0.971   9.199  17.230  0.00  0.00    +0.000 OA
ATOM     22  H   UNL     1       1.019   8.224  17.182  0.00  0.00    +0.000 HD
ENDBRANCH  20  21
BRANCH  19  23
ATOM     23  O   UNL     1       0.539  11.656  18.336  0.00  0.00    +0.000 OA
ATOM     24  H   UNL     1       0.451  11.267  17.440  0.00  0.00    +0.000 HD
ENDBRANCH  19  23
BRANCH  18  25
ATOM     25  O   UNL     1      -0.736  10.778  20.815  0.00  0.00    +0.000 OA
ATOM     26  H   UNL     1      -0.229  11.594  20.969  0.00  0.00    +0.000 HD
ENDBRANCH  18  25
BRANCH  17  27
ATOM     27  C   UNL     1       1.510   9.218  21.899  0.00  0.00    +0.000 C 
BRANCH  27  28
ATOM     28  O   UNL     1       0.751   9.649  23.023  0.00  0.00    +0.000 OA
ATOM     29  H   UNL     1       0.372  10.522  22.816  0.00  0.00    +0.000 HD
ENDBRANCH  27  28
ENDBRANCH  17  27
ENDBRANCH  14  15
ENDBRANCH  13  14
ENDBRANCH   3  13
BRANCH   1  30
ATOM     30  O   UNL     1       5.154   3.834  16.503  0.00  0.00    +0.000 OA
BRANCH  30  31
ATOM     31  C   UNL     1       5.755   5.009  15.945  0.00  0.00    +0.000 C 
BRANCH  31  32
ATOM     32  C   UNL     1       6.211   4.641  14.550  0.00  0.00    +0.000 A 
ATOM     33  C   UNL     1       7.353   5.224  13.979  0.00  0.00    +0.000 A 
ATOM     34  C   UNL     1       7.726   4.911  12.673  0.00  0.00    +0.000 A 
ATOM     35  C   UNL     1       6.969   4.008  11.924  0.00  0.00    +0.000 A 
ATOM     36  C   UNL     1       5.839   3.419  12.484  0.00  0.00    +0.000 A 
ATOM     37  C   UNL     1       5.460   3.733  13.787  0.00  0.00    +0.000 A 
ENDBRANCH  31  32
BRANCH  31  39
ATOM     38  O   UNL     1       7.767   4.996  17.374  0.00  0.00    +0.000 OA
ATOM     39  C   UNL     1       6.916   5.623  16.749  0.00  0.00    +0.000 C 
BRANCH  39  40
ATOM     40  O   UNL     1       6.908   6.990  16.793  0.00  0.00    +0.000 OA
ATOM     41  H   UNL     1       7.682   7.388  17.252  0.00  0.00    +0.000 HD
ENDBRANCH  39  40
ENDBRANCH  31  39
ENDBRANCH  30  31
ENDBRANCH   1  30
TORSDOF 16
ENDMDL
MODEL 8
REMARK VINA RESULT:      -7.5      1.682      2.813
REMARK  Name = 
REMARK  16 active torsions:
REMARK  status: ('A' for Active; 'I' for Inactive)
REMARK    1  A    between atoms: C_2  and  O_3
REMARK    2  A    between atoms: C_2  and  C_4
REMARK    3  A    between atoms: C_4  and  O_5
REMARK    4  A    between atoms: C_4  and  C_28
REMARK    5  A    between atoms: O_5  and  C_6
REMARK    6  A    between atoms: C_8  and  C_9
REMARK    7  A    between atoms: C_9  and  O_10
REMARK    8  A    between atoms: O_10  and  C_11
REMARK    9  A    between atoms: C_13  and  C_14
REMARK   10  A    between atoms: C_14  and  O_15
REMARK   11  A    between atoms: C_16  and  O_17
REMARK   12  A    between atoms: C_18  and  O_19
REMARK   13  A    between atoms: C_20  and  O_21
REMARK   14  A    between atoms: C_22  and  O_23
REMARK   15  A    between atoms: C_24  and  O_25
REMARK   16  A    between atoms: C_26  and  O_27
REMARK                            x       y       z     vdW  Elec       q    Type
REMARK                         _______ _______ _______ _____ _____    ______ ____
ROOT
ATOM      1  C   UNL     1       4.071   4.181  17.478  0.00  0.00    +0.000 C 
ATOM      2  O   UNL     1       4.532   4.257  18.842  0.00  0.00    +0.000 OA
ATOM      3  C   UNL     1       3.516   4.694  19.772  0.00  0.00    +0.000 C 
ATOM      4  C   UNL     1       2.360   3.673  19.787  0.00  0.00    +0.000 C 
ATOM      5  C   UNL     1       1.793   3.527  18.368  0.00  0.00    +0.000 C 
ATOM      6  C   UNL     1       2.915   3.171  17.383  0.00  0.00    +0.000 C 
ENDROOT
BRANCH   6   7
ATOM      7  O   UNL     1       3.373   1.834  17.681  0.00  0.00    +0.000 OA
ATOM      8  H   UNL     1       3.498   1.786  18.654  0.00  0.00    +0.000 HD
ENDBRANCH   6   7
BRANCH   5   9
ATOM      9  O   UNL     1       0.788   2.510  18.310  0.00  0.00    +0.000 OA
ATOM     10  H   UNL     1       0.240   2.627  19.111  0.00  0.00    +0.000 HD
ENDBRANCH   5   9
BRANCH   4  11
ATOM     11  O   UNL     1       1.331   4.001  20.719  0.00  0.00    +0.000 OA
ATOM     12  H   UNL     1       1.320   4.967  20.842  0.00  0.00    +0.000 HD
ENDBRANCH   4  11
BRANCH   3  13
ATOM     13  C   UNL     1       3.079   6.145  19.483  0.00  0.00    +0.000 C 
BRANCH  13  14
ATOM     14  O   UNL     1       1.943   6.537  20.265  0.00  0.00    +0.000 OA
BRANCH  14  15
ATOM     15  C   UNL     1       1.774   7.960  20.199  0.00  0.00    +0.000 C 
ATOM     16  O   UNL     1       0.427   8.285  20.534  0.00  0.00    +0.000 OA
ATOM     17  C   UNL     1       0.149   9.689  20.562  0.00  0.00    +0.000 C 
ATOM     18  C   UNL     1       0.349  10.263  19.155  0.00  0.00    +0.000 C 
ATOM     19  C   UNL     1       1.793   9.985  18.679  0.00  0.00    +0.000 C 
ATOM     20  C   UNL     1       2.108   8.480  18.778  0.00  0.00    +0.000 C 
BRANCH  20  21
ATOM     21  O   UNL     1       1.327   7.816  17.763  0.00  0.00    +0.000 OA
ATOM     22  H   UNL     1       0.668   8.461  17.439  0.00  0.00    +0.000 HD
ENDBRANCH  20  21
BRANCH  19  23
ATOM     23  O   UNL     1       1.962  10.434  17.333  0.00  0.00    +0.000 OA
ATOM     24  H   UNL     1       2.820  10.068  17.034  0.00  0.00    +0.000 HD
ENDBRANCH  19  23
BRANCH  18  25
ATOM     25  O   UNL     1      -0.000  11.638  19.133  0.00  0.00    +0.000 OA
ATOM     26  H   UNL     1      -0.965  11.738  19.213  0.00  0.00    +0.000 HD
ENDBRANCH  18  25
BRANCH  17  27
ATOM     27  C   UNL     1       0.959  10.442  21.643  0.00  0.00    +0.000 C 
BRANCH  27  28
ATOM     28  O   UNL     1       0.457  10.167  22.945  0.00  0.00    +0.000 OA
ATOM     29  H   UNL     1      -0.477   9.903  22.860  0.00  0.00    +0.000 HD
ENDBRANCH  27  28
ENDBRANCH  17  27
ENDBRANCH  14  15
ENDBRANCH  13  14
ENDBRANCH   3  13
BRANCH   1  30
ATOM     30  O   UNL     1       5.171   3.806  16.650  0.00  0.00    +0.000 OA
BRANCH  30  31
ATOM     31  C   UNL     1       5.943   4.918  16.181  0.00  0.00    +0.000 C 
BRANCH  31  32
ATOM     32  C   UNL     1       6.263   4.642  14.728  0.00  0.00    +0.000 A 
ATOM     33  C   UNL     1       5.504   3.734  13.974  0.00  0.00    +0.000 A 
ATOM     34  C   UNL     1       5.847   3.456  12.652  0.00  0.00    +0.000 A 
ATOM     35  C   UNL     1       6.946   4.085  12.065  0.00  0.00    +0.000 A 
ATOM     36  C   UNL     1       7.701   4.994  12.802  0.00  0.00    +0.000 A 
ATOM     37  C   UNL     1       7.364   5.270  14.125  0.00  0.00    +0.000 A 
ENDBRANCH  31  32
BRANCH  31  39
ATOM     38  O   UNL     1       7.621   6.349  17.288  0.00  0.00    +0.000 OA
ATOM     39  C   UNL     1       7.229   5.230  16.968  0.00  0.00    +0.000 C 
BRANCH  39  40
ATOM     40  O   UNL     1       7.997   4.134  17.250  0.00  0.00    +0.000 OA
ATOM     41  H   UNL     1       8.154   3.538  16.483  0.00  0.00    +0.000 HD
ENDBRANCH  39  40
ENDBRANCH  31  39
ENDBRANCH  30  31
ENDBRANCH   1  30
TORSDOF 16
ENDMDL
MODEL 9
REMARK VINA RESULT:      -7.5      2.025      7.230
REMARK  Name = 
REMARK  16 active torsions:
REMARK  status: ('A' for Active; 'I' for Inactive)
REMARK    1  A    between atoms: C_2  and  O_3
REMARK    2  A    between atoms: C_2  and  C_4
REMARK    3  A    between atoms: C_4  and  O_5
REMARK    4  A    between atoms: C_4  and  C_28
REMARK    5  A    between atoms: O_5  and  C_6
REMARK    6  A    between atoms: C_8  and  C_9
REMARK    7  A    between atoms: C_9  and  O_10
REMARK    8  A    between atoms: O_10  and  C_11
REMARK    9  A    between atoms: C_13  and  C_14
REMARK   10  A    between atoms: C_14  and  O_15
REMARK   11  A    between atoms: C_16  and  O_17
REMARK   12  A    between atoms: C_18  and  O_19
REMARK   13  A    between atoms: C_20  and  O_21
REMARK   14  A    between atoms: C_22  and  O_23
REMARK   15  A    between atoms: C_24  and  O_25
REMARK   16  A    between atoms: C_26  and  O_27
REMARK                            x       y       z     vdW  Elec       q    Type
REMARK                         _______ _______ _______ _____ _____    ______ ____
ROOT
ATOM      1  C   UNL     1       2.267   5.238  19.708  0.00  0.00    +0.000 C 
ATOM      2  O   UNL     1       1.365   4.514  18.848  0.00  0.00    +0.000 OA
ATOM      3  C   UNL     1       1.994   3.423  18.139  0.00  0.00    +0.000 C 
ATOM      4  C   UNL     1       2.516   2.384  19.153  0.00  0.00    +0.000 C 
ATOM      5  C   UNL     1       3.498   3.063  20.116  0.00  0.00    +0.000 C 
ATOM      6  C   UNL     1       2.838   4.284  20.772  0.00  0.00    +0.000 C 
ENDROOT
BRANCH   6   7
ATOM      7  O   UNL     1       1.797   3.817  21.657  0.00  0.00    +0.000 OA
ATOM      8  H   UNL     1       1.005   4.373  21.483  0.00  0.00    +0.000 HD
ENDBRANCH   6   7
BRANCH   5   9
ATOM      9  O   UNL     1       3.927   2.164  21.144  0.00  0.00    +0.000 OA
ATOM     10  H   UNL     1       3.831   2.653  21.986  0.00  0.00    +0.000 HD
ENDBRANCH   5   9
BRANCH   4  11
ATOM     11  O   UNL     1       3.109   1.243  18.535  0.00  0.00    +0.000 OA
ATOM     12  H   UNL     1       2.732   0.441  18.938  0.00  0.00    +0.000 HD
ENDBRANCH   4  11
BRANCH   3  13
ATOM     13  C   UNL     1       3.061   3.939  17.151  0.00  0.00    +0.000 C 
BRANCH  13  14
ATOM     14  O   UNL     1       4.217   3.090  17.107  0.00  0.00    +0.000 OA
BRANCH  14  15
ATOM     15  C   UNL     1       5.407   3.885  17.191  0.00  0.00    +0.000 C 
ATOM     16  O   UNL     1       5.077   5.163  17.731  0.00  0.00    +0.000 OA
ATOM     17  C   UNL     1       6.199   6.031  17.922  0.00  0.00    +0.000 C 
ATOM     18  C   UNL     1       6.827   6.337  16.557  0.00  0.00    +0.000 C 
ATOM     19  C   UNL     1       7.247   5.018  15.870  0.00  0.00    +0.000 C 
ATOM     20  C   UNL     1       6.049   4.051  15.791  0.00  0.00    +0.000 C 
BRANCH  20  21
ATOM     21  O   UNL     1       5.121   4.604  14.834  0.00  0.00    +0.000 OA
ATOM     22  H   UNL     1       5.382   4.269  13.954  0.00  0.00    +0.000 HD
ENDBRANCH  20  21
BRANCH  19  23
ATOM     23  O   UNL     1       7.748   5.285  14.558  0.00  0.00    +0.000 OA
ATOM     24  H   UNL     1       8.135   4.443  14.242  0.00  0.00    +0.000 HD
ENDBRANCH  19  23
BRANCH  18  25
ATOM     25  O   UNL     1       7.892   7.263  16.706  0.00  0.00    +0.000 OA
ATOM     26  H   UNL     1       8.464   6.996  17.446  0.00  0.00    +0.000 HD
ENDBRANCH  18  25
BRANCH  17  27
ATOM     27  C   UNL     1       7.218   5.482  18.947  0.00  0.00    +0.000 C 
BRANCH  27  28
ATOM     28  O   UNL     1       8.200   6.460  19.269  0.00  0.00    +0.000 OA
ATOM     29  H   UNL     1       8.608   6.212  20.117  0.00  0.00    +0.000 HD
ENDBRANCH  27  28
ENDBRANCH  17  27
ENDBRANCH  14  15
ENDBRANCH  13  14
ENDBRANCH   3  13
BRANCH   1  30
ATOM     30  O   UNL     1       1.554   6.324  20.299  0.00  0.00    +0.000 OA
BRANCH  30  31
ATOM     31  C   UNL     1       2.077   7.612  19.952  0.00  0.00    +0.000 C 
BRANCH  31  32
ATOM     32  C   UNL     1       1.197   8.636  20.634  0.00  0.00    +0.000 A 
ATOM     33  C   UNL     1       0.900   9.865  20.024  0.00  0.00    +0.000 A 
ATOM     34  C   UNL     1       0.130  10.815  20.692  0.00  0.00    +0.000 A 
ATOM     35  C   UNL     1      -0.359  10.549  21.972  0.00  0.00    +0.000 A 
ATOM     36  C   UNL     1      -0.077   9.330  22.583  0.00  0.00    +0.000 A 
ATOM     37  C   UNL     1       0.697   8.380  21.921  0.00  0.00    +0.000 A 
ENDBRANCH  31  32
BRANCH  31  39
ATOM     38  O   UNL     1       1.253   8.132  17.685  0.00  0.00    +0.000 OA
ATOM     39  C   UNL     1       2.191   7.914  18.446  0.00  0.00    +0.000 C 
BRANCH  39  40
ATOM     40  O   UNL     1       3.466   7.854  17.955  0.00  0.00    +0.000 OA
ATOM     41  H   UNL     1       3.928   8.721  17.909  0.00  0.00    +0.000 HD
ENDBRANCH  39  40
ENDBRANCH  31  39
ENDBRANCH  30  31
ENDBRANCH   1  30
TORSDOF 16
ENDMDL
