MODEL 1
REMARK VINA RESULT:      -7.3      0.000      0.000
REMARK  Name = 
REMARK  6 active torsions:
REMARK  status: ('A' for Active; 'I' for Inactive)
REMARK    1  A    between atoms: C_2  and  C_4
REMARK    2  A    between atoms: C_5  and  N_6
REMARK    3  A    between atoms: C_7  and  C_9
REMARK    4  A    between atoms: N_20  and  C_21
REMARK    5  A    between atoms: C_21  and  N_23
REMARK    6  A    between atoms: N_23  and  C_24
REMARK                            x       y       z     vdW  Elec       q    Type
REMARK                         _______ _______ _______ _____ _____    ______ ____
ROOT
ATOM      1  C   UNL     1       1.054   8.691  20.333  0.00  0.00    +0.000 A 
ATOM      2  C   UNL     1       0.949   9.684  19.373  0.00  0.00    +0.000 A 
ATOM      3  S   UNL     1       1.898   9.370  17.985  0.00  0.00    +0.000 S 
ATOM      4  C   UNL     1       2.456   7.890  18.612  0.00  0.00    +0.000 A 
ATOM      5  C   UNL     1       1.950   7.647  19.879  0.00  0.00    +0.000 A 
ATOM      6  C   UNL     1       2.275   6.365  20.595  0.00  0.00    +0.000 C 
ATOM      7  C   UNL     1       3.491   5.677  19.953  0.00  0.00    +0.000 C 
ATOM      8  N   UNL     1       3.406   5.648  18.476  0.00  0.00    +0.000 N 
ATOM      9  C   UNL     1       3.394   6.985  17.840  0.00  0.00    +0.000 C 
ENDROOT
BRANCH   1  11
ATOM     10  N   UNL     1       0.890   9.272  22.649  0.00  0.00    +0.000 N 
ATOM     11  C   UNL     1       0.301   8.646  21.584  0.00  0.00    +0.000 C 
ATOM     12  O   UNL     1      -0.820   8.165  21.692  0.00  0.00    +0.000 OA
ATOM     13  H   UNL     1       0.272   9.460  23.428  0.00  0.00    +0.000 HD
ATOM     14  H   UNL     1       1.631   9.940  22.480  0.00  0.00    +0.000 HD
ENDBRANCH   1  11
BRANCH   2  15
ATOM     15  N   UNL     1       0.279  10.899  19.434  0.00  0.00    +0.000 N 
ATOM     16  C   UNL     1       0.721  11.919  20.263  0.00  0.00    +0.000 C 
ATOM     17  O   UNL     1       1.700  11.865  21.009  0.00  0.00    +0.000 OA
ATOM     18  H   UNL     1      -0.255  11.204  18.621  0.00  0.00    +0.000 HD
BRANCH  16  19
ATOM     19  C   UNL     1      -0.019  13.217  20.136  0.00  0.00    +0.000 A 
ATOM     20  C   UNL     1       0.423  14.148  19.217  0.00  0.00    +0.000 A 
ATOM     21  C   UNL     1      -0.292  15.318  19.167  0.00  0.00    +0.000 A 
ATOM     22  N   UNL     1      -1.356  15.561  19.952  0.00  0.00    +0.000 NA
ATOM     23  C   UNL     1      -1.703  14.584  20.805  0.00  0.00    +0.000 A 
ATOM     24  N   UNL     1      -1.097  13.392  20.937  0.00  0.00    +0.000 NA
ENDBRANCH  16  19
ENDBRANCH   2  15
BRANCH   8  25
ATOM     25  C   UNL     1       3.013   4.506  17.761  0.00  0.00    +0.000 C 
ATOM     26  S   UNL     1       1.407   4.057  17.523  0.00  0.00    +0.000 S 
BRANCH  25  27
ATOM     27  N   UNL     1       4.093   3.715  17.380  0.00  0.00    +0.000 N 
ATOM     28  H   UNL     1       3.918   2.720  17.486  0.00  0.00    +0.000 HD
BRANCH  27  29
ATOM     29  C   UNL     1       5.111   4.043  16.443  0.00  0.00    +0.000 A 
ATOM     30  C   UNL     1       4.884   3.900  15.070  0.00  0.00    +0.000 A 
ATOM     31  C   UNL     1       5.850   4.294  14.141  0.00  0.00    +0.000 A 
ATOM     32  C   UNL     1       7.054   4.847  14.571  0.00  0.00    +0.000 A 
ATOM     33  C   UNL     1       7.295   5.004  15.936  0.00  0.00    +0.000 A 
ATOM     34  C   UNL     1       6.328   4.608  16.867  0.00  0.00    +0.000 A 
ATOM     35 CL   UNL     1       6.693   4.790  18.548  0.00  0.00    +0.000 Cl
ENDBRANCH  27  29
ENDBRANCH  25  27
ENDBRANCH   8  25
TORSDOF 6
ENDMDL
MODEL 2
REMARK VINA RESULT:      -7.2      2.012      2.792
REMARK  Name = 
REMARK  6 active torsions:
REMARK  status: ('A' for Active; 'I' for Inactive)
REMARK    1  A    between atoms: C_2  and  C_4
REMARK    2  A    between atoms: C_5  and  N_6
REMARK    3  A    between atoms: C_7  and  C_9
REMARK    4  A    between atoms: N_20  and  C_21
REMARK    5  A    between atoms: C_21  and  N_23
REMARK    6  A    between atoms: N_23  and  C_24
REMARK                            x       y       z     vdW  Elec       q    Type
REMARK                         _______ _______ _______ _____ _____    ______ ____
ROOT
ATOM      1  C   UNL     1       1.629   8.748  19.176  0.00  0.00    +0.000 A 
ATOM      2  C   UNL     1       1.517   9.108  20.509  0.00  0.00    +0.000 A 
ATOM      3  S   UNL     1       1.657   7.775  21.571  0.00  0.00    +0.000 S 
ATOM      4  C   UNL     1       1.896   6.684  20.287  0.00  0.00    +0.000 A 
ATOM      5  C   UNL     1       1.841   7.320  19.057  0.00  0.00    +0.000 A 
ATOM      6  C   UNL     1       2.081   6.548  17.789  0.00  0.00    +0.000 C 
ATOM      7  C   UNL     1       1.944   5.037  18.040  0.00  0.00    +0.000 C 
ATOM      8  N   UNL     1       2.652   4.603  19.265  0.00  0.00    +0.000 N 
ATOM      9  C   UNL     1       2.133   5.205  20.514  0.00  0.00    +0.000 C 
ENDROOT
BRANCH   1  11
ATOM     10  N   UNL     1       0.396  10.107  17.639  0.00  0.00    +0.000 N 
ATOM     11  C   UNL     1       1.629   9.679  18.050  0.00  0.00    +0.000 C 
ATOM     12  O   UNL     1       2.645  10.134  17.538  0.00  0.00    +0.000 OA
ATOM     13  H   UNL     1       0.406  10.927  17.044  0.00  0.00    +0.000 HD
ATOM     14  H   UNL     1      -0.395  10.001  18.260  0.00  0.00    +0.000 HD
ENDBRANCH   1  11
BRANCH   2  15
ATOM     15  N   UNL     1       1.218  10.345  21.065  0.00  0.00    +0.000 N 
ATOM     16  C   UNL     1      -0.075  10.845  21.044  0.00  0.00    +0.000 C 
ATOM     17  O   UNL     1      -1.054  10.285  20.547  0.00  0.00    +0.000 OA
ATOM     18  H   UNL     1       1.804  10.696  21.821  0.00  0.00    +0.000 HD
BRANCH  16  19
ATOM     19  C   UNL     1      -0.280  12.130  21.789  0.00  0.00    +0.000 A 
ATOM     20  C   UNL     1      -1.296  12.205  22.720  0.00  0.00    +0.000 A 
ATOM     21  C   UNL     1      -1.436  13.415  23.352  0.00  0.00    +0.000 A 
ATOM     22  N   UNL     1      -0.643  14.471  23.095  0.00  0.00    +0.000 NA
ATOM     23  C   UNL     1       0.318  14.286  22.175  0.00  0.00    +0.000 A 
ATOM     24  N   UNL     1       0.565  13.150  21.502  0.00  0.00    +0.000 NA
ENDBRANCH  16  19
ENDBRANCH   2  15
BRANCH   8  25
ATOM     25  C   UNL     1       3.908   3.977  19.233  0.00  0.00    +0.000 C 
ATOM     26  S   UNL     1       4.204   2.442  19.862  0.00  0.00    +0.000 S 
BRANCH  25  27
ATOM     27  N   UNL     1       4.909   4.810  18.744  0.00  0.00    +0.000 N 
ATOM     28  H   UNL     1       5.461   5.246  19.477  0.00  0.00    +0.000 HD
BRANCH  27  29
ATOM     29  C   UNL     1       5.559   4.724  17.482  0.00  0.00    +0.000 A 
ATOM     30  C   UNL     1       4.917   4.123  16.393  0.00  0.00    +0.000 A 
ATOM     31  C   UNL     1       5.517   4.105  15.131  0.00  0.00    +0.000 A 
ATOM     32  C   UNL     1       6.762   4.696  14.938  0.00  0.00    +0.000 A 
ATOM     33  C   UNL     1       7.414   5.307  16.009  0.00  0.00    +0.000 A 
ATOM     34  C   UNL     1       6.814   5.325  17.274  0.00  0.00    +0.000 A 
ATOM     35 CL   UNL     1       7.681   6.062  18.577  0.00  0.00    +0.000 Cl
ENDBRANCH  27  29
ENDBRANCH  25  27
ENDBRANCH   8  25
TORSDOF 6
ENDMDL
MODEL 3
REMARK VINA RESULT:      -7.1      2.351      3.369
REMARK  Name = 
REMARK  6 active torsions:
REMARK  status: ('A' for Active; 'I' for Inactive)
REMARK    1  A    between atoms: C_2  and  C_4
REMARK    2  A    between atoms: C_5  and  N_6
REMARK    3  A    between atoms: C_7  and  C_9
REMARK    4  A    between atoms: N_20  and  C_21
REMARK    5  A    between atoms: C_21  and  N_23
REMARK    6  A    between atoms: N_23  and  C_24
REMARK                            x       y       z     vdW  Elec       q    Type
REMARK                         _______ _______ _______ _____ _____    ______ ____
ROOT
ATOM      1  C   UNL     1       1.813   8.125  19.006  0.00  0.00    +0.000 A 
ATOM      2  C   UNL     1       1.597   8.433  20.339  0.00  0.00    +0.000 A 
ATOM      3  S   UNL     1       1.629   7.056  21.352  0.00  0.00    +0.000 S 
ATOM      4  C   UNL     1       1.957   6.013  20.048  0.00  0.00    +0.000 A 
ATOM      5  C   UNL     1       2.013   6.699  18.845  0.00  0.00    +0.000 A 
ATOM      6  C   UNL     1       2.345   5.974  17.570  0.00  0.00    +0.000 C 
ATOM      7  C   UNL     1       2.166   4.457  17.746  0.00  0.00    +0.000 C 
ATOM      8  N   UNL     1       2.764   3.962  19.006  0.00  0.00    +0.000 N 
ATOM      9  C   UNL     1       2.153   4.523  20.232  0.00  0.00    +0.000 C 
ENDROOT
BRANCH   1  11
ATOM     10  N   UNL     1       0.735   9.619  17.478  0.00  0.00    +0.000 N 
ATOM     11  C   UNL     1       1.920   9.100  17.922  0.00  0.00    +0.000 C 
ATOM     12  O   UNL     1       2.983   9.512  17.475  0.00  0.00    +0.000 OA
ATOM     13  H   UNL     1       0.820  10.460  16.921  0.00  0.00    +0.000 HD
ATOM     14  H   UNL     1      -0.089   9.536  18.060  0.00  0.00    +0.000 HD
ENDBRANCH   1  11
BRANCH   2  15
ATOM     15  N   UNL     1       1.271   9.652  20.919  0.00  0.00    +0.000 N 
ATOM     16  C   UNL     1       0.024  10.227  20.724  0.00  0.00    +0.000 C 
ATOM     17  O   UNL     1      -0.887   9.753  20.043  0.00  0.00    +0.000 OA
ATOM     18  H   UNL     1       1.742   9.926  21.780  0.00  0.00    +0.000 HD
BRANCH  16  19
ATOM     19  C   UNL     1      -0.238  11.477  21.509  0.00  0.00    +0.000 A 
ATOM     20  C   UNL     1      -1.221  11.462  22.478  0.00  0.00    +0.000 A 
ATOM     21  C   UNL     1      -1.416  12.645  23.145  0.00  0.00    +0.000 A 
ATOM     22  N   UNL     1      -0.706  13.758  22.886  0.00  0.00    +0.000 NA
ATOM     23  C   UNL     1       0.230  13.659  21.928  0.00  0.00    +0.000 A 
ATOM     24  N   UNL     1       0.527  12.558  21.218  0.00  0.00    +0.000 NA
ENDBRANCH  16  19
ENDBRANCH   2  15
BRANCH   8  25
ATOM     25  C   UNL     1       4.009   3.314  19.052  0.00  0.00    +0.000 C 
ATOM     26  S   UNL     1       4.465   2.247  20.273  0.00  0.00    +0.000 S 
BRANCH  25  27
ATOM     27  N   UNL     1       4.873   3.746  18.051  0.00  0.00    +0.000 N 
ATOM     28  H   UNL     1       4.524   3.564  17.114  0.00  0.00    +0.000 HD
BRANCH  27  29
ATOM     29  C   UNL     1       5.832   4.793  18.135  0.00  0.00    +0.000 A 
ATOM     30  C   UNL     1       6.552   5.002  19.316  0.00  0.00    +0.000 A 
ATOM     31  C   UNL     1       7.550   5.977  19.382  0.00  0.00    +0.000 A 
ATOM     32  C   UNL     1       7.851   6.750  18.263  0.00  0.00    +0.000 A 
ATOM     33  C   UNL     1       7.150   6.551  17.075  0.00  0.00    +0.000 A 
ATOM     34  C   UNL     1       6.148   5.575  17.008  0.00  0.00    +0.000 A 
ATOM     35 CL   UNL     1       5.283   5.394  15.522  0.00  0.00    +0.000 Cl
ENDBRANCH  27  29
ENDBRANCH  25  27
ENDBRANCH   8  25
TORSDOF 6
ENDMDL
MODEL 4
REMARK VINA RESULT:      -6.7      2.878      4.232
REMARK  Name = 
REMARK  6 active torsions:
REMARK  status: ('A' for Active; 'I' for Inactive)
REMARK    1  A    between atoms: C_2  and  C_4
REMARK    2  A    between atoms: C_5  and  N_6
REMARK    3  A    between atoms: C_7  and  C_9
REMARK    4  A    between atoms: N_20  and  C_21
REMARK    5  A    between atoms: C_21  and  N_23
REMARK    6  A    between atoms: N_23  and  C_24
REMARK                            x       y       z     vdW  Elec       q    Type
REMARK                         _______ _______ _______ _____ _____    ______ ____
ROOT
ATOM      1  C   UNL     1       1.050  10.744  19.701  0.00  0.00    +0.000 A 
ATOM      2  C   UNL     1       0.727  10.668  21.046  0.00  0.00    +0.000 A 
ATOM      3  S   UNL     1       0.905   9.092  21.684  0.00  0.00    +0.000 S 
ATOM      4  C   UNL     1       1.442   8.470  20.194  0.00  0.00    +0.000 A 
ATOM      5  C   UNL     1       1.458   9.444  19.208  0.00  0.00    +0.000 A 
ATOM      6  C   UNL     1       1.951   9.119  17.825  0.00  0.00    +0.000 C 
ATOM      7  C   UNL     1       1.982   7.598  17.603  0.00  0.00    +0.000 C 
ATOM      8  N   UNL     1       2.582   6.874  18.746  0.00  0.00    +0.000 N 
ATOM      9  C   UNL     1       1.838   7.019  20.018  0.00  0.00    +0.000 C 
ENDROOT
BRANCH   1  11
ATOM     10  N   UNL     1      -0.074  12.235  18.202  0.00  0.00    +0.000 N 
ATOM     11  C   UNL     1       1.069  11.970  18.906  0.00  0.00    +0.000 C 
ATOM     12  O   UNL     1       1.993  12.774  18.912  0.00  0.00    +0.000 OA
ATOM     13  H   UNL     1      -0.157  13.186  17.865  0.00  0.00    +0.000 HD
ATOM     14  H   UNL     1      -0.931  11.763  18.459  0.00  0.00    +0.000 HD
ENDBRANCH   1  11
BRANCH   2  15
ATOM     15  N   UNL     1       0.203  11.646  21.881  0.00  0.00    +0.000 N 
ATOM     16  C   UNL     1      -1.097  12.102  21.722  0.00  0.00    +0.000 C 
ATOM     17  O   UNL     1      -1.892  11.721  20.861  0.00  0.00    +0.000 OA
ATOM     18  H   UNL     1       0.580  11.738  22.823  0.00  0.00    +0.000 HD
BRANCH  16  19
ATOM     19  C   UNL     1      -1.574  13.064  22.768  0.00  0.00    +0.000 A 
ATOM     20  C   UNL     1      -2.874  12.965  23.222  0.00  0.00    +0.000 A 
ATOM     21  C   UNL     1      -3.246  13.886  24.167  0.00  0.00    +0.000 A 
ATOM     22  N   UNL     1      -2.413  14.834  24.635  0.00  0.00    +0.000 NA
ATOM     23  C   UNL     1      -1.168  14.835  24.129  0.00  0.00    +0.000 A 
ATOM     24  N   UNL     1      -0.680  13.980  23.216  0.00  0.00    +0.000 NA
ENDBRANCH  16  19
ENDBRANCH   2  15
BRANCH   8  25
ATOM     25  C   UNL     1       3.902   6.397  18.733  0.00  0.00    +0.000 C 
ATOM     26  S   UNL     1       5.117   7.034  17.755  0.00  0.00    +0.000 S 
BRANCH  25  27
ATOM     27  N   UNL     1       4.069   5.261  19.519  0.00  0.00    +0.000 N 
ATOM     28  H   UNL     1       4.494   5.458  20.421  0.00  0.00    +0.000 HD
BRANCH  27  29
ATOM     29  C   UNL     1       3.308   4.061  19.468  0.00  0.00    +0.000 A 
ATOM     30  C   UNL     1       2.477   3.703  20.536  0.00  0.00    +0.000 A 
ATOM     31  C   UNL     1       1.666   2.567  20.461  0.00  0.00    +0.000 A 
ATOM     32  C   UNL     1       1.669   1.778  19.313  0.00  0.00    +0.000 A 
ATOM     33  C   UNL     1       2.485   2.123  18.237  0.00  0.00    +0.000 A 
ATOM     34  C   UNL     1       3.298   3.261  18.311  0.00  0.00    +0.000 A 
ATOM     35 CL   UNL     1       4.319   3.623  16.963  0.00  0.00    +0.000 Cl
ENDBRANCH  27  29
ENDBRANCH  25  27
ENDBRANCH   8  25
TORSDOF 6
ENDMDL
MODEL 5
REMARK VINA RESULT:      -6.6      5.001     10.792
REMARK  Name = 
REMARK  6 active torsions:
REMARK  status: ('A' for Active; 'I' for Inactive)
REMARK    1  A    between atoms: C_2  and  C_4
REMARK    2  A    between atoms: C_5  and  N_6
REMARK    3  A    between atoms: C_7  and  C_9
REMARK    4  A    between atoms: N_20  and  C_21
REMARK    5  A    between atoms: C_21  and  N_23
REMARK    6  A    between atoms: N_23  and  C_24
REMARK                            x       y       z     vdW  Elec       q    Type
REMARK                         _______ _______ _______ _____ _____    ______ ____
ROOT
ATOM      1  C   UNL     1      -1.177  11.751  20.067  0.00  0.00    +0.000 A 
ATOM      2  C   UNL     1      -0.575  10.765  20.832  0.00  0.00    +0.000 A 
ATOM      3  S   UNL     1      -0.529  11.153  22.497  0.00  0.00    +0.000 S 
ATOM      4  C   UNL     1      -1.330  12.633  22.250  0.00  0.00    +0.000 A 
ATOM      5  C   UNL     1      -1.606  12.848  20.909  0.00  0.00    +0.000 A 
ATOM      6  C   UNL     1      -2.361  14.075  20.474  0.00  0.00    +0.000 C 
ATOM      7  C   UNL     1      -2.353  15.139  21.585  0.00  0.00    +0.000 C 
ATOM      8  N   UNL     1      -2.659  14.566  22.915  0.00  0.00    +0.000 N 
ATOM      9  C   UNL     1      -1.674  13.568  23.390  0.00  0.00    +0.000 C 
ENDROOT
BRANCH   1  11
ATOM     10  N   UNL     1      -0.693  12.513  17.850  0.00  0.00    +0.000 N 
ATOM     11  C   UNL     1      -1.429  11.664  18.630  0.00  0.00    +0.000 C 
ATOM     12  O   UNL     1      -2.179  10.844  18.116  0.00  0.00    +0.000 OA
ATOM     13  H   UNL     1      -0.679  12.282  16.864  0.00  0.00    +0.000 HD
ATOM     14  H   UNL     1       0.143  12.935  18.233  0.00  0.00    +0.000 HD
ENDBRANCH   1  11
BRANCH   2  15
ATOM     15  N   UNL     1       0.057   9.598  20.425  0.00  0.00    +0.000 N 
ATOM     16  C   UNL     1       1.138   9.635  19.556  0.00  0.00    +0.000 C 
ATOM     17  O   UNL     1       1.629  10.652  19.064  0.00  0.00    +0.000 OA
ATOM     18  H   UNL     1       0.024   8.784  21.037  0.00  0.00    +0.000 HD
BRANCH  16  19
ATOM     19  C   UNL     1       1.803   8.316  19.300  0.00  0.00    +0.000 A 
ATOM     20  C   UNL     1       2.409   8.101  18.079  0.00  0.00    +0.000 A 
ATOM     21  C   UNL     1       2.984   6.867  17.909  0.00  0.00    +0.000 A 
ATOM     22  N   UNL     1       2.969   5.915  18.859  0.00  0.00    +0.000 NA
ATOM     23  C   UNL     1       2.358   6.233  20.012  0.00  0.00    +0.000 A 
ATOM     24  N   UNL     1       1.775   7.407  20.305  0.00  0.00    +0.000 NA
ENDBRANCH  16  19
ENDBRANCH   2  15
BRANCH   8  25
ATOM     25  C   UNL     1      -3.925  14.673  23.513  0.00  0.00    +0.000 C 
ATOM     26  S   UNL     1      -4.501  16.078  24.242  0.00  0.00    +0.000 S 
BRANCH  25  27
ATOM     27  N   UNL     1      -4.601  13.457  23.553  0.00  0.00    +0.000 N 
ATOM     28  H   UNL     1      -4.669  13.068  24.489  0.00  0.00    +0.000 HD
BRANCH  27  29
ATOM     29  C   UNL     1      -5.588  12.992  22.642  0.00  0.00    +0.000 A 
ATOM     30  C   UNL     1      -5.214  12.427  21.417  0.00  0.00    +0.000 A 
ATOM     31  C   UNL     1      -6.173  11.896  20.552  0.00  0.00    +0.000 A 
ATOM     32  C   UNL     1      -7.521  11.914  20.902  0.00  0.00    +0.000 A 
ATOM     33  C   UNL     1      -7.913  12.466  22.121  0.00  0.00    +0.000 A 
ATOM     34  C   UNL     1      -6.952  12.999  22.989  0.00  0.00    +0.000 A 
ATOM     35 CL   UNL     1      -7.495  13.705  24.471  0.00  0.00    +0.000 Cl
ENDBRANCH  27  29
ENDBRANCH  25  27
ENDBRANCH   8  25
TORSDOF 6
ENDMDL
MODEL 6
REMARK VINA RESULT:      -6.6      3.407      8.838
REMARK  Name = 
REMARK  6 active torsions:
REMARK  status: ('A' for Active; 'I' for Inactive)
REMARK    1  A    between atoms: C_2  and  C_4
REMARK    2  A    between atoms: C_5  and  N_6
REMARK    3  A    between atoms: C_7  and  C_9
REMARK    4  A    between atoms: N_20  and  C_21
REMARK    5  A    between atoms: C_21  and  N_23
REMARK    6  A    between atoms: N_23  and  C_24
REMARK                            x       y       z     vdW  Elec       q    Type
REMARK                         _______ _______ _______ _____ _____    ______ ____
ROOT
ATOM      1  C   UNL     1       0.496   9.956  21.177  0.00  0.00    +0.000 A 
ATOM      2  C   UNL     1       0.896   9.189  20.095  0.00  0.00    +0.000 A 
ATOM      3  S   UNL     1       0.560   9.934  18.592  0.00  0.00    +0.000 S 
ATOM      4  C   UNL     1      -0.105  11.310  19.340  0.00  0.00    +0.000 A 
ATOM      5  C   UNL     1      -0.100  11.195  20.721  0.00  0.00    +0.000 A 
ATOM      6  C   UNL     1      -0.595  12.326  21.580  0.00  0.00    +0.000 C 
ATOM      7  C   UNL     1      -1.437  13.310  20.751  0.00  0.00    +0.000 C 
ATOM      8  N   UNL     1      -0.800  13.644  19.457  0.00  0.00    +0.000 N 
ATOM      9  C   UNL     1      -0.628  12.489  18.547  0.00  0.00    +0.000 C 
ENDROOT
BRANCH   1  11
ATOM     10  N   UNL     1      -0.403   9.381  23.319  0.00  0.00    +0.000 N 
ATOM     11  C   UNL     1       0.723   9.617  22.580  0.00  0.00    +0.000 C 
ATOM     12  O   UNL     1       1.833   9.461  23.075  0.00  0.00    +0.000 OA
ATOM     13  H   UNL     1      -0.244   8.908  24.200  0.00  0.00    +0.000 HD
ATOM     14  H   UNL     1      -1.273   9.182  22.842  0.00  0.00    +0.000 HD
ENDBRANCH   1  11
BRANCH   2  15
ATOM     15  N   UNL     1       1.421   7.904  20.073  0.00  0.00    +0.000 N 
ATOM     16  C   UNL     1       2.357   7.528  19.122  0.00  0.00    +0.000 C 
ATOM     17  O   UNL     1       2.800   8.249  18.227  0.00  0.00    +0.000 OA
ATOM     18  H   UNL     1       1.455   7.375  20.944  0.00  0.00    +0.000 HD
BRANCH  16  19
ATOM     19  C   UNL     1       2.932   6.154  19.292  0.00  0.00    +0.000 A 
ATOM     20  C   UNL     1       2.249   5.237  20.066  0.00  0.00    +0.000 A 
ATOM     21  C   UNL     1       2.842   4.006  20.190  0.00  0.00    +0.000 A 
ATOM     22  N   UNL     1       4.011   3.693  19.604  0.00  0.00    +0.000 NA
ATOM     23  C   UNL     1       4.586   4.658  18.868  0.00  0.00    +0.000 A 
ATOM     24  N   UNL     1       4.100   5.892  18.657  0.00  0.00    +0.000 NA
ENDBRANCH  16  19
ENDBRANCH   2  15
BRANCH   8  25
ATOM     25  C   UNL     1      -0.100  14.842  19.243  0.00  0.00    +0.000 C 
ATOM     26  S   UNL     1      -0.789  16.371  19.407  0.00  0.00    +0.000 S 
BRANCH  25  27
ATOM     27  N   UNL     1       1.186  14.630  18.756  0.00  0.00    +0.000 N 
ATOM     28  H   UNL     1       1.266  14.787  17.755  0.00  0.00    +0.000 HD
BRANCH  27  29
ATOM     29  C   UNL     1       2.407  14.744  19.475  0.00  0.00    +0.000 A 
ATOM     30  C   UNL     1       2.489  14.319  20.806  0.00  0.00    +0.000 A 
ATOM     31  C   UNL     1       3.704  14.354  21.494  0.00  0.00    +0.000 A 
ATOM     32  C   UNL     1       4.858  14.806  20.859  0.00  0.00    +0.000 A 
ATOM     33  C   UNL     1       4.797  15.228  19.531  0.00  0.00    +0.000 A 
ATOM     34  C   UNL     1       3.580  15.193  18.841  0.00  0.00    +0.000 A 
ATOM     35 CL   UNL     1       3.552  15.762  17.207  0.00  0.00    +0.000 Cl
ENDBRANCH  27  29
ENDBRANCH  25  27
ENDBRANCH   8  25
TORSDOF 6
ENDMDL
MODEL 7
REMARK VINA RESULT:      -6.6      3.732      9.450
REMARK  Name = 
REMARK  6 active torsions:
REMARK  status: ('A' for Active; 'I' for Inactive)
REMARK    1  A    between atoms: C_2  and  C_4
REMARK    2  A    between atoms: C_5  and  N_6
REMARK    3  A    between atoms: C_7  and  C_9
REMARK    4  A    between atoms: N_20  and  C_21
REMARK    5  A    between atoms: C_21  and  N_23
REMARK    6  A    between atoms: N_23  and  C_24
REMARK                            x       y       z     vdW  Elec       q    Type
REMARK                         _______ _______ _______ _____ _____    ______ ____
ROOT
ATOM      1  C   UNL     1       0.067  10.166  21.422  0.00  0.00    +0.000 A 
ATOM      2  C   UNL     1       0.313   9.697  20.142  0.00  0.00    +0.000 A 
ATOM      3  S   UNL     1      -0.516  10.586  18.939  0.00  0.00    +0.000 S 
ATOM      4  C   UNL     1      -1.205  11.637  20.086  0.00  0.00    +0.000 A 
ATOM      5  C   UNL     1      -0.835  11.299  21.378  0.00  0.00    +0.000 A 
ATOM      6  C   UNL     1      -1.291  12.133  22.543  0.00  0.00    +0.000 C 
ATOM      7  C   UNL     1      -2.474  13.029  22.140  0.00  0.00    +0.000 C 
ATOM      8  N   UNL     1      -2.251  13.705  20.842  0.00  0.00    +0.000 N 
ATOM      9  C   UNL     1      -2.111  12.785  19.691  0.00  0.00    +0.000 C 
ENDROOT
BRANCH   1  11
ATOM     10  N   UNL     1      -0.166   9.292  23.639  0.00  0.00    +0.000 N 
ATOM     11  C   UNL     1       0.694   9.658  22.641  0.00  0.00    +0.000 C 
ATOM     12  O   UNL     1       1.900   9.478  22.765  0.00  0.00    +0.000 OA
ATOM     13  H   UNL     1       0.243   8.716  24.364  0.00  0.00    +0.000 HD
ATOM     14  H   UNL     1      -1.139   9.127  23.415  0.00  0.00    +0.000 HD
ENDBRANCH   1  11
BRANCH   2  15
ATOM     15  N   UNL     1       1.034   8.582  19.737  0.00  0.00    +0.000 N 
ATOM     16  C   UNL     1       1.922   8.651  18.674  0.00  0.00    +0.000 C 
ATOM     17  O   UNL     1       2.153   9.653  17.996  0.00  0.00    +0.000 OA
ATOM     18  H   UNL     1       1.238   7.855  20.422  0.00  0.00    +0.000 HD
BRANCH  16  19
ATOM     19  C   UNL     1       2.726   7.410  18.425  0.00  0.00    +0.000 A 
ATOM     20  C   UNL     1       2.435   6.271  19.148  0.00  0.00    +0.000 A 
ATOM     21  C   UNL     1       3.221   5.180  18.880  0.00  0.00    +0.000 A 
ATOM     22  N   UNL     1       4.216   5.198  17.975  0.00  0.00    +0.000 NA
ATOM     23  C   UNL     1       4.408   6.357  17.324  0.00  0.00    +0.000 A 
ATOM     24  N   UNL     1       3.699   7.486  17.484  0.00  0.00    +0.000 NA
ENDBRANCH  16  19
ENDBRANCH   2  15
BRANCH   8  25
ATOM     25  C   UNL     1      -1.851  15.047  20.746  0.00  0.00    +0.000 C 
ATOM     26  S   UNL     1      -2.006  16.163  21.998  0.00  0.00    +0.000 S 
BRANCH  25  27
ATOM     27  N   UNL     1      -1.432  15.390  19.463  0.00  0.00    +0.000 N 
ATOM     28  H   UNL     1      -2.189  15.718  18.869  0.00  0.00    +0.000 HD
BRANCH  27  29
ATOM     29  C   UNL     1      -0.136  15.821  19.068  0.00  0.00    +0.000 A 
ATOM     30  C   UNL     1       0.980  15.006  19.288  0.00  0.00    +0.000 A 
ATOM     31  C   UNL     1       2.244  15.387  18.832  0.00  0.00    +0.000 A 
ATOM     32  C   UNL     1       2.409  16.585  18.141  0.00  0.00    +0.000 A 
ATOM     33  C   UNL     1       1.307  17.407  17.906  0.00  0.00    +0.000 A 
ATOM     34  C   UNL     1       0.040  17.026  18.363  0.00  0.00    +0.000 A 
ATOM     35 CL   UNL     1      -1.286  18.099  18.078  0.00  0.00    +0.000 Cl
ENDBRANCH  27  29
ENDBRANCH  25  27
ENDBRANCH   8  25
TORSDOF 6
ENDMDL
MODEL 8
REMARK VINA RESULT:      -6.6      1.021      1.287
REMARK  Name = 
REMARK  6 active torsions:
REMARK  status: ('A' for Active; 'I' for Inactive)
REMARK    1  A    between atoms: C_2  and  C_4
REMARK    2  A    between atoms: C_5  and  N_6
REMARK    3  A    between atoms: C_7  and  C_9
REMARK    4  A    between atoms: N_20  and  C_21
REMARK    5  A    between atoms: C_21  and  N_23
REMARK    6  A    between atoms: N_23  and  C_24
REMARK                            x       y       z     vdW  Elec       q    Type
REMARK                         _______ _______ _______ _____ _____    ______ ____
ROOT
ATOM      1  C   UNL     1       1.183   8.623  20.467  0.00  0.00    +0.000 A 
ATOM      2  C   UNL     1       1.197   9.683  19.575  0.00  0.00    +0.000 A 
ATOM      3  S   UNL     1       2.154   9.375  18.192  0.00  0.00    +0.000 S 
ATOM      4  C   UNL     1       2.557   7.812  18.728  0.00  0.00    +0.000 A 
ATOM      5  C   UNL     1       1.995   7.534  19.964  0.00  0.00    +0.000 A 
ATOM      6  C   UNL     1       2.181   6.183  20.599  0.00  0.00    +0.000 C 
ATOM      7  C   UNL     1       3.348   5.430  19.939  0.00  0.00    +0.000 C 
ATOM      8  N   UNL     1       3.304   5.506  18.462  0.00  0.00    +0.000 N 
ATOM      9  C   UNL     1       3.431   6.877  17.918  0.00  0.00    +0.000 C 
ENDROOT
BRANCH   1  11
ATOM     10  N   UNL     1       0.931   9.216  22.772  0.00  0.00    +0.000 N 
ATOM     11  C   UNL     1       0.394   8.566  21.695  0.00  0.00    +0.000 C 
ATOM     12  O   UNL     1      -0.716   8.054  21.772  0.00  0.00    +0.000 OA
ATOM     13  H   UNL     1       0.284   9.392  23.531  0.00  0.00    +0.000 HD
ATOM     14  H   UNL     1       1.658   9.904  22.621  0.00  0.00    +0.000 HD
ENDBRANCH   1  11
BRANCH   2  15
ATOM     15  N   UNL     1       0.638  10.948  19.703  0.00  0.00    +0.000 N 
ATOM     16  C   UNL     1      -0.707  11.166  19.446  0.00  0.00    +0.000 C 
ATOM     17  O   UNL     1      -1.517  10.311  19.083  0.00  0.00    +0.000 OA
ATOM     18  H   UNL     1       1.066  11.609  20.351  0.00  0.00    +0.000 HD
BRANCH  16  19
ATOM     19  C   UNL     1      -1.203  12.549  19.745  0.00  0.00    +0.000 A 
ATOM     20  C   UNL     1      -2.346  12.696  20.505  0.00  0.00    +0.000 A 
ATOM     21  C   UNL     1      -2.750  13.989  20.726  0.00  0.00    +0.000 A 
ATOM     22  N   UNL     1      -2.090  15.056  20.242  0.00  0.00    +0.000 NA
ATOM     23  C   UNL     1      -0.987  14.798  19.521  0.00  0.00    +0.000 A 
ATOM     24  N   UNL     1      -0.481  13.583  19.250  0.00  0.00    +0.000 NA
ENDBRANCH  16  19
ENDBRANCH   2  15
BRANCH   8  25
ATOM     25  C   UNL     1       2.831   4.454  17.662  0.00  0.00    +0.000 C 
ATOM     26  S   UNL     1       1.196   4.131  17.411  0.00  0.00    +0.000 S 
BRANCH  25  27
ATOM     27  N   UNL     1       3.853   3.630  17.202  0.00  0.00    +0.000 N 
ATOM     28  H   UNL     1       3.571   2.658  17.106  0.00  0.00    +0.000 HD
BRANCH  27  29
ATOM     29  C   UNL     1       4.970   4.007  16.406  0.00  0.00    +0.000 A 
ATOM     30  C   UNL     1       4.868   4.038  15.011  0.00  0.00    +0.000 A 
ATOM     31  C   UNL     1       5.936   4.482  14.226  0.00  0.00    +0.000 A 
ATOM     32  C   UNL     1       7.117   4.911  14.827  0.00  0.00    +0.000 A 
ATOM     33  C   UNL     1       7.234   4.894  16.216  0.00  0.00    +0.000 A 
ATOM     34  C   UNL     1       6.165   4.448  17.003  0.00  0.00    +0.000 A 
ATOM     35 CL   UNL     1       6.376   4.412  18.719  0.00  0.00    +0.000 Cl
ENDBRANCH  27  29
ENDBRANCH  25  27
ENDBRANCH   8  25
TORSDOF 6
ENDMDL
MODEL 9
REMARK VINA RESULT:      -6.6      3.843      9.719
REMARK  Name = 
REMARK  6 active torsions:
REMARK  status: ('A' for Active; 'I' for Inactive)
REMARK    1  A    between atoms: C_2  and  C_4
REMARK    2  A    between atoms: C_5  and  N_6
REMARK    3  A    between atoms: C_7  and  C_9
REMARK    4  A    between atoms: N_20  and  C_21
REMARK    5  A    between atoms: C_21  and  N_23
REMARK    6  A    between atoms: N_23  and  C_24
REMARK                            x       y       z     vdW  Elec       q    Type
REMARK                         _______ _______ _______ _____ _____    ______ ____
ROOT
ATOM      1  C   UNL     1       0.706   9.878  21.233  0.00  0.00    +0.000 A 
ATOM      2  C   UNL     1       1.097   8.944  20.288  0.00  0.00    +0.000 A 
ATOM      3  S   UNL     1       1.308   9.623  18.732  0.00  0.00    +0.000 S 
ATOM      4  C   UNL     1       0.910  11.184  19.279  0.00  0.00    +0.000 A 
ATOM      5  C   UNL     1       0.589  11.188  20.627  0.00  0.00    +0.000 A 
ATOM      6  C   UNL     1       0.258  12.478  21.327  0.00  0.00    +0.000 C 
ATOM      7  C   UNL     1      -0.080  13.578  20.307  0.00  0.00    +0.000 C 
ATOM      8  N   UNL     1       0.884  13.620  19.185  0.00  0.00    +0.000 N 
ATOM      9  C   UNL     1       0.917  12.390  18.362  0.00  0.00    +0.000 C 
ENDROOT
BRANCH   1  11
ATOM     10  N   UNL     1      -0.747   9.287  23.042  0.00  0.00    +0.000 N 
ATOM     11  C   UNL     1       0.526   9.608  22.658  0.00  0.00    +0.000 C 
ATOM     12  O   UNL     1       1.443   9.580  23.471  0.00  0.00    +0.000 OA
ATOM     13  H   UNL     1      -0.822   8.861  23.957  0.00  0.00    +0.000 HD
ATOM     14  H   UNL     1      -1.412   8.987  22.340  0.00  0.00    +0.000 HD
ENDBRANCH   1  11
BRANCH   2  15
ATOM     15  N   UNL     1       1.235   7.568  20.414  0.00  0.00    +0.000 N 
ATOM     16  C   UNL     1       2.181   6.872  19.676  0.00  0.00    +0.000 C 
ATOM     17  O   UNL     1       2.959   7.366  18.859  0.00  0.00    +0.000 OA
ATOM     18  H   UNL     1       0.965   7.128  21.293  0.00  0.00    +0.000 HD
BRANCH  16  19
ATOM     19  C   UNL     1       2.307   5.415  20.003  0.00  0.00    +0.000 A 
ATOM     20  C   UNL     1       3.458   4.747  19.636  0.00  0.00    +0.000 A 
ATOM     21  C   UNL     1       3.499   3.413  19.954  0.00  0.00    +0.000 A 
ATOM     22  N   UNL     1       2.492   2.779  20.582  0.00  0.00    +0.000 NA
ATOM     23  C   UNL     1       1.422   3.526  20.898  0.00  0.00    +0.000 A 
ATOM     24  N   UNL     1       1.270   4.838  20.658  0.00  0.00    +0.000 NA
ENDBRANCH  16  19
ENDBRANCH   2  15
BRANCH   8  25
ATOM     25  C   UNL     1       1.919  14.566  19.109  0.00  0.00    +0.000 C 
ATOM     26  S   UNL     1       3.522  14.175  18.770  0.00  0.00    +0.000 S 
BRANCH  25  27
ATOM     27  N   UNL     1       1.503  15.844  19.471  0.00  0.00    +0.000 N 
ATOM     28  H   UNL     1       2.126  16.295  20.136  0.00  0.00    +0.000 HD
BRANCH  27  29
ATOM     29  C   UNL     1       0.702  16.736  18.708  0.00  0.00    +0.000 A 
ATOM     30  C   UNL     1      -0.627  16.983  19.069  0.00  0.00    +0.000 A 
ATOM     31  C   UNL     1      -1.397  17.917  18.372  0.00  0.00    +0.000 A 
ATOM     32  C   UNL     1      -0.845  18.626  17.308  0.00  0.00    +0.000 A 
ATOM     33  C   UNL     1       0.480  18.399  16.937  0.00  0.00    +0.000 A 
ATOM     34  C   UNL     1       1.252  17.463  17.635  0.00  0.00    +0.000 A 
ATOM     35 CL   UNL     1       2.878  17.193  17.111  0.00  0.00    +0.000 Cl
ENDBRANCH  27  29
ENDBRANCH  25  27
ENDBRANCH   8  25
TORSDOF 6
ENDMDL
