MODEL 1
REMARK VINA RESULT:      -7.4      0.000      0.000
REMARK  Name = 
REMARK  6 active torsions:
REMARK  status: ('A' for Active; 'I' for Inactive)
REMARK    1  A    between atoms: C_1  and  C_2
REMARK    2  A    between atoms: C_5  and  N_6
REMARK    3  A    between atoms: N_6  and  C_7
REMARK    4  A    between atoms: C_7  and  C_8
REMARK    5  A    between atoms: C_18  and  O_19
REMARK    6  A    between atoms: O_19  and  C_20
REMARK                            x       y       z     vdW  Elec       q    Type
REMARK                         _______ _______ _______ _____ _____    ______ ____
ROOT
ATOM      1  N   UNL     1       2.288   6.402  20.557  0.00  0.00    +0.000 N 
ATOM      2  H   UNL     1       3.218   6.434  20.968  0.00  0.00    +0.000 HD
ENDROOT
BRANCH   1   7
ATOM      3  C   UNL     1       0.512  11.714  19.287  0.00  0.00    +0.000 C 
ATOM      4  C   UNL     1       0.889  10.323  19.708  0.00  0.00    +0.000 A 
ATOM      5  C   UNL     1       1.422   9.481  18.717  0.00  0.00    +0.000 A 
ATOM      6  C   UNL     1       1.865   8.190  19.015  0.00  0.00    +0.000 A 
ATOM      7  C   UNL     1       1.763   7.669  20.304  0.00  0.00    +0.000 A 
ATOM      8  C   UNL     1       1.259   8.518  21.296  0.00  0.00    +0.000 A 
ATOM      9  C   UNL     1       0.802   9.824  21.015  0.00  0.00    +0.000 A 
BRANCH   9  10
ATOM     10  O   UNL     1       0.415  10.495  22.144  0.00  0.00    +0.000 OA
BRANCH  10  11
ATOM     11  C   UNL     1      -0.508   9.876  23.020  0.00  0.00    +0.000 C 
ATOM     12  F   UNL     1       0.131   9.394  24.112  0.00  0.00    +0.000 F 
ATOM     13  F   UNL     1      -1.350  10.847  23.463  0.00  0.00    +0.000 F 
ENDBRANCH  10  11
ENDBRANCH   9  10
ENDBRANCH   1   7
BRANCH   1  14
ATOM     14  C   UNL     1       2.151   5.323  19.588  0.00  0.00    +0.000 C 
BRANCH  14  15
ATOM     15  C   UNL     1       3.452   5.067  18.895  0.00  0.00    +0.000 A 
ATOM     16  C   UNL     1       3.380   4.625  17.465  0.00  0.00    +0.000 A 
ATOM     17  N   UNL     1       4.383   4.369  16.678  0.00  0.00    +0.000 NA
ATOM     18  C   UNL     1       5.625   4.521  17.235  0.00  0.00    +0.000 A 
ATOM     19  C   UNL     1       6.888   4.350  16.717  0.00  0.00    +0.000 A 
ATOM     20  C   UNL     1       7.758   4.661  17.772  0.00  0.00    +0.000 A 
ATOM     21  N   UNL     1       7.117   5.009  18.888  0.00  0.00    +0.000 NA
ATOM     22  N   UNL     1       5.802   4.923  18.563  0.00  0.00    +0.000 N 
ATOM     23  C   UNL     1       4.703   5.187  19.372  0.00  0.00    +0.000 A 
ENDBRANCH  14  15
ENDBRANCH   1  14
TORSDOF 5
ENDMDL
MODEL 2
REMARK VINA RESULT:      -7.3      4.218      7.480
REMARK  Name = 
REMARK  6 active torsions:
REMARK  status: ('A' for Active; 'I' for Inactive)
REMARK    1  A    between atoms: C_1  and  C_2
REMARK    2  A    between atoms: C_5  and  N_6
REMARK    3  A    between atoms: N_6  and  C_7
REMARK    4  A    between atoms: C_7  and  C_8
REMARK    5  A    between atoms: C_18  and  O_19
REMARK    6  A    between atoms: O_19  and  C_20
REMARK                            x       y       z     vdW  Elec       q    Type
REMARK                         _______ _______ _______ _____ _____    ______ ____
ROOT
ATOM      1  N   UNL     1       4.016   5.479  19.620  0.00  0.00    +0.000 N 
ATOM      2  H   UNL     1       4.416   4.875  20.334  0.00  0.00    +0.000 HD
ENDROOT
BRANCH   1   7
ATOM      3  C   UNL     1       6.806   4.676  14.665  0.00  0.00    +0.000 C 
ATOM      4  C   UNL     1       6.105   5.007  15.951  0.00  0.00    +0.000 A 
ATOM      5  C   UNL     1       5.013   4.198  16.306  0.00  0.00    +0.000 A 
ATOM      6  C   UNL     1       4.331   4.378  17.512  0.00  0.00    +0.000 A 
ATOM      7  C   UNL     1       4.685   5.394  18.400  0.00  0.00    +0.000 A 
ATOM      8  C   UNL     1       5.790   6.180  18.059  0.00  0.00    +0.000 A 
ATOM      9  C   UNL     1       6.491   6.018  16.843  0.00  0.00    +0.000 A 
BRANCH   9  10
ATOM     10  O   UNL     1       7.574   6.848  16.751  0.00  0.00    +0.000 OA
BRANCH  10  11
ATOM     11  C   UNL     1       7.805   7.783  17.787  0.00  0.00    +0.000 C 
ATOM     12  F   UNL     1       8.598   7.241  18.742  0.00  0.00    +0.000 F 
ATOM     13  F   UNL     1       8.505   8.815  17.244  0.00  0.00    +0.000 F 
ENDBRANCH  10  11
ENDBRANCH   9  10
ENDBRANCH   1   7
BRANCH   1  14
ATOM     14  C   UNL     1       2.559   5.512  19.680  0.00  0.00    +0.000 C 
BRANCH  14  15
ATOM     15  C   UNL     1       2.064   6.922  19.691  0.00  0.00    +0.000 A 
ATOM     16  C   UNL     1       1.331   7.371  20.918  0.00  0.00    +0.000 A 
ATOM     17  N   UNL     1       0.837   8.553  21.142  0.00  0.00    +0.000 NA
ATOM     18  C   UNL     1       1.010   9.465  20.137  0.00  0.00    +0.000 A 
ATOM     19  C   UNL     1       0.636  10.785  20.022  0.00  0.00    +0.000 A 
ATOM     20  C   UNL     1       1.101  11.185  18.761  0.00  0.00    +0.000 A 
ATOM     21  N   UNL     1       1.728  10.209  18.104  0.00  0.00    +0.000 NA
ATOM     22  N   UNL     1       1.674   9.147  18.947  0.00  0.00    +0.000 N 
ATOM     23  C   UNL     1       2.188   7.871  18.747  0.00  0.00    +0.000 A 
ENDBRANCH  14  15
ENDBRANCH   1  14
TORSDOF 5
ENDMDL
MODEL 3
REMARK VINA RESULT:      -7.3      1.572      1.858
REMARK  Name = 
REMARK  6 active torsions:
REMARK  status: ('A' for Active; 'I' for Inactive)
REMARK    1  A    between atoms: C_1  and  C_2
REMARK    2  A    between atoms: C_5  and  N_6
REMARK    3  A    between atoms: N_6  and  C_7
REMARK    4  A    between atoms: C_7  and  C_8
REMARK    5  A    between atoms: C_18  and  O_19
REMARK    6  A    between atoms: O_19  and  C_20
REMARK                            x       y       z     vdW  Elec       q    Type
REMARK                         _______ _______ _______ _____ _____    ______ ____
ROOT
ATOM      1  N   UNL     1       2.907   5.840  19.469  0.00  0.00    +0.000 N 
ATOM      2  H   UNL     1       2.463   5.238  20.157  0.00  0.00    +0.000 HD
ENDROOT
BRANCH   1   7
ATOM      3  C   UNL     1       0.677  11.079  18.716  0.00  0.00    +0.000 C 
ATOM      4  C   UNL     1       1.179   9.693  19.006  0.00  0.00    +0.000 A 
ATOM      5  C   UNL     1       1.704   8.968  17.924  0.00  0.00    +0.000 A 
ATOM      6  C   UNL     1       2.256   7.696  18.095  0.00  0.00    +0.000 A 
ATOM      7  C   UNL     1       2.277   7.078  19.345  0.00  0.00    +0.000 A 
ATOM      8  C   UNL     1       1.781   7.813  20.427  0.00  0.00    +0.000 A 
ATOM      9  C   UNL     1       1.215   9.098  20.275  0.00  0.00    +0.000 A 
BRANCH   9  10
ATOM     10  O   UNL     1       0.856   9.655  21.472  0.00  0.00    +0.000 OA
BRANCH  10  11
ATOM     11  C   UNL     1       0.246   8.833  22.449  0.00  0.00    +0.000 C 
ATOM     12  F   UNL     1      -0.152   9.579  23.508  0.00  0.00    +0.000 F 
ATOM     13  F   UNL     1      -0.883   8.322  21.892  0.00  0.00    +0.000 F 
ENDBRANCH  10  11
ENDBRANCH   9  10
ENDBRANCH   1   7
BRANCH   1  14
ATOM     14  C   UNL     1       4.360   5.733  19.501  0.00  0.00    +0.000 C 
BRANCH  14  15
ATOM     15  C   UNL     1       4.887   5.309  18.167  0.00  0.00    +0.000 A 
ATOM     16  C   UNL     1       4.127   4.235  17.451  0.00  0.00    +0.000 A 
ATOM     17  N   UNL     1       4.398   3.735  16.282  0.00  0.00    +0.000 NA
ATOM     18  C   UNL     1       5.501   4.255  15.659  0.00  0.00    +0.000 A 
ATOM     19  C   UNL     1       6.078   3.984  14.440  0.00  0.00    +0.000 A 
ATOM     20  C   UNL     1       7.182   4.845  14.362  0.00  0.00    +0.000 A 
ATOM     21  N   UNL     1       7.317   5.617  15.440  0.00  0.00    +0.000 NA
ATOM     22  N   UNL     1       6.284   5.257  16.243  0.00  0.00    +0.000 N 
ATOM     23  C   UNL     1       5.960   5.764  17.496  0.00  0.00    +0.000 A 
ENDBRANCH  14  15
ENDBRANCH   1  14
TORSDOF 5
ENDMDL
MODEL 4
REMARK VINA RESULT:      -7.2      4.461      8.126
REMARK  Name = 
REMARK  6 active torsions:
REMARK  status: ('A' for Active; 'I' for Inactive)
REMARK    1  A    between atoms: C_1  and  C_2
REMARK    2  A    between atoms: C_5  and  N_6
REMARK    3  A    between atoms: N_6  and  C_7
REMARK    4  A    between atoms: C_7  and  C_8
REMARK    5  A    between atoms: C_18  and  O_19
REMARK    6  A    between atoms: O_19  and  C_20
REMARK                            x       y       z     vdW  Elec       q    Type
REMARK                         _______ _______ _______ _____ _____    ______ ____
ROOT
ATOM      1  N   UNL     1       2.288   7.710  18.658  0.00  0.00    +0.000 N 
ATOM      2  H   UNL     1       2.458   8.680  18.407  0.00  0.00    +0.000 HD
ENDROOT
BRANCH   1   7
ATOM      3  C   UNL     1       5.645   3.750  16.204  0.00  0.00    +0.000 C 
ATOM      4  C   UNL     1       4.819   4.869  16.769  0.00  0.00    +0.000 A 
ATOM      5  C   UNL     1       3.549   4.533  17.267  0.00  0.00    +0.000 A 
ATOM      6  C   UNL     1       2.726   5.486  17.873  0.00  0.00    +0.000 A 
ATOM      7  C   UNL     1       3.118   6.820  17.978  0.00  0.00    +0.000 A 
ATOM      8  C   UNL     1       4.395   7.147  17.509  0.00  0.00    +0.000 A 
ATOM      9  C   UNL     1       5.241   6.201  16.889  0.00  0.00    +0.000 A 
BRANCH   9  10
ATOM     10  O   UNL     1       6.464   6.725  16.570  0.00  0.00    +0.000 OA
BRANCH  10  11
ATOM     11  C   UNL     1       7.291   7.205  17.613  0.00  0.00    +0.000 C 
ATOM     12  F   UNL     1       8.018   6.190  18.140  0.00  0.00    +0.000 F 
ATOM     13  F   UNL     1       8.181   8.065  17.051  0.00  0.00    +0.000 F 
ENDBRANCH  10  11
ENDBRANCH   9  10
ENDBRANCH   1   7
BRANCH   1  14
ATOM     14  C   UNL     1       2.015   7.549  20.081  0.00  0.00    +0.000 C 
BRANCH  14  15
ATOM     15  C   UNL     1       1.170   8.674  20.586  0.00  0.00    +0.000 A 
ATOM     16  C   UNL     1       0.619   9.619  19.562  0.00  0.00    +0.000 A 
ATOM     17  N   UNL     1      -0.149  10.645  19.781  0.00  0.00    +0.000 NA
ATOM     18  C   UNL     1      -0.471  10.872  21.092  0.00  0.00    +0.000 A 
ATOM     19  C   UNL     1      -1.248  11.837  21.690  0.00  0.00    +0.000 A 
ATOM     20  C   UNL     1      -1.203  11.540  23.060  0.00  0.00    +0.000 A 
ATOM     21  N   UNL     1      -0.459  10.469  23.336  0.00  0.00    +0.000 NA
ATOM     22  N   UNL     1      -0.005  10.054  22.126  0.00  0.00    +0.000 N 
ATOM     23  C   UNL     1       0.814   8.966  21.850  0.00  0.00    +0.000 A 
ENDBRANCH  14  15
ENDBRANCH   1  14
TORSDOF 5
ENDMDL
MODEL 5
REMARK VINA RESULT:      -7.2      4.524      8.307
REMARK  Name = 
REMARK  6 active torsions:
REMARK  status: ('A' for Active; 'I' for Inactive)
REMARK    1  A    between atoms: C_1  and  C_2
REMARK    2  A    between atoms: C_5  and  N_6
REMARK    3  A    between atoms: N_6  and  C_7
REMARK    4  A    between atoms: C_7  and  C_8
REMARK    5  A    between atoms: C_18  and  O_19
REMARK    6  A    between atoms: O_19  and  C_20
REMARK                            x       y       z     vdW  Elec       q    Type
REMARK                         _______ _______ _______ _____ _____    ______ ____
ROOT
ATOM      1  N   UNL     1       2.105   8.029  19.074  0.00  0.00    +0.000 N 
ATOM      2  H   UNL     1       2.458   8.978  18.980  0.00  0.00    +0.000 HD
ENDROOT
BRANCH   1   7
ATOM      3  C   UNL     1       5.060   3.924  16.354  0.00  0.00    +0.000 C 
ATOM      4  C   UNL     1       4.334   5.078  16.984  0.00  0.00    +0.000 A 
ATOM      5  C   UNL     1       3.110   4.794  17.612  0.00  0.00    +0.000 A 
ATOM      6  C   UNL     1       2.386   5.782  18.283  0.00  0.00    +0.000 A 
ATOM      7  C   UNL     1       2.832   7.102  18.328  0.00  0.00    +0.000 A 
ATOM      8  C   UNL     1       4.065   7.378  17.728  0.00  0.00    +0.000 A 
ATOM      9  C   UNL     1       4.811   6.396  17.040  0.00  0.00    +0.000 A 
BRANCH   9  10
ATOM     10  O   UNL     1       6.012   6.872  16.591  0.00  0.00    +0.000 OA
BRANCH  10  11
ATOM     11  C   UNL     1       7.107   6.911  17.488  0.00  0.00    +0.000 C 
ATOM     12  F   UNL     1       7.771   5.731  17.469  0.00  0.00    +0.000 F 
ATOM     13  F   UNL     1       7.972   7.849  17.020  0.00  0.00    +0.000 F 
ENDBRANCH  10  11
ENDBRANCH   9  10
ENDBRANCH   1   7
BRANCH   1  14
ATOM     14  C   UNL     1       1.682   7.733  20.438  0.00  0.00    +0.000 C 
BRANCH  14  15
ATOM     15  C   UNL     1       0.859   8.853  20.989  0.00  0.00    +0.000 A 
ATOM     16  C   UNL     1       0.891   9.046  22.475  0.00  0.00    +0.000 A 
ATOM     17  N   UNL     1       0.269   9.964  23.155  0.00  0.00    +0.000 NA
ATOM     18  C   UNL     1      -0.492  10.831  22.418  0.00  0.00    +0.000 A 
ATOM     19  C   UNL     1      -1.268  11.906  22.783  0.00  0.00    +0.000 A 
ATOM     20  C   UNL     1      -1.797  12.398  21.580  0.00  0.00    +0.000 A 
ATOM     21  N   UNL     1      -1.398  11.701  20.515  0.00  0.00    +0.000 NA
ATOM     22  N   UNL     1      -0.595  10.734  21.026  0.00  0.00    +0.000 N 
ATOM     23  C   UNL     1       0.085   9.738  20.336  0.00  0.00    +0.000 A 
ENDBRANCH  14  15
ENDBRANCH   1  14
TORSDOF 5
ENDMDL
MODEL 6
REMARK VINA RESULT:      -7.2      7.232      8.447
REMARK  Name = 
REMARK  6 active torsions:
REMARK  status: ('A' for Active; 'I' for Inactive)
REMARK    1  A    between atoms: C_1  and  C_2
REMARK    2  A    between atoms: C_5  and  N_6
REMARK    3  A    between atoms: N_6  and  C_7
REMARK    4  A    between atoms: C_7  and  C_8
REMARK    5  A    between atoms: C_18  and  O_19
REMARK    6  A    between atoms: O_19  and  C_20
REMARK                            x       y       z     vdW  Elec       q    Type
REMARK                         _______ _______ _______ _____ _____    ______ ____
ROOT
ATOM      1  N   UNL     1       8.837   8.907  18.980  0.00  0.00    +0.000 N 
ATOM      2  H   UNL     1       9.498   8.175  19.229  0.00  0.00    +0.000 HD
ENDROOT
BRANCH   1   7
ATOM      3  C   UNL     1      10.428  14.232  20.425  0.00  0.00    +0.000 C 
ATOM      4  C   UNL     1      10.090  12.848  19.951  0.00  0.00    +0.000 A 
ATOM      5  C   UNL     1       9.709  11.916  20.930  0.00  0.00    +0.000 A 
ATOM      6  C   UNL     1       9.313  10.620  20.590  0.00  0.00    +0.000 A 
ATOM      7  C   UNL     1       9.312  10.186  19.265  0.00  0.00    +0.000 A 
ATOM      8  C   UNL     1       9.663  11.124  18.289  0.00  0.00    +0.000 A 
ATOM      9  C   UNL     1      10.071  12.438  18.610  0.00  0.00    +0.000 A 
BRANCH   9  10
ATOM     10  O   UNL     1      10.302  13.199  17.497  0.00  0.00    +0.000 OA
BRANCH  10  11
ATOM     11  C   UNL     1      11.581  13.150  16.893  0.00  0.00    +0.000 C 
ATOM     12  F   UNL     1      11.491  13.464  15.578  0.00  0.00    +0.000 F 
ATOM     13  F   UNL     1      12.333  14.124  17.471  0.00  0.00    +0.000 F 
ENDBRANCH  10  11
ENDBRANCH   9  10
ENDBRANCH   1   7
BRANCH   1  14
ATOM     14  C   UNL     1       8.146   8.621  17.728  0.00  0.00    +0.000 C 
BRANCH  14  15
ATOM     15  C   UNL     1       7.327   7.376  17.850  0.00  0.00    +0.000 A 
ATOM     16  C   UNL     1       7.815   6.338  18.815  0.00  0.00    +0.000 A 
ATOM     17  N   UNL     1       7.249   5.200  19.088  0.00  0.00    +0.000 NA
ATOM     18  C   UNL     1       6.090   4.939  18.407  0.00  0.00    +0.000 A 
ATOM     19  C   UNL     1       5.232   3.864  18.438  0.00  0.00    +0.000 A 
ATOM     20  C   UNL     1       4.220   4.182  17.520  0.00  0.00    +0.000 A 
ATOM     21  N   UNL     1       4.401   5.367  16.937  0.00  0.00    +0.000 NA
ATOM     22  N   UNL     1       5.552   5.837  17.479  0.00  0.00    +0.000 N 
ATOM     23  C   UNL     1       6.189   7.045  17.216  0.00  0.00    +0.000 A 
ENDBRANCH  14  15
ENDBRANCH   1  14
TORSDOF 5
ENDMDL
MODEL 7
REMARK VINA RESULT:      -7.2      4.275      7.996
REMARK  Name = 
REMARK  6 active torsions:
REMARK  status: ('A' for Active; 'I' for Inactive)
REMARK    1  A    between atoms: C_1  and  C_2
REMARK    2  A    between atoms: C_5  and  N_6
REMARK    3  A    between atoms: N_6  and  C_7
REMARK    4  A    between atoms: C_7  and  C_8
REMARK    5  A    between atoms: C_18  and  O_19
REMARK    6  A    between atoms: O_19  and  C_20
REMARK                            x       y       z     vdW  Elec       q    Type
REMARK                         _______ _______ _______ _____ _____    ______ ____
ROOT
ATOM      1  N   UNL     1       2.346   7.547  18.762  0.00  0.00    +0.000 N 
ATOM      2  H   UNL     1       2.593   8.498  18.501  0.00  0.00    +0.000 HD
ENDROOT
BRANCH   1   7
ATOM      3  C   UNL     1       5.574   3.873  15.751  0.00  0.00    +0.000 C 
ATOM      4  C   UNL     1       4.704   4.739  16.615  0.00  0.00    +0.000 A 
ATOM      5  C   UNL     1       5.034   6.103  16.686  0.00  0.00    +0.000 A 
ATOM      6  C   UNL     1       4.253   7.008  17.408  0.00  0.00    +0.000 A 
ATOM      7  C   UNL     1       3.129   6.588  18.120  0.00  0.00    +0.000 A 
ATOM      8  C   UNL     1       2.784   5.236  18.024  0.00  0.00    +0.000 A 
ATOM      9  C   UNL     1       3.562   4.303  17.303  0.00  0.00    +0.000 A 
BRANCH   9  10
ATOM     10  O   UNL     1       3.002   3.055  17.290  0.00  0.00    +0.000 OA
BRANCH  10  11
ATOM     11  C   UNL     1       3.489   2.082  18.195  0.00  0.00    +0.000 C 
ATOM     12  F   UNL     1       4.397   2.634  19.035  0.00  0.00    +0.000 F 
ATOM     13  F   UNL     1       2.439   1.691  18.964  0.00  0.00    +0.000 F 
ENDBRANCH  10  11
ENDBRANCH   9  10
ENDBRANCH   1   7
BRANCH   1  14
ATOM     14  C   UNL     1       2.025   7.431  20.179  0.00  0.00    +0.000 C 
BRANCH  14  15
ATOM     15  C   UNL     1       1.217   8.604  20.634  0.00  0.00    +0.000 A 
ATOM     16  C   UNL     1       0.768   9.566  19.577  0.00  0.00    +0.000 A 
ATOM     17  N   UNL     1       0.045  10.633  19.751  0.00  0.00    +0.000 NA
ATOM     18  C   UNL     1      -0.328  10.889  21.043  0.00  0.00    +0.000 A 
ATOM     19  C   UNL     1      -1.081  11.900  21.595  0.00  0.00    +0.000 A 
ATOM     20  C   UNL     1      -1.117  11.615  22.968  0.00  0.00    +0.000 A 
ATOM     21  N   UNL     1      -0.445  10.509  23.288  0.00  0.00    +0.000 NA
ATOM     22  N   UNL     1       0.044  10.059  22.105  0.00  0.00    +0.000 N 
ATOM     23  C   UNL     1       0.817   8.926  21.877  0.00  0.00    +0.000 A 
ENDBRANCH  14  15
ENDBRANCH   1  14
TORSDOF 5
ENDMDL
MODEL 8
REMARK VINA RESULT:      -7.2      4.298      8.028
REMARK  Name = 
REMARK  6 active torsions:
REMARK  status: ('A' for Active; 'I' for Inactive)
REMARK    1  A    between atoms: C_1  and  C_2
REMARK    2  A    between atoms: C_5  and  N_6
REMARK    3  A    between atoms: N_6  and  C_7
REMARK    4  A    between atoms: C_7  and  C_8
REMARK    5  A    between atoms: C_18  and  O_19
REMARK    6  A    between atoms: O_19  and  C_20
REMARK                            x       y       z     vdW  Elec       q    Type
REMARK                         _______ _______ _______ _____ _____    ______ ____
ROOT
ATOM      1  N   UNL     1       2.588   6.920  18.473  0.00  0.00    +0.000 N 
ATOM      2  H   UNL     1       1.802   6.292  18.624  0.00  0.00    +0.000 HD
ENDROOT
BRANCH   1   7
ATOM      3  C   UNL     1       6.816   4.151  15.746  0.00  0.00    +0.000 C 
ATOM      4  C   UNL     1       5.747   4.978  16.400  0.00  0.00    +0.000 A 
ATOM      5  C   UNL     1       4.556   4.319  16.746  0.00  0.00    +0.000 A 
ATOM      6  C   UNL     1       3.523   4.980  17.416  0.00  0.00    +0.000 A 
ATOM      7  C   UNL     1       3.618   6.333  17.740  0.00  0.00    +0.000 A 
ATOM      8  C   UNL     1       4.816   6.980  17.421  0.00  0.00    +0.000 A 
ATOM      9  C   UNL     1       5.871   6.333  16.740  0.00  0.00    +0.000 A 
BRANCH   9  10
ATOM     10  O   UNL     1       6.968   7.137  16.593  0.00  0.00    +0.000 OA
BRANCH  10  11
ATOM     11  C   UNL     1       7.537   7.729  17.746  0.00  0.00    +0.000 C 
ATOM     12  F   UNL     1       8.212   6.802  18.466  0.00  0.00    +0.000 F 
ATOM     13  F   UNL     1       8.458   8.632  17.317  0.00  0.00    +0.000 F 
ENDBRANCH  10  11
ENDBRANCH   9  10
ENDBRANCH   1   7
BRANCH   1  14
ATOM     14  C   UNL     1       2.156   8.286  18.206  0.00  0.00    +0.000 C 
BRANCH  14  15
ATOM     15  C   UNL     1       1.430   8.850  19.385  0.00  0.00    +0.000 A 
ATOM     16  C   UNL     1       1.566   8.109  20.680  0.00  0.00    +0.000 A 
ATOM     17  N   UNL     1       1.038   8.434  21.823  0.00  0.00    +0.000 NA
ATOM     18  C   UNL     1       0.277   9.572  21.819  0.00  0.00    +0.000 A 
ATOM     19  C   UNL     1      -0.417  10.213  22.819  0.00  0.00    +0.000 A 
ATOM     20  C   UNL     1      -0.995  11.332  22.201  0.00  0.00    +0.000 A 
ATOM     21  N   UNL     1      -0.702  11.417  20.903  0.00  0.00    +0.000 NA
ATOM     22  N   UNL     1       0.081  10.334  20.662  0.00  0.00    +0.000 N 
ATOM     23  C   UNL     1       0.663   9.953  19.460  0.00  0.00    +0.000 A 
ENDBRANCH  14  15
ENDBRANCH   1  14
TORSDOF 5
ENDMDL
MODEL 9
REMARK VINA RESULT:      -7.2      2.685      3.660
REMARK  Name = 
REMARK  6 active torsions:
REMARK  status: ('A' for Active; 'I' for Inactive)
REMARK    1  A    between atoms: C_1  and  C_2
REMARK    2  A    between atoms: C_5  and  N_6
REMARK    3  A    between atoms: N_6  and  C_7
REMARK    4  A    between atoms: C_7  and  C_8
REMARK    5  A    between atoms: C_18  and  O_19
REMARK    6  A    between atoms: O_19  and  C_20
REMARK                            x       y       z     vdW  Elec       q    Type
REMARK                         _______ _______ _______ _____ _____    ______ ____
ROOT
ATOM      1  N   UNL     1       1.709   8.654  17.787  0.00  0.00    +0.000 N 
ATOM      2  H   UNL     1       1.220   8.129  17.067  0.00  0.00    +0.000 HD
ENDROOT
BRANCH   1   7
ATOM      3  C   UNL     1      -1.781  12.071  20.806  0.00  0.00    +0.000 C 
ATOM      4  C   UNL     1      -0.858  11.107  20.119  0.00  0.00    +0.000 A 
ATOM      5  C   UNL     1      -1.018  10.953  18.731  0.00  0.00    +0.000 A 
ATOM      6  C   UNL     1      -0.171  10.131  17.985  0.00  0.00    +0.000 A 
ATOM      7  C   UNL     1       0.850   9.400  18.592  0.00  0.00    +0.000 A 
ATOM      8  C   UNL     1       1.027   9.577  19.968  0.00  0.00    +0.000 A 
ATOM      9  C   UNL     1       0.179  10.400  20.743  0.00  0.00    +0.000 A 
BRANCH   9  10
ATOM     10  O   UNL     1       0.578  10.476  22.049  0.00  0.00    +0.000 OA
BRANCH  10  11
ATOM     11  C   UNL     1      -0.104   9.699  23.015  0.00  0.00    +0.000 C 
ATOM     12  F   UNL     1      -1.098  10.422  23.584  0.00  0.00    +0.000 F 
ATOM     13  F   UNL     1      -0.703   8.674  22.352  0.00  0.00    +0.000 F 
ENDBRANCH  10  11
ENDBRANCH   9  10
ENDBRANCH   1   7
BRANCH   1  14
ATOM     14  C   UNL     1       2.817   7.901  18.362  0.00  0.00    +0.000 C 
BRANCH  14  15
ATOM     15  C   UNL     1       2.377   6.523  18.740  0.00  0.00    +0.000 A 
ATOM     16  C   UNL     1       2.139   6.266  20.197  0.00  0.00    +0.000 A 
ATOM     17  N   UNL     1       1.738   5.153  20.736  0.00  0.00    +0.000 NA
ATOM     18  C   UNL     1       1.521   4.119  19.865  0.00  0.00    +0.000 A 
ATOM     19  C   UNL     1       1.098   2.825  20.066  0.00  0.00    +0.000 A 
ATOM     20  C   UNL     1       1.066   2.251  18.786  0.00  0.00    +0.000 A 
ATOM     21  N   UNL     1       1.438   3.100  17.827  0.00  0.00    +0.000 NA
ATOM     22  N   UNL     1       1.720   4.251  18.487  0.00  0.00    +0.000 N 
ATOM     23  C   UNL     1       2.150   5.459  17.949  0.00  0.00    +0.000 A 
ENDBRANCH  14  15
ENDBRANCH   1  14
TORSDOF 5
ENDMDL
