MODEL 1
REMARK VINA RESULT:      -8.6      0.000      0.000
REMARK  Name = 
REMARK  4 active torsions:
REMARK  status: ('A' for Active; 'I' for Inactive)
REMARK    1  A    between atoms: C_2  and  O_3
REMARK    2  A    between atoms: C_2  and  C_4
REMARK    3  A    between atoms: C_11  and  C_12
REMARK    4  A    between atoms: C_15  and  C_16
REMARK                            x       y       z     vdW  Elec       q    Type
REMARK                         _______ _______ _______ _____ _____    ______ ____
ROOT
ATOM      1  C   UNL     1       6.871   5.977  17.604  0.00  0.00    +0.000 A 
ATOM      2  C   UNL     1       7.192   4.715  17.127  0.00  0.00    +0.000 A 
ATOM      3  N   UNL     1       6.038   3.981  17.031  0.00  0.00    +0.000 N 
ATOM      4  C   UNL     1       4.962   4.743  17.416  0.00  0.00    +0.000 A 
ATOM      5  C   UNL     1       3.605   4.425  17.456  0.00  0.00    +0.000 A 
ATOM      6  C   UNL     1       2.719   5.423  17.875  0.00  0.00    +0.000 A 
ATOM      7  F   UNL     1       1.414   5.105  17.854  0.00  0.00    +0.000 F 
ATOM      8  C   UNL     1       3.135   6.704  18.279  0.00  0.00    +0.000 A 
ATOM      9  C   UNL     1       4.524   6.965  18.247  0.00  0.00    +0.000 A 
ATOM     10  C   UNL     1       5.449   5.991  17.798  0.00  0.00    +0.000 A 
ATOM     11  H   UNL     1       5.977   3.018  16.722  0.00  0.00    +0.000 HD
ENDROOT
BRANCH   8  12
ATOM     12  C   UNL     1       2.164   7.750  18.690  0.00  0.00    +0.000 A 
ATOM     13  C   UNL     1       1.612   8.646  17.761  0.00  0.00    +0.000 A 
ATOM     14  C   UNL     1       0.756   9.688  18.147  0.00  0.00    +0.000 A 
ATOM     15  C   UNL     1       0.394   9.864  19.483  0.00  0.00    +0.000 A 
ATOM     16  C   UNL     1       0.909   8.953  20.418  0.00  0.00    +0.000 A 
ATOM     17  C   UNL     1       1.774   7.918  20.029  0.00  0.00    +0.000 A 
BRANCH  15  18
ATOM     18  C   UNL     1      -0.522  10.984  19.953  0.00  0.00    +0.000 C 
ATOM     19  C   UNL     1      -1.257  11.758  18.846  0.00  0.00    +0.000 C 
ATOM     20  C   UNL     1      -0.523  12.993  18.343  0.00  0.00    +0.000 C 
ATOM     21  C   UNL     1       0.005  13.804  19.515  0.00  0.00    +0.000 C 
ATOM     22  C   UNL     1       0.855  12.922  20.414  0.00  0.00    +0.000 C 
ATOM     23  O   UNL     1       0.106  11.826  20.926  0.00  0.00    +0.000 OA
ENDBRANCH  15  18
ENDBRANCH   8  12
BRANCH   1  25
ATOM     24  O   UNL     1       7.975   8.012  17.105  0.00  0.00    +0.000 OA
ATOM     25  C   UNL     1       7.798   7.072  17.866  0.00  0.00    +0.000 C 
BRANCH  25  26
ATOM     26  O   UNL     1       8.489   6.958  19.030  0.00  0.00    +0.000 OA
ATOM     27  H   UNL     1       9.132   7.681  19.140  0.00  0.00    +0.000 HD
ENDBRANCH  25  26
ENDBRANCH   1  25
TORSDOF 4
ENDMDL
MODEL 2
REMARK VINA RESULT:      -8.4      3.075      4.005
REMARK  Name = 
REMARK  4 active torsions:
REMARK  status: ('A' for Active; 'I' for Inactive)
REMARK    1  A    between atoms: C_2  and  O_3
REMARK    2  A    between atoms: C_2  and  C_4
REMARK    3  A    between atoms: C_11  and  C_12
REMARK    4  A    between atoms: C_15  and  C_16
REMARK                            x       y       z     vdW  Elec       q    Type
REMARK                         _______ _______ _______ _____ _____    ______ ____
ROOT
ATOM      1  C   UNL     1       2.885   3.019  20.022  0.00  0.00    +0.000 A 
ATOM      2  C   UNL     1       3.728   2.122  19.383  0.00  0.00    +0.000 A 
ATOM      3  N   UNL     1       4.331   2.765  18.333  0.00  0.00    +0.000 N 
ATOM      4  C   UNL     1       3.915   4.073  18.281  0.00  0.00    +0.000 A 
ATOM      5  C   UNL     1       4.279   5.096  17.407  0.00  0.00    +0.000 A 
ATOM      6  C   UNL     1       3.703   6.355  17.610  0.00  0.00    +0.000 A 
ATOM      7  F   UNL     1       4.111   7.333  16.785  0.00  0.00    +0.000 F 
ATOM      8  C   UNL     1       2.767   6.621  18.624  0.00  0.00    +0.000 A 
ATOM      9  C   UNL     1       2.411   5.542  19.465  0.00  0.00    +0.000 A 
ATOM     10  C   UNL     1       2.996   4.260  19.311  0.00  0.00    +0.000 A 
ATOM     11  H   UNL     1       4.988   2.347  17.686  0.00  0.00    +0.000 HD
ENDROOT
BRANCH   8  12
ATOM     12  C   UNL     1       2.198   7.977  18.831  0.00  0.00    +0.000 A 
ATOM     13  C   UNL     1       1.624   8.356  20.054  0.00  0.00    +0.000 A 
ATOM     14  C   UNL     1       1.013   9.604  20.238  0.00  0.00    +0.000 A 
ATOM     15  C   UNL     1       0.973  10.544  19.208  0.00  0.00    +0.000 A 
ATOM     16  C   UNL     1       1.576  10.194  17.990  0.00  0.00    +0.000 A 
ATOM     17  C   UNL     1       2.177   8.939  17.806  0.00  0.00    +0.000 A 
BRANCH  15  18
ATOM     18  C   UNL     1       0.314  11.907  19.354  0.00  0.00    +0.000 C 
ATOM     19  C   UNL     1      -0.183  12.264  20.764  0.00  0.00    +0.000 C 
ATOM     20  C   UNL     1      -1.630  11.882  21.042  0.00  0.00    +0.000 C 
ATOM     21  C   UNL     1      -2.514  12.295  19.877  0.00  0.00    +0.000 C 
ATOM     22  C   UNL     1      -1.973  11.710  18.582  0.00  0.00    +0.000 C 
ATOM     23  O   UNL     1      -0.648  12.158  18.323  0.00  0.00    +0.000 OA
ENDBRANCH  15  18
ENDBRANCH   8  12
BRANCH   1  25
ATOM     24  O   UNL     1       2.474   2.426  22.278  0.00  0.00    +0.000 OA
ATOM     25  C   UNL     1       2.041   2.749  21.181  0.00  0.00    +0.000 C 
BRANCH  25  26
ATOM     26  O   UNL     1       0.708   2.856  20.944  0.00  0.00    +0.000 OA
ATOM     27  H   UNL     1       0.458   3.763  20.692  0.00  0.00    +0.000 HD
ENDBRANCH  25  26
ENDBRANCH   1  25
TORSDOF 4
ENDMDL
MODEL 3
REMARK VINA RESULT:      -8.3      3.203      4.035
REMARK  Name = 
REMARK  4 active torsions:
REMARK  status: ('A' for Active; 'I' for Inactive)
REMARK    1  A    between atoms: C_2  and  O_3
REMARK    2  A    between atoms: C_2  and  C_4
REMARK    3  A    between atoms: C_11  and  C_12
REMARK    4  A    between atoms: C_15  and  C_16
REMARK                            x       y       z     vdW  Elec       q    Type
REMARK                         _______ _______ _______ _____ _____    ______ ____
ROOT
ATOM      1  C   UNL     1       2.888   2.980  20.314  0.00  0.00    +0.000 A 
ATOM      2  C   UNL     1       3.946   2.163  19.943  0.00  0.00    +0.000 A 
ATOM      3  N   UNL     1       4.764   2.868  19.097  0.00  0.00    +0.000 N 
ATOM      4  C   UNL     1       4.274   4.139  18.922  0.00  0.00    +0.000 A 
ATOM      5  C   UNL     1       4.782   5.202  18.176  0.00  0.00    +0.000 A 
ATOM      6  C   UNL     1       4.073   6.407  18.200  0.00  0.00    +0.000 A 
ATOM      7  F   UNL     1       4.614   7.428  17.515  0.00  0.00    +0.000 F 
ATOM      8  C   UNL     1       2.873   6.582  18.911  0.00  0.00    +0.000 A 
ATOM      9  C   UNL     1       2.385   5.465  19.627  0.00  0.00    +0.000 A 
ATOM     10  C   UNL     1       3.092   4.237  19.653  0.00  0.00    +0.000 A 
ATOM     11  H   UNL     1       5.607   2.514  18.663  0.00  0.00    +0.000 HD
ENDROOT
BRANCH   8  12
ATOM     12  C   UNL     1       2.161   7.885  18.941  0.00  0.00    +0.000 A 
ATOM     13  C   UNL     1       2.055   8.691  17.797  0.00  0.00    +0.000 A 
ATOM     14  C   UNL     1       1.455   9.958  17.830  0.00  0.00    +0.000 A 
ATOM     15  C   UNL     1       0.909  10.465  19.009  0.00  0.00    +0.000 A 
ATOM     16  C   UNL     1       0.974   9.654  20.152  0.00  0.00    +0.000 A 
ATOM     17  C   UNL     1       1.585   8.392  20.118  0.00  0.00    +0.000 A 
BRANCH  15  18
ATOM     18  C   UNL     1       0.257  11.837  19.098  0.00  0.00    +0.000 C 
ATOM     19  C   UNL     1      -0.139  12.300  20.510  0.00  0.00    +0.000 C 
ATOM     20  C   UNL     1      -1.562  11.942  20.918  0.00  0.00    +0.000 C 
ATOM     21  C   UNL     1      -2.528  12.268  19.791  0.00  0.00    +0.000 C 
ATOM     22  C   UNL     1      -2.078  11.586  18.509  0.00  0.00    +0.000 C 
ATOM     23  O   UNL     1      -0.777  12.011  18.123  0.00  0.00    +0.000 OA
ENDBRANCH  15  18
ENDBRANCH   8  12
BRANCH   1  25
ATOM     24  O   UNL     1       1.923   2.146  22.309  0.00  0.00    +0.000 OA
ATOM     25  C   UNL     1       1.780   2.625  21.194  0.00  0.00    +0.000 C 
BRANCH  25  26
ATOM     26  O   UNL     1       0.548   2.843  20.664  0.00  0.00    +0.000 OA
ATOM     27  H   UNL     1      -0.133   2.302  21.101  0.00  0.00    +0.000 HD
ENDBRANCH  25  26
ENDBRANCH   1  25
TORSDOF 4
ENDMDL
MODEL 4
REMARK VINA RESULT:      -8.2      0.202      1.166
REMARK  Name = 
REMARK  4 active torsions:
REMARK  status: ('A' for Active; 'I' for Inactive)
REMARK    1  A    between atoms: C_2  and  O_3
REMARK    2  A    between atoms: C_2  and  C_4
REMARK    3  A    between atoms: C_11  and  C_12
REMARK    4  A    between atoms: C_15  and  C_16
REMARK                            x       y       z     vdW  Elec       q    Type
REMARK                         _______ _______ _______ _____ _____    ______ ____
ROOT
ATOM      1  C   UNL     1       6.782   5.833  17.600  0.00  0.00    +0.000 A 
ATOM      2  C   UNL     1       7.045   4.556  17.128  0.00  0.00    +0.000 A 
ATOM      3  N   UNL     1       5.858   3.875  17.036  0.00  0.00    +0.000 N 
ATOM      4  C   UNL     1       4.819   4.687  17.418  0.00  0.00    +0.000 A 
ATOM      5  C   UNL     1       3.449   4.432  17.460  0.00  0.00    +0.000 A 
ATOM      6  C   UNL     1       2.610   5.471  17.876  0.00  0.00    +0.000 A 
ATOM      7  F   UNL     1       1.292   5.214  17.857  0.00  0.00    +0.000 F 
ATOM      8  C   UNL     1       3.084   6.734  18.275  0.00  0.00    +0.000 A 
ATOM      9  C   UNL     1       4.484   6.931  18.242  0.00  0.00    +0.000 A 
ATOM     10  C   UNL     1       5.363   5.913  17.795  0.00  0.00    +0.000 A 
ATOM     11  H   UNL     1       5.752   2.915  16.730  0.00  0.00    +0.000 HD
ENDROOT
BRANCH   8  12
ATOM     12  C   UNL     1       2.163   7.825  18.683  0.00  0.00    +0.000 A 
ATOM     13  C   UNL     1       1.759   7.987  20.017  0.00  0.00    +0.000 A 
ATOM     14  C   UNL     1       0.829   8.963  20.402  0.00  0.00    +0.000 A 
ATOM     15  C   UNL     1       0.279   9.841  19.467  0.00  0.00    +0.000 A 
ATOM     16  C   UNL     1       0.702   9.716  18.135  0.00  0.00    +0.000 A 
ATOM     17  C   UNL     1       1.624   8.730  17.752  0.00  0.00    +0.000 A 
BRANCH  15  18
ATOM     18  C   UNL     1      -0.740  10.910  19.833  0.00  0.00    +0.000 C 
ATOM     19  C   UNL     1      -1.294  11.737  18.661  0.00  0.00    +0.000 C 
ATOM     20  C   UNL     1      -0.522  13.016  18.368  0.00  0.00    +0.000 C 
ATOM     21  C   UNL     1      -0.234  13.762  19.661  0.00  0.00    +0.000 C 
ATOM     22  C   UNL     1       0.473  12.843  20.643  0.00  0.00    +0.000 C 
ATOM     23  O   UNL     1      -0.319  11.702  20.949  0.00  0.00    +0.000 OA
ENDBRANCH  15  18
ENDBRANCH   8  12
BRANCH   1  25
ATOM     24  O   UNL     1       8.439   6.949  18.873  0.00  0.00    +0.000 OA
ATOM     25  C   UNL     1       7.760   6.885  17.858  0.00  0.00    +0.000 C 
BRANCH  25  26
ATOM     26  O   UNL     1       7.844   7.827  16.883  0.00  0.00    +0.000 OA
ATOM     27  H   UNL     1       8.768   8.060  16.686  0.00  0.00    +0.000 HD
ENDBRANCH  25  26
ENDBRANCH   1  25
TORSDOF 4
ENDMDL
MODEL 5
REMARK VINA RESULT:      -8.2      3.031      3.884
REMARK  Name = 
REMARK  4 active torsions:
REMARK  status: ('A' for Active; 'I' for Inactive)
REMARK    1  A    between atoms: C_2  and  O_3
REMARK    2  A    between atoms: C_2  and  C_4
REMARK    3  A    between atoms: C_11  and  C_12
REMARK    4  A    between atoms: C_15  and  C_16
REMARK                            x       y       z     vdW  Elec       q    Type
REMARK                         _______ _______ _______ _____ _____    ______ ____
ROOT
ATOM      1  C   UNL     1       2.461   2.735  18.449  0.00  0.00    +0.000 A 
ATOM      2  C   UNL     1       3.494   1.976  17.916  0.00  0.00    +0.000 A 
ATOM      3  N   UNL     1       4.442   2.828  17.410  0.00  0.00    +0.000 N 
ATOM      4  C   UNL     1       4.062   4.131  17.619  0.00  0.00    +0.000 A 
ATOM      5  C   UNL     1       4.718   5.319  17.299  0.00  0.00    +0.000 A 
ATOM      6  C   UNL     1       4.095   6.519  17.657  0.00  0.00    +0.000 A 
ATOM      7  F   UNL     1       4.774   7.645  17.384  0.00  0.00    +0.000 F 
ATOM      8  C   UNL     1       2.842   6.578  18.292  0.00  0.00    +0.000 A 
ATOM      9  C   UNL     1       2.206   5.346  18.568  0.00  0.00    +0.000 A 
ATOM     10  C   UNL     1       2.820   4.109  18.249  0.00  0.00    +0.000 A 
ATOM     11  H   UNL     1       5.299   2.547  16.951  0.00  0.00    +0.000 HD
ENDROOT
BRANCH   8  12
ATOM     12  C   UNL     1       2.222   7.869  18.687  0.00  0.00    +0.000 A 
ATOM     13  C   UNL     1       1.785   8.104  19.999  0.00  0.00    +0.000 A 
ATOM     14  C   UNL     1       1.128   9.287  20.366  0.00  0.00    +0.000 A 
ATOM     15  C   UNL     1       0.901  10.302  19.437  0.00  0.00    +0.000 A 
ATOM     16  C   UNL     1       1.366  10.097  18.129  0.00  0.00    +0.000 A 
ATOM     17  C   UNL     1       2.013   8.907  17.763  0.00  0.00    +0.000 A 
BRANCH  15  18
ATOM     18  C   UNL     1       0.184  11.598  19.784  0.00  0.00    +0.000 C 
ATOM     19  C   UNL     1      -0.026  12.580  18.619  0.00  0.00    +0.000 C 
ATOM     20  C   UNL     1       1.087  13.606  18.449  0.00  0.00    +0.000 C 
ATOM     21  C   UNL     1       1.458  14.205  19.795  0.00  0.00    +0.000 C 
ATOM     22  C   UNL     1       1.805  13.098  20.777  0.00  0.00    +0.000 C 
ATOM     23  O   UNL     1       0.710  12.210  20.967  0.00  0.00    +0.000 OA
ENDBRANCH  15  18
ENDBRANCH   8  12
BRANCH   1  25
ATOM     24  O   UNL     1       0.232   1.936  18.461  0.00  0.00    +0.000 OA
ATOM     25  C   UNL     1       1.245   2.232  19.078  0.00  0.00    +0.000 C 
BRANCH  25  26
ATOM     26  O   UNL     1       1.308   2.141  20.432  0.00  0.00    +0.000 OA
ATOM     27  H   UNL     1       0.671   2.737  20.863  0.00  0.00    +0.000 HD
ENDBRANCH  25  26
ENDBRANCH   1  25
TORSDOF 4
ENDMDL
MODEL 6
REMARK VINA RESULT:      -8.2      3.013      3.731
REMARK  Name = 
REMARK  4 active torsions:
REMARK  status: ('A' for Active; 'I' for Inactive)
REMARK    1  A    between atoms: C_2  and  O_3
REMARK    2  A    between atoms: C_2  and  C_4
REMARK    3  A    between atoms: C_11  and  C_12
REMARK    4  A    between atoms: C_15  and  C_16
REMARK                            x       y       z     vdW  Elec       q    Type
REMARK                         _______ _______ _______ _____ _____    ______ ____
ROOT
ATOM      1  C   UNL     1       2.944   3.063  20.070  0.00  0.00    +0.000 A 
ATOM      2  C   UNL     1       3.815   2.237  19.374  0.00  0.00    +0.000 A 
ATOM      3  N   UNL     1       4.358   2.953  18.339  0.00  0.00    +0.000 N 
ATOM      4  C   UNL     1       3.877   4.239  18.353  0.00  0.00    +0.000 A 
ATOM      5  C   UNL     1       4.168   5.315  17.515  0.00  0.00    +0.000 A 
ATOM      6  C   UNL     1       3.537   6.533  17.784  0.00  0.00    +0.000 A 
ATOM      7  F   UNL     1       3.875   7.565  16.993  0.00  0.00    +0.000 F 
ATOM      8  C   UNL     1       2.614   6.710  18.831  0.00  0.00    +0.000 A 
ATOM      9  C   UNL     1       2.333   5.580  19.633  0.00  0.00    +0.000 A 
ATOM     10  C   UNL     1       2.977   4.337  19.411  0.00  0.00    +0.000 A 
ATOM     11  H   UNL     1       5.018   2.595  17.659  0.00  0.00    +0.000 HD
ENDROOT
BRANCH   8  12
ATOM     12  C   UNL     1       1.985   8.026  19.109  0.00  0.00    +0.000 A 
ATOM     13  C   UNL     1       1.847   9.001  18.109  0.00  0.00    +0.000 A 
ATOM     14  C   UNL     1       1.328  10.276  18.376  0.00  0.00    +0.000 A 
ATOM     15  C   UNL     1       0.897  10.624  19.657  0.00  0.00    +0.000 A 
ATOM     16  C   UNL     1       0.994   9.646  20.659  0.00  0.00    +0.000 A 
ATOM     17  C   UNL     1       1.525   8.375  20.390  0.00  0.00    +0.000 A 
BRANCH  15  18
ATOM     18  C   UNL     1       0.336  11.996  19.999  0.00  0.00    +0.000 C 
ATOM     19  C   UNL     1       0.155  12.960  18.815  0.00  0.00    +0.000 C 
ATOM     20  C   UNL     1       1.351  13.862  18.545  0.00  0.00    +0.000 C 
ATOM     21  C   UNL     1       1.863  14.459  19.845  0.00  0.00    +0.000 C 
ATOM     22  C   UNL     1       2.157  13.350  20.843  0.00  0.00    +0.000 C 
ATOM     23  O   UNL     1       0.993  12.584  21.127  0.00  0.00    +0.000 OA
ENDBRANCH  15  18
ENDBRANCH   8  12
BRANCH   1  25
ATOM     24  O   UNL     1       2.620   2.325  22.297  0.00  0.00    +0.000 OA
ATOM     25  C   UNL     1       2.145   2.704  21.236  0.00  0.00    +0.000 C 
BRANCH  25  26
ATOM     26  O   UNL     1       0.803   2.793  21.048  0.00  0.00    +0.000 OA
ATOM     27  H   UNL     1       0.339   3.031  21.870  0.00  0.00    +0.000 HD
ENDBRANCH  25  26
ENDBRANCH   1  25
TORSDOF 4
ENDMDL
MODEL 7
REMARK VINA RESULT:      -8.2      3.118      3.997
REMARK  Name = 
REMARK  4 active torsions:
REMARK  status: ('A' for Active; 'I' for Inactive)
REMARK    1  A    between atoms: C_2  and  O_3
REMARK    2  A    between atoms: C_2  and  C_4
REMARK    3  A    between atoms: C_11  and  C_12
REMARK    4  A    between atoms: C_15  and  C_16
REMARK                            x       y       z     vdW  Elec       q    Type
REMARK                         _______ _______ _______ _____ _____    ______ ____
ROOT
ATOM      1  C   UNL     1       2.449   2.733  18.577  0.00  0.00    +0.000 A 
ATOM      2  C   UNL     1       3.472   1.942  18.076  0.00  0.00    +0.000 A 
ATOM      3  N   UNL     1       4.427   2.761  17.531  0.00  0.00    +0.000 N 
ATOM      4  C   UNL     1       4.061   4.076  17.682  0.00  0.00    +0.000 A 
ATOM      5  C   UNL     1       4.728   5.242  17.309  0.00  0.00    +0.000 A 
ATOM      6  C   UNL     1       4.118   6.463  17.616  0.00  0.00    +0.000 A 
ATOM      7  F   UNL     1       4.807   7.569  17.291  0.00  0.00    +0.000 F 
ATOM      8  C   UNL     1       2.867   6.563  18.250  0.00  0.00    +0.000 A 
ATOM      9  C   UNL     1       2.219   5.350  18.581  0.00  0.00    +0.000 A 
ATOM     10  C   UNL     1       2.821   4.094  18.316  0.00  0.00    +0.000 A 
ATOM     11  H   UNL     1       5.281   2.452  17.082  0.00  0.00    +0.000 HD
ENDROOT
BRANCH   8  12
ATOM     12  C   UNL     1       2.261   7.876  18.588  0.00  0.00    +0.000 A 
ATOM     13  C   UNL     1       2.202   8.921  17.654  0.00  0.00    +0.000 A 
ATOM     14  C   UNL     1       1.705  10.190  17.985  0.00  0.00    +0.000 A 
ATOM     15  C   UNL     1       1.219  10.461  19.264  0.00  0.00    +0.000 A 
ATOM     16  C   UNL     1       1.237   9.414  20.198  0.00  0.00    +0.000 A 
ATOM     17  C   UNL     1       1.745   8.149  19.867  0.00  0.00    +0.000 A 
BRANCH  15  18
ATOM     18  C   UNL     1       0.680  11.823  19.675  0.00  0.00    +0.000 C 
ATOM     19  C   UNL     1       0.056  11.902  21.078  0.00  0.00    +0.000 C 
ATOM     20  C   UNL     1      -1.444  11.643  21.119  0.00  0.00    +0.000 C 
ATOM     21  C   UNL     1      -2.141  12.418  20.012  0.00  0.00    +0.000 C 
ATOM     22  C   UNL     1      -1.508  12.086  18.670  0.00  0.00    +0.000 C 
ATOM     23  O   UNL     1      -0.125  12.419  18.651  0.00  0.00    +0.000 OA
ENDBRANCH  15  18
ENDBRANCH   8  12
BRANCH   1  25
ATOM     24  O   UNL     1       1.064   2.272  20.442  0.00  0.00    +0.000 OA
ATOM     25  C   UNL     1       1.229   2.271  19.230  0.00  0.00    +0.000 C 
BRANCH  25  26
ATOM     26  O   UNL     1       0.278   1.803  18.381  0.00  0.00    +0.000 OA
ATOM     27  H   UNL     1       0.348   2.213  17.501  0.00  0.00    +0.000 HD
ENDBRANCH  25  26
ENDBRANCH   1  25
TORSDOF 4
ENDMDL
MODEL 8
REMARK VINA RESULT:      -8.1      1.142      1.675
REMARK  Name = 
REMARK  4 active torsions:
REMARK  status: ('A' for Active; 'I' for Inactive)
REMARK    1  A    between atoms: C_2  and  O_3
REMARK    2  A    between atoms: C_2  and  C_4
REMARK    3  A    between atoms: C_11  and  C_12
REMARK    4  A    between atoms: C_15  and  C_16
REMARK                            x       y       z     vdW  Elec       q    Type
REMARK                         _______ _______ _______ _____ _____    ______ ____
ROOT
ATOM      1  C   UNL     1       6.009   4.975  16.357  0.00  0.00    +0.000 A 
ATOM      2  C   UNL     1       6.029   3.624  16.044  0.00  0.00    +0.000 A 
ATOM      3  N   UNL     1       4.892   3.045  16.545  0.00  0.00    +0.000 N 
ATOM      4  C   UNL     1       4.115   3.993  17.164  0.00  0.00    +0.000 A 
ATOM      5  C   UNL     1       2.874   3.870  17.787  0.00  0.00    +0.000 A 
ATOM      6  C   UNL     1       2.298   5.029  18.318  0.00  0.00    +0.000 A 
ATOM      7  F   UNL     1       1.080   4.889  18.865  0.00  0.00    +0.000 F 
ATOM      8  C   UNL     1       2.921   6.289  18.276  0.00  0.00    +0.000 A 
ATOM      9  C   UNL     1       4.191   6.354  17.659  0.00  0.00    +0.000 A 
ATOM     10  C   UNL     1       4.792   5.208  17.081  0.00  0.00    +0.000 A 
ATOM     11  H   UNL     1       4.650   2.064  16.474  0.00  0.00    +0.000 HD
ENDROOT
BRANCH   8  12
ATOM     12  C   UNL     1       2.268   7.506  18.823  0.00  0.00    +0.000 A 
ATOM     13  C   UNL     1       1.903   7.600  20.174  0.00  0.00    +0.000 A 
ATOM     14  C   UNL     1       1.215   8.710  20.686  0.00  0.00    +0.000 A 
ATOM     15  C   UNL     1       0.884   9.790  19.868  0.00  0.00    +0.000 A 
ATOM     16  C   UNL     1       1.276   9.727  18.522  0.00  0.00    +0.000 A 
ATOM     17  C   UNL     1       1.954   8.610  18.011  0.00  0.00    +0.000 A 
BRANCH  15  18
ATOM     18  C   UNL     1       0.131  11.012  20.373  0.00  0.00    +0.000 C 
ATOM     19  C   UNL     1      -0.701  11.768  19.323  0.00  0.00    +0.000 C 
ATOM     20  C   UNL     1       0.040  12.901  18.625  0.00  0.00    +0.000 C 
ATOM     21  C   UNL     1       0.791  13.742  19.643  0.00  0.00    +0.000 C 
ATOM     22  C   UNL     1       1.698  12.855  20.481  0.00  0.00    +0.000 C 
ATOM     23  O   UNL     1       0.954  11.863  21.178  0.00  0.00    +0.000 OA
ENDBRANCH  15  18
ENDBRANCH   8  12
BRANCH   1  25
ATOM     24  O   UNL     1       7.248   6.966  16.688  0.00  0.00    +0.000 OA
ATOM     25  C   UNL     1       7.030   5.963  16.025  0.00  0.00    +0.000 C 
BRANCH  25  26
ATOM     26  O   UNL     1       7.719   5.698  14.884  0.00  0.00    +0.000 OA
ATOM     27  H   UNL     1       7.164   5.816  14.093  0.00  0.00    +0.000 HD
ENDBRANCH  25  26
ENDBRANCH   1  25
TORSDOF 4
ENDMDL
MODEL 9
REMARK VINA RESULT:      -8.1      1.203      1.465
REMARK  Name = 
REMARK  4 active torsions:
REMARK  status: ('A' for Active; 'I' for Inactive)
REMARK    1  A    between atoms: C_2  and  O_3
REMARK    2  A    between atoms: C_2  and  C_4
REMARK    3  A    between atoms: C_11  and  C_12
REMARK    4  A    between atoms: C_15  and  C_16
REMARK                            x       y       z     vdW  Elec       q    Type
REMARK                         _______ _______ _______ _____ _____    ______ ____
ROOT
ATOM      1  C   UNL     1       6.089   4.921  16.331  0.00  0.00    +0.000 A 
ATOM      2  C   UNL     1       6.151   3.559  16.075  0.00  0.00    +0.000 A 
ATOM      3  N   UNL     1       5.020   2.970  16.581  0.00  0.00    +0.000 N 
ATOM      4  C   UNL     1       4.207   3.922  17.146  0.00  0.00    +0.000 A 
ATOM      5  C   UNL     1       2.959   3.790  17.753  0.00  0.00    +0.000 A 
ATOM      6  C   UNL     1       2.344   4.954  18.226  0.00  0.00    +0.000 A 
ATOM      7  F   UNL     1       1.120   4.804  18.759  0.00  0.00    +0.000 F 
ATOM      8  C   UNL     1       2.934   6.228  18.142  0.00  0.00    +0.000 A 
ATOM      9  C   UNL     1       4.212   6.302  17.544  0.00  0.00    +0.000 A 
ATOM     10  C   UNL     1       4.854   5.150  17.024  0.00  0.00    +0.000 A 
ATOM     11  H   UNL     1       4.806   1.981  16.547  0.00  0.00    +0.000 HD
ENDROOT
BRANCH   8  12
ATOM     12  C   UNL     1       2.239   7.448  18.627  0.00  0.00    +0.000 A 
ATOM     13  C   UNL     1       1.920   8.505  17.761  0.00  0.00    +0.000 A 
ATOM     14  C   UNL     1       1.336   9.695  18.220  0.00  0.00    +0.000 A 
ATOM     15  C   UNL     1       1.021   9.868  19.568  0.00  0.00    +0.000 A 
ATOM     16  C   UNL     1       1.300   8.805  20.439  0.00  0.00    +0.000 A 
ATOM     17  C   UNL     1       1.895   7.620  19.979  0.00  0.00    +0.000 A 
BRANCH  15  18
ATOM     18  C   UNL     1       0.397  11.143  20.116  0.00  0.00    +0.000 C 
ATOM     19  C   UNL     1      -1.056  11.415  19.690  0.00  0.00    +0.000 C 
ATOM     20  C   UNL     1      -1.199  12.258  18.430  0.00  0.00    +0.000 C 
ATOM     21  C   UNL     1      -0.265  13.455  18.492  0.00  0.00    +0.000 C 
ATOM     22  C   UNL     1       1.160  12.989  18.747  0.00  0.00    +0.000 C 
ATOM     23  O   UNL     1       1.261  12.275  19.973  0.00  0.00    +0.000 OA
ENDBRANCH  15  18
ENDBRANCH   8  12
BRANCH   1  25
ATOM     24  O   UNL     1       7.322   6.919  16.643  0.00  0.00    +0.000 OA
ATOM     25  C   UNL     1       7.089   5.921  15.975  0.00  0.00    +0.000 C 
BRANCH  25  26
ATOM     26  O   UNL     1       7.740   5.677  14.808  0.00  0.00    +0.000 OA
ATOM     27  H   UNL     1       7.387   6.217  14.079  0.00  0.00    +0.000 HD
ENDBRANCH  25  26
ENDBRANCH   1  25
TORSDOF 4
ENDMDL
