MODEL 1
REMARK VINA RESULT:      -5.9      0.000      0.000
REMARK  Name = 
REMARK  7 active torsions:
REMARK  status: ('A' for Active; 'I' for Inactive)
REMARK    1  A    between atoms: C_1  and  O_2
REMARK    2  A    between atoms: O_2  and  C_3
REMARK    3  A    between atoms: C_5  and  C_6
REMARK    4  A    between atoms: C_6  and  O_7
REMARK    5  A    between atoms: C_11  and  O_12
REMARK    6  A    between atoms: O_12  and  C_13
REMARK    7  A    between atoms: C_13  and  C_14
REMARK                            x       y       z     vdW  Elec       q    Type
REMARK                         _______ _______ _______ _____ _____    ______ ____
ROOT
ATOM      1  C   UNL     1       4.641   5.095  18.521  0.00  0.00    +0.000 A 
ATOM      2  C   UNL     1       4.025   4.895  19.766  0.00  0.00    +0.000 A 
ATOM      3  C   UNL     1       2.872   4.102  19.921  0.00  0.00    +0.000 A 
ATOM      4  C   UNL     1       2.353   3.475  18.786  0.00  0.00    +0.000 A 
ATOM      5 BR   UNL     1       0.795   2.391  18.831  0.00  0.00    +0.000 Br
ATOM      6  C   UNL     1       2.987   3.626  17.547  0.00  0.00    +0.000 A 
ATOM      7  C   UNL     1       4.141   4.412  17.406  0.00  0.00    +0.000 A 
ENDROOT
BRANCH   1   9
ATOM      8  C   UNL     1       6.862   5.566  19.194  0.00  0.00    +0.000 C 
ATOM      9  O   UNL     1       5.735   5.909  18.385  0.00  0.00    +0.000 OA
ENDBRANCH   1   9
BRANCH   3  10
ATOM     10  C   UNL     1       2.253   4.043  21.295  0.00  0.00    +0.000 C 
BRANCH  10  11
ATOM     11  O   UNL     1       2.647   2.852  21.971  0.00  0.00    +0.000 OA
ATOM     12  H   UNL     1       1.923   2.606  22.570  0.00  0.00    +0.000 HD
ENDBRANCH  10  11
ENDBRANCH   3  10
BRANCH   7  13
ATOM     13  O   UNL     1       4.612   4.447  16.120  0.00  0.00    +0.000 OA
BRANCH  13  14
ATOM     14  C   UNL     1       5.855   3.813  15.853  0.00  0.00    +0.000 C 
BRANCH  14  15
ATOM     15  C   UNL     1       6.772   4.725  15.028  0.00  0.00    +0.000 C 
ATOM     16  N   UNL     1       7.437   5.702  15.711  0.00  0.00    +0.000 N 
ATOM     17  O   UNL     1       6.911   4.614  13.807  0.00  0.00    +0.000 OA
ATOM     18  H   UNL     1       7.378   5.752  16.722  0.00  0.00    +0.000 HD
ATOM     19  H   UNL     1       8.066   6.311  15.208  0.00  0.00    +0.000 HD
ENDBRANCH  14  15
ENDBRANCH  13  14
ENDBRANCH   7  13
TORSDOF 6
ENDMDL
MODEL 2
REMARK VINA RESULT:      -5.8      1.014      1.014
REMARK  Name = 
REMARK  7 active torsions:
REMARK  status: ('A' for Active; 'I' for Inactive)
REMARK    1  A    between atoms: C_1  and  O_2
REMARK    2  A    between atoms: O_2  and  C_3
REMARK    3  A    between atoms: C_5  and  C_6
REMARK    4  A    between atoms: C_6  and  O_7
REMARK    5  A    between atoms: C_11  and  O_12
REMARK    6  A    between atoms: O_12  and  C_13
REMARK    7  A    between atoms: C_13  and  C_14
REMARK                            x       y       z     vdW  Elec       q    Type
REMARK                         _______ _______ _______ _____ _____    ______ ____
ROOT
ATOM      1  C   UNL     1       5.167   3.939  18.799  0.00  0.00    +0.000 A 
ATOM      2  C   UNL     1       4.621   3.286  19.914  0.00  0.00    +0.000 A 
ATOM      3  C   UNL     1       3.265   2.909  19.982  0.00  0.00    +0.000 A 
ATOM      4  C   UNL     1       2.456   3.181  18.876  0.00  0.00    +0.000 A 
ATOM      5 BR   UNL     1       0.608   2.752  18.825  0.00  0.00    +0.000 Br
ATOM      6  C   UNL     1       3.000   3.789  17.739  0.00  0.00    +0.000 A 
ATOM      7  C   UNL     1       4.354   4.151  17.678  0.00  0.00    +0.000 A 
ENDROOT
BRANCH   1   9
ATOM      8  C   UNL     1       6.746   5.606  19.378  0.00  0.00    +0.000 C 
ATOM      9  O   UNL     1       6.478   4.339  18.774  0.00  0.00    +0.000 OA
ENDBRANCH   1   9
BRANCH   3  10
ATOM     10  C   UNL     1       2.782   2.296  21.272  0.00  0.00    +0.000 C 
BRANCH  10  11
ATOM     11  O   UNL     1       2.406   3.311  22.199  0.00  0.00    +0.000 OA
ATOM     12  H   UNL     1       1.505   3.108  22.501  0.00  0.00    +0.000 HD
ENDBRANCH  10  11
ENDBRANCH   3  10
BRANCH   7  13
ATOM     13  O   UNL     1       4.700   4.739  16.491  0.00  0.00    +0.000 OA
BRANCH  13  14
ATOM     14  C   UNL     1       5.460   3.972  15.568  0.00  0.00    +0.000 C 
BRANCH  14  15
ATOM     15  C   UNL     1       6.796   4.656  15.250  0.00  0.00    +0.000 C 
ATOM     16  N   UNL     1       7.771   4.561  16.200  0.00  0.00    +0.000 N 
ATOM     17  O   UNL     1       7.002   5.278  14.205  0.00  0.00    +0.000 OA
ATOM     18  H   UNL     1       7.627   3.994  17.029  0.00  0.00    +0.000 HD
ATOM     19  H   UNL     1       8.672   4.980  16.023  0.00  0.00    +0.000 HD
ENDBRANCH  14  15
ENDBRANCH  13  14
ENDBRANCH   7  13
TORSDOF 6
ENDMDL
MODEL 3
REMARK VINA RESULT:      -5.8      3.248      6.106
REMARK  Name = 
REMARK  7 active torsions:
REMARK  status: ('A' for Active; 'I' for Inactive)
REMARK    1  A    between atoms: C_1  and  O_2
REMARK    2  A    between atoms: O_2  and  C_3
REMARK    3  A    between atoms: C_5  and  C_6
REMARK    4  A    between atoms: C_6  and  O_7
REMARK    5  A    between atoms: C_11  and  O_12
REMARK    6  A    between atoms: O_12  and  C_13
REMARK    7  A    between atoms: C_13  and  C_14
REMARK                            x       y       z     vdW  Elec       q    Type
REMARK                         _______ _______ _______ _____ _____    ______ ____
ROOT
ATOM      1  C   UNL     1       3.585   4.054  17.774  0.00  0.00    +0.000 A 
ATOM      2  C   UNL     1       4.533   4.131  16.743  0.00  0.00    +0.000 A 
ATOM      3  C   UNL     1       5.767   4.792  16.897  0.00  0.00    +0.000 A 
ATOM      4  C   UNL     1       6.052   5.362  18.140  0.00  0.00    +0.000 A 
ATOM      5 BR   UNL     1       7.663   6.300  18.496  0.00  0.00    +0.000 Br
ATOM      6  C   UNL     1       5.135   5.249  19.192  0.00  0.00    +0.000 A 
ATOM      7  C   UNL     1       3.912   4.580  19.030  0.00  0.00    +0.000 A 
ENDROOT
BRANCH   1   9
ATOM      8  C   UNL     1       2.376   2.020  17.673  0.00  0.00    +0.000 C 
ATOM      9  O   UNL     1       2.371   3.447  17.587  0.00  0.00    +0.000 OA
ENDBRANCH   1   9
BRANCH   3  10
ATOM     10  C   UNL     1       6.658   4.884  15.684  0.00  0.00    +0.000 C 
BRANCH  10  11
ATOM     11  O   UNL     1       6.435   3.778  14.814  0.00  0.00    +0.000 OA
ATOM     12  H   UNL     1       5.492   3.550  14.871  0.00  0.00    +0.000 HD
ENDBRANCH  10  11
ENDBRANCH   3  10
BRANCH   7  13
ATOM     13  O   UNL     1       3.146   4.580  20.165  0.00  0.00    +0.000 OA
BRANCH  13  14
ATOM     14  C   UNL     1       3.051   3.368  20.900  0.00  0.00    +0.000 C 
BRANCH  14  15
ATOM     15  C   UNL     1       1.592   3.051  21.254  0.00  0.00    +0.000 C 
ATOM     16  N   UNL     1       0.646   3.446  20.353  0.00  0.00    +0.000 N 
ATOM     17  O   UNL     1       1.260   2.484  22.298  0.00  0.00    +0.000 OA
ATOM     18  H   UNL     1       0.920   3.851  19.464  0.00  0.00    +0.000 HD
ATOM     19  H   UNL     1      -0.324   3.239  20.539  0.00  0.00    +0.000 HD
ENDBRANCH  14  15
ENDBRANCH  13  14
ENDBRANCH   7  13
TORSDOF 6
ENDMDL
MODEL 4
REMARK VINA RESULT:      -5.8      2.091      3.223
REMARK  Name = 
REMARK  7 active torsions:
REMARK  status: ('A' for Active; 'I' for Inactive)
REMARK    1  A    between atoms: C_1  and  O_2
REMARK    2  A    between atoms: O_2  and  C_3
REMARK    3  A    between atoms: C_5  and  C_6
REMARK    4  A    between atoms: C_6  and  O_7
REMARK    5  A    between atoms: C_11  and  O_12
REMARK    6  A    between atoms: O_12  and  C_13
REMARK    7  A    between atoms: C_13  and  C_14
REMARK                            x       y       z     vdW  Elec       q    Type
REMARK                         _______ _______ _______ _____ _____    ______ ____
ROOT
ATOM      1  C   UNL     1       5.121   4.031  16.939  0.00  0.00    +0.000 A 
ATOM      2  C   UNL     1       3.725   3.960  16.824  0.00  0.00    +0.000 A 
ATOM      3  C   UNL     1       2.860   4.280  17.889  0.00  0.00    +0.000 A 
ATOM      4  C   UNL     1       3.434   4.709  19.089  0.00  0.00    +0.000 A 
ATOM      5 BR   UNL     1       2.402   5.157  20.619  0.00  0.00    +0.000 Br
ATOM      6  C   UNL     1       4.824   4.830  19.201  0.00  0.00    +0.000 A 
ATOM      7  C   UNL     1       5.675   4.518  18.130  0.00  0.00    +0.000 A 
ENDROOT
BRANCH   1   9
ATOM      8  C   UNL     1       5.581   4.182  14.621  0.00  0.00    +0.000 C 
ATOM      9  O   UNL     1       5.945   3.669  15.905  0.00  0.00    +0.000 OA
ENDBRANCH   1   9
BRANCH   3  10
ATOM     10  C   UNL     1       1.384   4.074  17.667  0.00  0.00    +0.000 C 
BRANCH  10  11
ATOM     11  O   UNL     1       0.972   2.810  18.178  0.00  0.00    +0.000 OA
ATOM     12  H   UNL     1       0.158   2.559  17.709  0.00  0.00    +0.000 HD
ENDBRANCH  10  11
ENDBRANCH   3  10
BRANCH   7  13
ATOM     13  O   UNL     1       7.000   4.691  18.430  0.00  0.00    +0.000 OA
BRANCH  13  14
ATOM     14  C   UNL     1       7.461   6.016  18.650  0.00  0.00    +0.000 C 
BRANCH  14  15
ATOM     15  C   UNL     1       7.486   6.816  17.341  0.00  0.00    +0.000 C 
ATOM     16  N   UNL     1       7.202   8.148  17.434  0.00  0.00    +0.000 N 
ATOM     17  O   UNL     1       7.732   6.307  16.244  0.00  0.00    +0.000 OA
ATOM     18  H   UNL     1       7.067   8.582  18.341  0.00  0.00    +0.000 HD
ATOM     19  H   UNL     1       7.227   8.715  16.599  0.00  0.00    +0.000 HD
ENDBRANCH  14  15
ENDBRANCH  13  14
ENDBRANCH   7  13
TORSDOF 6
ENDMDL
MODEL 5
REMARK VINA RESULT:      -5.8      3.281      5.930
REMARK  Name = 
REMARK  7 active torsions:
REMARK  status: ('A' for Active; 'I' for Inactive)
REMARK    1  A    between atoms: C_1  and  O_2
REMARK    2  A    between atoms: O_2  and  C_3
REMARK    3  A    between atoms: C_5  and  C_6
REMARK    4  A    between atoms: C_6  and  O_7
REMARK    5  A    between atoms: C_11  and  O_12
REMARK    6  A    between atoms: O_12  and  C_13
REMARK    7  A    between atoms: C_13  and  C_14
REMARK                            x       y       z     vdW  Elec       q    Type
REMARK                         _______ _______ _______ _____ _____    ______ ____
ROOT
ATOM      1  C   UNL     1       3.259   4.159  17.356  0.00  0.00    +0.000 A 
ATOM      2  C   UNL     1       4.403   3.891  16.590  0.00  0.00    +0.000 A 
ATOM      3  C   UNL     1       5.518   4.752  16.567  0.00  0.00    +0.000 A 
ATOM      4  C   UNL     1       5.474   5.898  17.365  0.00  0.00    +0.000 A 
ATOM      5 BR   UNL     1       6.888   7.163  17.426  0.00  0.00    +0.000 Br
ATOM      6  C   UNL     1       4.358   6.151  18.171  0.00  0.00    +0.000 A 
ATOM      7  C   UNL     1       3.257   5.281  18.193  0.00  0.00    +0.000 A 
ENDROOT
BRANCH   1   9
ATOM      8  C   UNL     1       2.392   2.000  17.796  0.00  0.00    +0.000 C 
ATOM      9  O   UNL     1       2.167   3.331  17.327  0.00  0.00    +0.000 OA
ENDBRANCH   1   9
BRANCH   3  10
ATOM     10  C   UNL     1       6.646   4.397  15.632  0.00  0.00    +0.000 C 
BRANCH  10  11
ATOM     11  O   UNL     1       6.238   3.387  14.714  0.00  0.00    +0.000 OA
ATOM     12  H   UNL     1       5.749   3.826  13.998  0.00  0.00    +0.000 HD
ENDBRANCH  10  11
ENDBRANCH   3  10
BRANCH   7  13
ATOM     13  O   UNL     1       2.261   5.699  19.034  0.00  0.00    +0.000 OA
BRANCH  13  14
ATOM     14  C   UNL     1       2.423   5.458  20.425  0.00  0.00    +0.000 C 
BRANCH  14  15
ATOM     15  C   UNL     1       1.776   4.129  20.833  0.00  0.00    +0.000 C 
ATOM     16  N   UNL     1       0.605   3.803  20.212  0.00  0.00    +0.000 N 
ATOM     17  O   UNL     1       2.258   3.379  21.686  0.00  0.00    +0.000 OA
ATOM     18  H   UNL     1       0.242   4.384  19.463  0.00  0.00    +0.000 HD
ATOM     19  H   UNL     1       0.157   2.927  20.438  0.00  0.00    +0.000 HD
ENDBRANCH  14  15
ENDBRANCH  13  14
ENDBRANCH   7  13
TORSDOF 6
ENDMDL
MODEL 6
REMARK VINA RESULT:      -5.8      3.401      5.763
REMARK  Name = 
REMARK  7 active torsions:
REMARK  status: ('A' for Active; 'I' for Inactive)
REMARK    1  A    between atoms: C_1  and  O_2
REMARK    2  A    between atoms: O_2  and  C_3
REMARK    3  A    between atoms: C_5  and  C_6
REMARK    4  A    between atoms: C_6  and  O_7
REMARK    5  A    between atoms: C_11  and  O_12
REMARK    6  A    between atoms: O_12  and  C_13
REMARK    7  A    between atoms: C_13  and  C_14
REMARK                            x       y       z     vdW  Elec       q    Type
REMARK                         _______ _______ _______ _____ _____    ______ ____
ROOT
ATOM      1  C   UNL     1       3.479   4.197  17.174  0.00  0.00    +0.000 A 
ATOM      2  C   UNL     1       4.753   3.880  16.678  0.00  0.00    +0.000 A 
ATOM      3  C   UNL     1       5.833   4.782  16.734  0.00  0.00    +0.000 A 
ATOM      4  C   UNL     1       5.616   6.024  17.335  0.00  0.00    +0.000 A 
ATOM      5 BR   UNL     1       6.966   7.352  17.469  0.00  0.00    +0.000 Br
ATOM      6  C   UNL     1       4.363   6.334  17.878  0.00  0.00    +0.000 A 
ATOM      7  C   UNL     1       3.297   5.424  17.825  0.00  0.00    +0.000 A 
ENDROOT
BRANCH   1   9
ATOM      8  C   UNL     1       2.471   2.201  17.952  0.00  0.00    +0.000 C 
ATOM      9  O   UNL     1       2.430   3.322  17.067  0.00  0.00    +0.000 OA
ENDBRANCH   1   9
BRANCH   3  10
ATOM     10  C   UNL     1       7.125   4.355  16.084  0.00  0.00    +0.000 C 
BRANCH  10  11
ATOM     11  O   UNL     1       8.112   4.068  17.070  0.00  0.00    +0.000 OA
ATOM     12  H   UNL     1       8.813   4.735  16.981  0.00  0.00    +0.000 HD
ENDBRANCH  10  11
ENDBRANCH   3  10
BRANCH   7  13
ATOM     13  O   UNL     1       2.151   5.906  18.398  0.00  0.00    +0.000 OA
BRANCH  13  14
ATOM     14  C   UNL     1       2.154   6.124  19.802  0.00  0.00    +0.000 C 
BRANCH  14  15
ATOM     15  C   UNL     1       1.735   4.857  20.558  0.00  0.00    +0.000 C 
ATOM     16  N   UNL     1       2.551   4.455  21.576  0.00  0.00    +0.000 N 
ATOM     17  O   UNL     1       0.725   4.207  20.275  0.00  0.00    +0.000 OA
ATOM     18  H   UNL     1       3.343   5.025  21.854  0.00  0.00    +0.000 HD
ATOM     19  H   UNL     1       2.300   3.637  22.112  0.00  0.00    +0.000 HD
ENDBRANCH  14  15
ENDBRANCH  13  14
ENDBRANCH   7  13
TORSDOF 6
ENDMDL
MODEL 7
REMARK VINA RESULT:      -5.8      2.846      3.426
REMARK  Name = 
REMARK  7 active torsions:
REMARK  status: ('A' for Active; 'I' for Inactive)
REMARK    1  A    between atoms: C_1  and  O_2
REMARK    2  A    between atoms: O_2  and  C_3
REMARK    3  A    between atoms: C_5  and  C_6
REMARK    4  A    between atoms: C_6  and  O_7
REMARK    5  A    between atoms: C_11  and  O_12
REMARK    6  A    between atoms: O_12  and  C_13
REMARK    7  A    between atoms: C_13  and  C_14
REMARK                            x       y       z     vdW  Elec       q    Type
REMARK                         _______ _______ _______ _____ _____    ______ ____
ROOT
ATOM      1  C   UNL     1       4.271   4.841  19.101  0.00  0.00    +0.000 A 
ATOM      2  C   UNL     1       3.234   5.288  19.932  0.00  0.00    +0.000 A 
ATOM      3  C   UNL     1       2.469   6.434  19.639  0.00  0.00    +0.000 A 
ATOM      4  C   UNL     1       2.751   7.122  18.457  0.00  0.00    +0.000 A 
ATOM      5 BR   UNL     1       1.822   8.693  17.934  0.00  0.00    +0.000 Br
ATOM      6  C   UNL     1       3.751   6.658  17.594  0.00  0.00    +0.000 A 
ATOM      7  C   UNL     1       4.500   5.509  17.891  0.00  0.00    +0.000 A 
ENDROOT
BRANCH   1   9
ATOM      8  C   UNL     1       4.314   2.528  19.607  0.00  0.00    +0.000 C 
ATOM      9  O   UNL     1       5.033   3.750  19.429  0.00  0.00    +0.000 OA
ENDBRANCH   1   9
BRANCH   3  10
ATOM     10  C   UNL     1       1.445   6.862  20.660  0.00  0.00    +0.000 C 
BRANCH  10  11
ATOM     11  O   UNL     1       1.943   7.941  21.446  0.00  0.00    +0.000 OA
ATOM     12  H   UNL     1       2.005   7.626  22.364  0.00  0.00    +0.000 HD
ENDBRANCH  10  11
ENDBRANCH   3  10
BRANCH   7  13
ATOM     13  O   UNL     1       5.436   5.216  16.936  0.00  0.00    +0.000 OA
BRANCH  13  14
ATOM     14  C   UNL     1       6.604   6.022  16.884  0.00  0.00    +0.000 C 
BRANCH  14  15
ATOM     15  C   UNL     1       7.575   5.660  18.015  0.00  0.00    +0.000 C 
ATOM     16  N   UNL     1       7.874   4.336  18.162  0.00  0.00    +0.000 N 
ATOM     17  O   UNL     1       8.065   6.497  18.777  0.00  0.00    +0.000 OA
ATOM     18  H   UNL     1       7.526   3.654  17.496  0.00  0.00    +0.000 HD
ATOM     19  H   UNL     1       8.524   4.056  18.882  0.00  0.00    +0.000 HD
ENDBRANCH  14  15
ENDBRANCH  13  14
ENDBRANCH   7  13
TORSDOF 6
ENDMDL
MODEL 8
REMARK VINA RESULT:      -5.7      3.451      5.405
REMARK  Name = 
REMARK  7 active torsions:
REMARK  status: ('A' for Active; 'I' for Inactive)
REMARK    1  A    between atoms: C_1  and  O_2
REMARK    2  A    between atoms: O_2  and  C_3
REMARK    3  A    between atoms: C_5  and  C_6
REMARK    4  A    between atoms: C_6  and  O_7
REMARK    5  A    between atoms: C_11  and  O_12
REMARK    6  A    between atoms: O_12  and  C_13
REMARK    7  A    between atoms: C_13  and  C_14
REMARK                            x       y       z     vdW  Elec       q    Type
REMARK                         _______ _______ _______ _____ _____    ______ ____
ROOT
ATOM      1  C   UNL     1       4.156   4.955  18.579  0.00  0.00    +0.000 A 
ATOM      2  C   UNL     1       5.357   5.680  18.564  0.00  0.00    +0.000 A 
ATOM      3  C   UNL     1       6.239   5.661  17.466  0.00  0.00    +0.000 A 
ATOM      4  C   UNL     1       5.873   4.908  16.347  0.00  0.00    +0.000 A 
ATOM      5 BR   UNL     1       6.964   4.769  14.800  0.00  0.00    +0.000 Br
ATOM      6  C   UNL     1       4.654   4.220  16.331  0.00  0.00    +0.000 A 
ATOM      7  C   UNL     1       3.779   4.253  17.427  0.00  0.00    +0.000 A 
ENDROOT
BRANCH   1   9
ATOM      8  C   UNL     1       2.425   6.047  19.769  0.00  0.00    +0.000 C 
ATOM      9  O   UNL     1       3.336   4.950  19.677  0.00  0.00    +0.000 OA
ENDBRANCH   1   9
BRANCH   3  10
ATOM     10  C   UNL     1       7.540   6.409  17.611  0.00  0.00    +0.000 C 
BRANCH  10  11
ATOM     11  O   UNL     1       7.454   7.689  16.992  0.00  0.00    +0.000 OA
ATOM     12  H   UNL     1       6.853   8.231  17.530  0.00  0.00    +0.000 HD
ENDBRANCH  10  11
ENDBRANCH   3  10
BRANCH   7  13
ATOM     13  O   UNL     1       2.643   3.515  17.230  0.00  0.00    +0.000 OA
BRANCH  13  14
ATOM     14  C   UNL     1       2.548   2.258  17.886  0.00  0.00    +0.000 C 
BRANCH  14  15
ATOM     15  C   UNL     1       1.373   2.238  18.872  0.00  0.00    +0.000 C 
ATOM     16  N   UNL     1       1.683   2.377  20.193  0.00  0.00    +0.000 N 
ATOM     17  O   UNL     1       0.200   2.090  18.519  0.00  0.00    +0.000 OA
ATOM     18  H   UNL     1       2.638   2.567  20.480  0.00  0.00    +0.000 HD
ATOM     19  H   UNL     1       0.937   2.390  20.873  0.00  0.00    +0.000 HD
ENDBRANCH  14  15
ENDBRANCH  13  14
ENDBRANCH   7  13
TORSDOF 6
ENDMDL
MODEL 9
REMARK VINA RESULT:      -5.7      2.678      2.856
REMARK  Name = 
REMARK  7 active torsions:
REMARK  status: ('A' for Active; 'I' for Inactive)
REMARK    1  A    between atoms: C_1  and  O_2
REMARK    2  A    between atoms: O_2  and  C_3
REMARK    3  A    between atoms: C_5  and  C_6
REMARK    4  A    between atoms: C_6  and  O_7
REMARK    5  A    between atoms: C_11  and  O_12
REMARK    6  A    between atoms: O_12  and  C_13
REMARK    7  A    between atoms: C_13  and  C_14
REMARK                            x       y       z     vdW  Elec       q    Type
REMARK                         _______ _______ _______ _____ _____    ______ ____
ROOT
ATOM      1  C   UNL     1       5.692   6.354  16.872  0.00  0.00    +0.000 A 
ATOM      2  C   UNL     1       4.687   7.026  17.584  0.00  0.00    +0.000 A 
ATOM      3  C   UNL     1       3.474   6.410  17.946  0.00  0.00    +0.000 A 
ATOM      4  C   UNL     1       3.293   5.069  17.597  0.00  0.00    +0.000 A 
ATOM      5 BR   UNL     1       1.707   4.107  17.997  0.00  0.00    +0.000 Br
ATOM      6  C   UNL     1       4.308   4.373  16.929  0.00  0.00    +0.000 A 
ATOM      7  C   UNL     1       5.517   4.995  16.582  0.00  0.00    +0.000 A 
ENDROOT
BRANCH   1   9
ATOM      8  C   UNL     1       7.607   7.571  17.548  0.00  0.00    +0.000 C 
ATOM      9  O   UNL     1       6.845   6.988  16.489  0.00  0.00    +0.000 OA
ENDBRANCH   1   9
BRANCH   3  10
ATOM     10  C   UNL     1       2.439   7.268  18.629  0.00  0.00    +0.000 C 
BRANCH  10  11
ATOM     11  O   UNL     1       1.980   8.292  17.751  0.00  0.00    +0.000 OA
ATOM     12  H   UNL     1       1.406   8.882  18.269  0.00  0.00    +0.000 HD
ENDBRANCH  10  11
ENDBRANCH   3  10
BRANCH   7  13
ATOM     13  O   UNL     1       6.382   4.159  15.928  0.00  0.00    +0.000 OA
BRANCH  13  14
ATOM     14  C   UNL     1       6.051   3.770  14.602  0.00  0.00    +0.000 C 
BRANCH  14  15
ATOM     15  C   UNL     1       6.961   4.464  13.581  0.00  0.00    +0.000 C 
ATOM     16  N   UNL     1       7.771   5.453  14.058  0.00  0.00    +0.000 N 
ATOM     17  O   UNL     1       6.972   4.174  12.381  0.00  0.00    +0.000 OA
ATOM     18  H   UNL     1       7.814   5.647  15.053  0.00  0.00    +0.000 HD
ATOM     19  H   UNL     1       8.400   5.922  13.423  0.00  0.00    +0.000 HD
ENDBRANCH  14  15
ENDBRANCH  13  14
ENDBRANCH   7  13
TORSDOF 6
ENDMDL
