MODEL 1
REMARK VINA RESULT:      -7.9      0.000      0.000
REMARK  Name = 
REMARK  4 active torsions:
REMARK  status: ('A' for Active; 'I' for Inactive)
REMARK    1  A    between atoms: C_1  and  C_2
REMARK    2  A    between atoms: C_6  and  C_7
REMARK    3  A    between atoms: N_9  and  C_10
REMARK    4  A    between atoms: C_13  and  N_14
REMARK                            x       y       z     vdW  Elec       q    Type
REMARK                         _______ _______ _______ _____ _____    ______ ____
ROOT
ATOM      1  C   UNL     1       0.665  10.347  20.012  0.00  0.00    +0.000 A 
ATOM      2  C   UNL     1       1.071   9.976  18.736  0.00  0.00    +0.000 A 
ATOM      3  C   UNL     1       1.671   8.734  18.506  0.00  0.00    +0.000 A 
ATOM      4  C   UNL     1       1.903   7.813  19.537  0.00  0.00    +0.000 A 
ATOM      5  C   UNL     1       1.500   8.191  20.825  0.00  0.00    +0.000 A 
ATOM      6  C   UNL     1       0.896   9.437  21.051  0.00  0.00    +0.000 A 
ATOM      7  F   UNL     1       0.498   9.744  22.297  0.00  0.00    +0.000 F 
ENDROOT
BRANCH   4   8
ATOM      8  N   UNL     1       2.486   6.541  19.256  0.00  0.00    +0.000 N 
ATOM      9  C   UNL     1       3.438   6.326  18.282  0.00  0.00    +0.000 C 
ATOM     10  O   UNL     1       4.159   7.076  17.650  0.00  0.00    +0.000 OA
ATOM     11  C   UNL     1       3.547   4.889  18.111  0.00  0.00    +0.000 A 
ATOM     12  C   UNL     1       4.046   4.152  17.055  0.00  0.00    +0.000 A 
ATOM     13  C   UNL     1       4.030   2.764  17.193  0.00  0.00    +0.000 A 
ATOM     14  C   UNL     1       3.598   2.179  18.397  0.00  0.00    +0.000 A 
ATOM     15  F   UNL     1       3.688   0.851  18.539  0.00  0.00    +0.000 F 
ATOM     16  C   UNL     1       3.032   2.938  19.419  0.00  0.00    +0.000 A 
ATOM     17  C   UNL     1       2.946   4.298  19.198  0.00  0.00    +0.000 A 
ATOM     18  C   UNL     1       2.141   5.338  19.844  0.00  0.00    +0.000 C 
ATOM     19  O   UNL     1       1.281   5.053  20.657  0.00  0.00    +0.000 OA
ENDBRANCH   4   8
BRANCH   1  22
ATOM     20  C   UNL     1       0.678  12.689  20.850  0.00  0.00    +0.000 C 
ATOM     21  O   UNL     1       1.865  12.774  21.121  0.00  0.00    +0.000 OA
ATOM     22  N   UNL     1       0.054  11.590  20.299  0.00  0.00    +0.000 N 
ATOM     23  H   UNL     1      -0.916  11.716  20.025  0.00  0.00    +0.000 HD
BRANCH  20  29
ATOM     24  C   UNL     1      -1.425  12.869  23.224  0.00  0.00    +0.000 C 
ATOM     25  C   UNL     1      -1.139  13.873  22.158  0.00  0.00    +0.000 A 
ATOM     26  S   UNL     1      -2.025  15.345  22.095  0.00  0.00    +0.000 S 
ATOM     27  C   UNL     1      -1.131  15.811  20.713  0.00  0.00    +0.000 A 
ATOM     28  N   UNL     1      -0.214  14.962  20.298  0.00  0.00    +0.000 NA
ATOM     29  C   UNL     1      -0.235  13.822  21.112  0.00  0.00    +0.000 A 
ENDBRANCH  20  29
ENDBRANCH   1  22
TORSDOF 3
ENDMDL
MODEL 2
REMARK VINA RESULT:      -7.9      0.760      1.211
REMARK  Name = 
REMARK  4 active torsions:
REMARK  status: ('A' for Active; 'I' for Inactive)
REMARK    1  A    between atoms: C_1  and  C_2
REMARK    2  A    between atoms: C_6  and  C_7
REMARK    3  A    between atoms: N_9  and  C_10
REMARK    4  A    between atoms: C_13  and  N_14
REMARK                            x       y       z     vdW  Elec       q    Type
REMARK                         _______ _______ _______ _____ _____    ______ ____
ROOT
ATOM      1  C   UNL     1       0.662  10.344  20.171  0.00  0.00    +0.000 A 
ATOM      2  C   UNL     1       1.053   9.998  18.883  0.00  0.00    +0.000 A 
ATOM      3  C   UNL     1       1.652   8.762  18.622  0.00  0.00    +0.000 A 
ATOM      4  C   UNL     1       1.897   7.821  19.631  0.00  0.00    +0.000 A 
ATOM      5  C   UNL     1       1.508   8.172  20.931  0.00  0.00    +0.000 A 
ATOM      6  C   UNL     1       0.905   9.414  21.189  0.00  0.00    +0.000 A 
ATOM      7  F   UNL     1       0.521   9.695  22.445  0.00  0.00    +0.000 F 
ENDROOT
BRANCH   4   8
ATOM      8  N   UNL     1       2.477   6.555  19.319  0.00  0.00    +0.000 N 
ATOM      9  C   UNL     1       3.433   6.365  18.343  0.00  0.00    +0.000 C 
ATOM     10  O   UNL     1       4.159   7.129  17.735  0.00  0.00    +0.000 OA
ATOM     11  C   UNL     1       3.538   4.932  18.134  0.00  0.00    +0.000 A 
ATOM     12  C   UNL     1       4.040   4.222  17.061  0.00  0.00    +0.000 A 
ATOM     13  C   UNL     1       4.020   2.832  17.161  0.00  0.00    +0.000 A 
ATOM     14  C   UNL     1       3.581   2.216  18.346  0.00  0.00    +0.000 A 
ATOM     15  F   UNL     1       3.667   0.884  18.453  0.00  0.00    +0.000 F 
ATOM     16  C   UNL     1       3.013   2.948  19.386  0.00  0.00    +0.000 A 
ATOM     17  C   UNL     1       2.931   4.314  19.202  0.00  0.00    +0.000 A 
ATOM     18  C   UNL     1       2.126   5.338  19.872  0.00  0.00    +0.000 C 
ATOM     19  O   UNL     1       1.262   5.033  20.674  0.00  0.00    +0.000 OA
ENDBRANCH   4   8
BRANCH   1  22
ATOM     20  C   UNL     1       0.702  12.705  20.953  0.00  0.00    +0.000 C 
ATOM     21  O   UNL     1       1.908  12.821  21.106  0.00  0.00    +0.000 OA
ATOM     22  N   UNL     1       0.053  11.580  20.489  0.00  0.00    +0.000 N 
ATOM     23  H   UNL     1      -0.942  11.679  20.309  0.00  0.00    +0.000 HD
BRANCH  20  29
ATOM     24  C   UNL     1      -0.202  15.002  18.954  0.00  0.00    +0.000 C 
ATOM     25  C   UNL     1      -0.586  14.810  20.383  0.00  0.00    +0.000 A 
ATOM     26  S   UNL     1      -1.627  15.936  21.159  0.00  0.00    +0.000 S 
ATOM     27  C   UNL     1      -1.520  15.025  22.603  0.00  0.00    +0.000 A 
ATOM     28  N   UNL     1      -0.777  13.938  22.552  0.00  0.00    +0.000 NA
ATOM     29  C   UNL     1      -0.207  13.824  21.278  0.00  0.00    +0.000 A 
ENDBRANCH  20  29
ENDBRANCH   1  22
TORSDOF 3
ENDMDL
MODEL 3
REMARK VINA RESULT:      -7.9      1.157      1.716
REMARK  Name = 
REMARK  4 active torsions:
REMARK  status: ('A' for Active; 'I' for Inactive)
REMARK    1  A    between atoms: C_1  and  C_2
REMARK    2  A    between atoms: C_6  and  C_7
REMARK    3  A    between atoms: N_9  and  C_10
REMARK    4  A    between atoms: C_13  and  N_14
REMARK                            x       y       z     vdW  Elec       q    Type
REMARK                         _______ _______ _______ _____ _____    ______ ____
ROOT
ATOM      1  C   UNL     1       0.714  10.364  20.523  0.00  0.00    +0.000 A 
ATOM      2  C   UNL     1       0.945   9.366  21.462  0.00  0.00    +0.000 A 
ATOM      3  C   UNL     1       1.490   8.135  21.083  0.00  0.00    +0.000 A 
ATOM      4  C   UNL     1       1.819   7.841  19.754  0.00  0.00    +0.000 A 
ATOM      5  C   UNL     1       1.581   8.844  18.805  0.00  0.00    +0.000 A 
ATOM      6  C   UNL     1       1.035  10.080  19.190  0.00  0.00    +0.000 A 
ATOM      7  F   UNL     1       0.852  11.023  18.252  0.00  0.00    +0.000 F 
ENDROOT
BRANCH   4   8
ATOM      8  N   UNL     1       2.408   6.585  19.412  0.00  0.00    +0.000 N 
ATOM      9  C   UNL     1       3.352   6.420  18.421  0.00  0.00    +0.000 C 
ATOM     10  O   UNL     1       4.063   7.202  17.817  0.00  0.00    +0.000 OA
ATOM     11  C   UNL     1       3.468   4.992  18.186  0.00  0.00    +0.000 A 
ATOM     12  C   UNL     1       3.962   4.306  17.095  0.00  0.00    +0.000 A 
ATOM     13  C   UNL     1       3.956   2.913  17.172  0.00  0.00    +0.000 A 
ATOM     14  C   UNL     1       3.538   2.273  18.352  0.00  0.00    +0.000 A 
ATOM     15  F   UNL     1       3.638   0.941  18.434  0.00  0.00    +0.000 F 
ATOM     16  C   UNL     1       2.976   2.983  19.411  0.00  0.00    +0.000 A 
ATOM     17  C   UNL     1       2.880   4.351  19.251  0.00  0.00    +0.000 A 
ATOM     18  C   UNL     1       2.074   5.356  19.949  0.00  0.00    +0.000 C 
ATOM     19  O   UNL     1       1.224   5.029  20.756  0.00  0.00    +0.000 OA
ENDBRANCH   4   8
BRANCH   1  22
ATOM     20  C   UNL     1       0.880  12.768  21.140  0.00  0.00    +0.000 C 
ATOM     21  O   UNL     1       2.096  12.878  21.097  0.00  0.00    +0.000 OA
ATOM     22  N   UNL     1       0.165  11.625  20.853  0.00  0.00    +0.000 N 
ATOM     23  H   UNL     1      -0.845  11.724  20.823  0.00  0.00    +0.000 HD
BRANCH  20  29
ATOM     24  C   UNL     1      -0.320  14.945  19.164  0.00  0.00    +0.000 C 
ATOM     25  C   UNL     1      -0.477  14.847  20.644  0.00  0.00    +0.000 A 
ATOM     26  S   UNL     1      -1.382  16.033  21.500  0.00  0.00    +0.000 S 
ATOM     27  C   UNL     1      -1.052  15.212  22.964  0.00  0.00    +0.000 A 
ATOM     28  N   UNL     1      -0.328  14.116  22.868  0.00  0.00    +0.000 NA
ATOM     29  C   UNL     1       0.036  13.916  21.530  0.00  0.00    +0.000 A 
ENDBRANCH  20  29
ENDBRANCH   1  22
TORSDOF 3
ENDMDL
MODEL 4
REMARK VINA RESULT:      -7.8      1.679      2.524
REMARK  Name = 
REMARK  4 active torsions:
REMARK  status: ('A' for Active; 'I' for Inactive)
REMARK    1  A    between atoms: C_1  and  C_2
REMARK    2  A    between atoms: C_6  and  C_7
REMARK    3  A    between atoms: N_9  and  C_10
REMARK    4  A    between atoms: C_13  and  N_14
REMARK                            x       y       z     vdW  Elec       q    Type
REMARK                         _______ _______ _______ _____ _____    ______ ____
ROOT
ATOM      1  C   UNL     1      -0.040  10.523  21.308  0.00  0.00    +0.000 A 
ATOM      2  C   UNL     1       0.081  10.408  19.929  0.00  0.00    +0.000 A 
ATOM      3  C   UNL     1       0.797   9.352  19.355  0.00  0.00    +0.000 A 
ATOM      4  C   UNL     1       1.431   8.372  20.130  0.00  0.00    +0.000 A 
ATOM      5  C   UNL     1       1.315   8.491  21.522  0.00  0.00    +0.000 A 
ATOM      6  C   UNL     1       0.594   9.552  22.093  0.00  0.00    +0.000 A 
ATOM      7  F   UNL     1       0.483   9.609  23.430  0.00  0.00    +0.000 F 
ENDROOT
BRANCH   4   8
ATOM      8  N   UNL     1       2.122   7.289  19.507  0.00  0.00    +0.000 N 
ATOM      9  C   UNL     1       2.172   6.010  20.018  0.00  0.00    +0.000 C 
ATOM     10  O   UNL     1       1.522   5.433  20.871  0.00  0.00    +0.000 OA
ATOM     11  C   UNL     1       3.195   5.299  19.272  0.00  0.00    +0.000 A 
ATOM     12  C   UNL     1       3.900   4.156  19.593  0.00  0.00    +0.000 A 
ATOM     13  C   UNL     1       4.821   3.699  18.650  0.00  0.00    +0.000 A 
ATOM     14  C   UNL     1       4.940   4.348  17.409  0.00  0.00    +0.000 A 
ATOM     15  F   UNL     1       5.758   3.829  16.485  0.00  0.00    +0.000 F 
ATOM     16  C   UNL     1       4.272   5.540  17.136  0.00  0.00    +0.000 A 
ATOM     17  C   UNL     1       3.464   6.033  18.141  0.00  0.00    +0.000 A 
ATOM     18  C   UNL     1       2.899   7.366  18.366  0.00  0.00    +0.000 C 
ATOM     19  O   UNL     1       3.220   8.311  17.668  0.00  0.00    +0.000 OA
ENDBRANCH   4   8
BRANCH   1  22
ATOM     20  C   UNL     1      -0.302  12.863  22.112  0.00  0.00    +0.000 C 
ATOM     21  O   UNL     1       0.755  13.312  21.697  0.00  0.00    +0.000 OA
ATOM     22  N   UNL     1      -0.751  11.571  21.938  0.00  0.00    +0.000 N 
ATOM     23  H   UNL     1      -1.702  11.382  22.242  0.00  0.00    +0.000 HD
BRANCH  20  29
ATOM     24  C   UNL     1      -3.251  13.652  21.235  0.00  0.00    +0.000 C 
ATOM     25  C   UNL     1      -2.514  14.041  22.473  0.00  0.00    +0.000 A 
ATOM     26  S   UNL     1      -3.253  15.074  23.632  0.00  0.00    +0.000 S 
ATOM     27  C   UNL     1      -1.838  14.991  24.591  0.00  0.00    +0.000 A 
ATOM     28  N   UNL     1      -0.859  14.245  24.123  0.00  0.00    +0.000 NA
ATOM     29  C   UNL     1      -1.231  13.717  22.880  0.00  0.00    +0.000 A 
ENDBRANCH  20  29
ENDBRANCH   1  22
TORSDOF 3
ENDMDL
MODEL 5
REMARK VINA RESULT:      -7.8      1.592      1.933
REMARK  Name = 
REMARK  4 active torsions:
REMARK  status: ('A' for Active; 'I' for Inactive)
REMARK    1  A    between atoms: C_1  and  C_2
REMARK    2  A    between atoms: C_6  and  C_7
REMARK    3  A    between atoms: N_9  and  C_10
REMARK    4  A    between atoms: C_13  and  N_14
REMARK                            x       y       z     vdW  Elec       q    Type
REMARK                         _______ _______ _______ _____ _____    ______ ____
ROOT
ATOM      1  C   UNL     1       0.652  10.270  21.031  0.00  0.00    +0.000 A 
ATOM      2  C   UNL     1       1.069   9.266  21.897  0.00  0.00    +0.000 A 
ATOM      3  C   UNL     1       1.626   8.081  21.406  0.00  0.00    +0.000 A 
ATOM      4  C   UNL     1       1.782   7.839  20.035  0.00  0.00    +0.000 A 
ATOM      5  C   UNL     1       1.356   8.849  19.162  0.00  0.00    +0.000 A 
ATOM      6  C   UNL     1       0.799  10.038  19.658  0.00  0.00    +0.000 A 
ATOM      7  F   UNL     1       0.432  10.991  18.785  0.00  0.00    +0.000 F 
ENDROOT
BRANCH   4   8
ATOM      8  N   UNL     1       2.389   6.631  19.575  0.00  0.00    +0.000 N 
ATOM      9  C   UNL     1       3.274   6.566  18.521  0.00  0.00    +0.000 C 
ATOM     10  O   UNL     1       3.921   7.411  17.929  0.00  0.00    +0.000 OA
ATOM     11  C   UNL     1       3.422   5.161  18.183  0.00  0.00    +0.000 A 
ATOM     12  C   UNL     1       3.869   4.566  17.021  0.00  0.00    +0.000 A 
ATOM     13  C   UNL     1       3.913   3.172  17.003  0.00  0.00    +0.000 A 
ATOM     14  C   UNL     1       3.591   2.442  18.161  0.00  0.00    +0.000 A 
ATOM     15  F   UNL     1       3.738   1.111  18.147  0.00  0.00    +0.000 F 
ATOM     16  C   UNL     1       3.073   3.060  19.298  0.00  0.00    +0.000 A 
ATOM     17  C   UNL     1       2.923   4.431  19.236  0.00  0.00    +0.000 A 
ATOM     18  C   UNL     1       2.130   5.358  20.047  0.00  0.00    +0.000 C 
ATOM     19  O   UNL     1       1.342   4.949  20.880  0.00  0.00    +0.000 OA
ENDBRANCH   4   8
BRANCH   1  22
ATOM     20  C   UNL     1      -0.843  11.624  22.487  0.00  0.00    +0.000 C 
ATOM     21  O   UNL     1      -1.267  10.722  23.193  0.00  0.00    +0.000 OA
ATOM     22  N   UNL     1       0.083  11.486  21.474  0.00  0.00    +0.000 N 
ATOM     23  H   UNL     1       0.420  12.348  21.056  0.00  0.00    +0.000 HD
BRANCH  20  29
ATOM     24  C   UNL     1      -3.131  13.041  20.800  0.00  0.00    +0.000 C 
ATOM     25  C   UNL     1      -2.323  13.600  21.924  0.00  0.00    +0.000 A 
ATOM     26  S   UNL     1      -2.559  15.224  22.436  0.00  0.00    +0.000 S 
ATOM     27  C   UNL     1      -1.343  15.015  23.621  0.00  0.00    +0.000 A 
ATOM     28  N   UNL     1      -0.780  13.826  23.675  0.00  0.00    +0.000 NA
ATOM     29  C   UNL     1      -1.320  13.010  22.673  0.00  0.00    +0.000 A 
ENDBRANCH  20  29
ENDBRANCH   1  22
TORSDOF 3
ENDMDL
MODEL 6
REMARK VINA RESULT:      -7.8      1.178      1.178
REMARK  Name = 
REMARK  4 active torsions:
REMARK  status: ('A' for Active; 'I' for Inactive)
REMARK    1  A    between atoms: C_1  and  C_2
REMARK    2  A    between atoms: C_6  and  C_7
REMARK    3  A    between atoms: N_9  and  C_10
REMARK    4  A    between atoms: C_13  and  N_14
REMARK                            x       y       z     vdW  Elec       q    Type
REMARK                         _______ _______ _______ _____ _____    ______ ____
ROOT
ATOM      1  C   UNL     1       0.729  10.304  19.963  0.00  0.00    +0.000 A 
ATOM      2  C   UNL     1       1.225   9.956  18.712  0.00  0.00    +0.000 A 
ATOM      3  C   UNL     1       1.817   8.708  18.495  0.00  0.00    +0.000 A 
ATOM      4  C   UNL     1       1.952   7.757  19.516  0.00  0.00    +0.000 A 
ATOM      5  C   UNL     1       1.458   8.110  20.779  0.00  0.00    +0.000 A 
ATOM      6  C   UNL     1       0.862   9.363  20.992  0.00  0.00    +0.000 A 
ATOM      7  F   UNL     1       0.376   9.647  22.212  0.00  0.00    +0.000 F 
ENDROOT
BRANCH   4   8
ATOM      8  N   UNL     1       2.530   6.480  19.247  0.00  0.00    +0.000 N 
ATOM      9  C   UNL     1       3.485   6.255  18.278  0.00  0.00    +0.000 C 
ATOM     10  O   UNL     1       4.212   6.997  17.644  0.00  0.00    +0.000 OA
ATOM     11  C   UNL     1       3.588   4.815  18.117  0.00  0.00    +0.000 A 
ATOM     12  C   UNL     1       4.088   4.069  17.069  0.00  0.00    +0.000 A 
ATOM     13  C   UNL     1       4.065   2.682  17.216  0.00  0.00    +0.000 A 
ATOM     14  C   UNL     1       3.626   2.108  18.422  0.00  0.00    +0.000 A 
ATOM     15  F   UNL     1       3.710   0.780  18.574  0.00  0.00    +0.000 F 
ATOM     16  C   UNL     1       3.059   2.877  19.437  0.00  0.00    +0.000 A 
ATOM     17  C   UNL     1       2.980   4.235  19.206  0.00  0.00    +0.000 A 
ATOM     18  C   UNL     1       2.177   5.283  19.841  0.00  0.00    +0.000 C 
ATOM     19  O   UNL     1       1.313   5.007  20.653  0.00  0.00    +0.000 OA
ENDBRANCH   4   8
BRANCH   1  22
ATOM     20  C   UNL     1      -1.124  11.955  19.806  0.00  0.00    +0.000 C 
ATOM     21  O   UNL     1      -1.916  11.273  19.173  0.00  0.00    +0.000 OA
ATOM     22  N   UNL     1       0.122  11.552  20.235  0.00  0.00    +0.000 N 
ATOM     23  H   UNL     1       0.614  12.194  20.849  0.00  0.00    +0.000 HD
BRANCH  20  29
ATOM     24  C   UNL     1      -3.343  12.833  21.902  0.00  0.00    +0.000 C 
ATOM     25  C   UNL     1      -2.431  13.697  21.097  0.00  0.00    +0.000 A 
ATOM     26  S   UNL     1      -2.528  15.410  21.222  0.00  0.00    +0.000 S 
ATOM     27  C   UNL     1      -1.267  15.552  20.075  0.00  0.00    +0.000 A 
ATOM     28  N   UNL     1      -0.768  14.425  19.612  0.00  0.00    +0.000 NA
ATOM     29  C   UNL     1      -1.460  13.345  20.176  0.00  0.00    +0.000 A 
ENDBRANCH  20  29
ENDBRANCH   1  22
TORSDOF 3
ENDMDL
MODEL 7
REMARK VINA RESULT:      -7.8      1.983      2.840
REMARK  Name = 
REMARK  4 active torsions:
REMARK  status: ('A' for Active; 'I' for Inactive)
REMARK    1  A    between atoms: C_1  and  C_2
REMARK    2  A    between atoms: C_6  and  C_7
REMARK    3  A    between atoms: N_9  and  C_10
REMARK    4  A    between atoms: C_13  and  N_14
REMARK                            x       y       z     vdW  Elec       q    Type
REMARK                         _______ _______ _______ _____ _____    ______ ____
ROOT
ATOM      1  C   UNL     1       0.379  10.644  21.260  0.00  0.00    +0.000 A 
ATOM      2  C   UNL     1       0.979   9.637  22.006  0.00  0.00    +0.000 A 
ATOM      3  C   UNL     1       1.553   8.525  21.381  0.00  0.00    +0.000 A 
ATOM      4  C   UNL     1       1.545   8.363  19.989  0.00  0.00    +0.000 A 
ATOM      5  C   UNL     1       0.933   9.376  19.237  0.00  0.00    +0.000 A 
ATOM      6  C   UNL     1       0.360  10.491  19.869  0.00  0.00    +0.000 A 
ATOM      7  F   UNL     1      -0.188  11.452  19.106  0.00  0.00    +0.000 F 
ENDROOT
BRANCH   4   8
ATOM      8  N   UNL     1       2.173   7.232  19.387  0.00  0.00    +0.000 N 
ATOM      9  C   UNL     1       2.155   5.962  19.924  0.00  0.00    +0.000 C 
ATOM     10  O   UNL     1       1.478   5.440  20.791  0.00  0.00    +0.000 OA
ATOM     11  C   UNL     1       3.135   5.182  19.190  0.00  0.00    +0.000 A 
ATOM     12  C   UNL     1       3.778   4.009  19.532  0.00  0.00    +0.000 A 
ATOM     13  C   UNL     1       4.669   3.483  18.597  0.00  0.00    +0.000 A 
ATOM     14  C   UNL     1       4.818   4.098  17.341  0.00  0.00    +0.000 A 
ATOM     15  F   UNL     1       5.603   3.517  16.426  0.00  0.00    +0.000 F 
ATOM     16  C   UNL     1       4.215   5.320  17.047  0.00  0.00    +0.000 A 
ATOM     17  C   UNL     1       3.439   5.877  18.043  0.00  0.00    +0.000 A 
ATOM     18  C   UNL     1       2.948   7.243  18.242  0.00  0.00    +0.000 C 
ATOM     19  O   UNL     1       3.317   8.154  17.524  0.00  0.00    +0.000 OA
ENDBRANCH   4   8
BRANCH   1  22
ATOM     20  C   UNL     1      -1.188  11.785  22.821  0.00  0.00    +0.000 C 
ATOM     21  O   UNL     1      -1.639  10.794  23.374  0.00  0.00    +0.000 OA
ATOM     22  N   UNL     1      -0.216  11.788  21.842  0.00  0.00    +0.000 N 
ATOM     23  H   UNL     1       0.136  12.699  21.563  0.00  0.00    +0.000 HD
BRANCH  20  29
ATOM     24  C   UNL     1      -4.071  12.941  22.162  0.00  0.00    +0.000 C 
ATOM     25  C   UNL     1      -2.945  13.607  22.878  0.00  0.00    +0.000 A 
ATOM     26  S   UNL     1      -3.110  15.224  23.439  0.00  0.00    +0.000 S 
ATOM     27  C   UNL     1      -1.514  15.162  24.053  0.00  0.00    +0.000 A 
ATOM     28  N   UNL     1      -0.868  14.028  23.885  0.00  0.00    +0.000 NA
ATOM     29  C   UNL     1      -1.679  13.132  23.176  0.00  0.00    +0.000 A 
ENDBRANCH  20  29
ENDBRANCH   1  22
TORSDOF 3
ENDMDL
MODEL 8
REMARK VINA RESULT:      -7.8      2.180      3.073
REMARK  Name = 
REMARK  4 active torsions:
REMARK  status: ('A' for Active; 'I' for Inactive)
REMARK    1  A    between atoms: C_1  and  C_2
REMARK    2  A    between atoms: C_6  and  C_7
REMARK    3  A    between atoms: N_9  and  C_10
REMARK    4  A    between atoms: C_13  and  N_14
REMARK                            x       y       z     vdW  Elec       q    Type
REMARK                         _______ _______ _______ _____ _____    ______ ____
ROOT
ATOM      1  C   UNL     1      -0.231  10.654  21.704  0.00  0.00    +0.000 A 
ATOM      2  C   UNL     1       0.605   9.747  22.346  0.00  0.00    +0.000 A 
ATOM      3  C   UNL     1       1.319   8.790  21.619  0.00  0.00    +0.000 A 
ATOM      4  C   UNL     1       1.225   8.686  20.225  0.00  0.00    +0.000 A 
ATOM      5  C   UNL     1       0.377   9.596  19.578  0.00  0.00    +0.000 A 
ATOM      6  C   UNL     1      -0.337  10.557  20.312  0.00  0.00    +0.000 A 
ATOM      7  F   UNL     1      -1.114  11.428  19.647  0.00  0.00    +0.000 F 
ENDROOT
BRANCH   4   8
ATOM      8  N   UNL     1       1.998   7.719  19.515  0.00  0.00    +0.000 N 
ATOM      9  C   UNL     1       2.253   6.445  19.977  0.00  0.00    +0.000 C 
ATOM     10  O   UNL     1       1.753   5.769  20.857  0.00  0.00    +0.000 OA
ATOM     11  C   UNL     1       3.297   5.893  19.133  0.00  0.00    +0.000 A 
ATOM     12  C   UNL     1       4.167   4.845  19.360  0.00  0.00    +0.000 A 
ATOM     13  C   UNL     1       5.061   4.536  18.336  0.00  0.00    +0.000 A 
ATOM     14  C   UNL     1       4.996   5.223  17.111  0.00  0.00    +0.000 A 
ATOM     15  F   UNL     1       5.798   4.838  16.110  0.00  0.00    +0.000 F 
ATOM     16  C   UNL     1       4.160   6.323  16.930  0.00  0.00    +0.000 A 
ATOM     17  C   UNL     1       3.378   6.683  18.010  0.00  0.00    +0.000 A 
ATOM     18  C   UNL     1       2.665   7.924  18.322  0.00  0.00    +0.000 C 
ATOM     19  O   UNL     1       2.804   8.919  17.633  0.00  0.00    +0.000 OA
ENDBRANCH   4   8
BRANCH   1  22
ATOM     20  C   UNL     1      -0.638  12.972  22.509  0.00  0.00    +0.000 C 
ATOM     21  O   UNL     1       0.326  13.512  21.989  0.00  0.00    +0.000 OA
ATOM     22  N   UNL     1      -0.975  11.640  22.392  0.00  0.00    +0.000 N 
ATOM     23  H   UNL     1      -1.869  11.368  22.790  0.00  0.00    +0.000 HD
BRANCH  20  29
ATOM     24  C   UNL     1      -3.803  12.998  22.253  0.00  0.00    +0.000 C 
ATOM     25  C   UNL     1      -2.944  13.737  23.223  0.00  0.00    +0.000 A 
ATOM     26  S   UNL     1      -3.653  14.791  24.382  0.00  0.00    +0.000 S 
ATOM     27  C   UNL     1      -2.095  15.158  24.985  0.00  0.00    +0.000 A 
ATOM     28  N   UNL     1      -1.085  14.550  24.400  0.00  0.00    +0.000 NA
ATOM     29  C   UNL     1      -1.566  13.749  23.357  0.00  0.00    +0.000 A 
ENDBRANCH  20  29
ENDBRANCH   1  22
TORSDOF 3
ENDMDL
MODEL 9
REMARK VINA RESULT:      -7.7      1.403      1.630
REMARK  Name = 
REMARK  4 active torsions:
REMARK  status: ('A' for Active; 'I' for Inactive)
REMARK    1  A    between atoms: C_1  and  C_2
REMARK    2  A    between atoms: C_6  and  C_7
REMARK    3  A    between atoms: N_9  and  C_10
REMARK    4  A    between atoms: C_13  and  N_14
REMARK                            x       y       z     vdW  Elec       q    Type
REMARK                         _______ _______ _______ _____ _____    ______ ____
ROOT
ATOM      1  C   UNL     1       0.693  10.327  19.989  0.00  0.00    +0.000 A 
ATOM      2  C   UNL     1       1.139   9.973  18.722  0.00  0.00    +0.000 A 
ATOM      3  C   UNL     1       1.738   8.730  18.492  0.00  0.00    +0.000 A 
ATOM      4  C   UNL     1       1.929   7.792  19.516  0.00  0.00    +0.000 A 
ATOM      5  C   UNL     1       1.485   8.152  20.795  0.00  0.00    +0.000 A 
ATOM      6  C   UNL     1       0.882   9.400  21.021  0.00  0.00    +0.000 A 
ATOM      7  F   UNL     1       0.445   9.690  22.257  0.00  0.00    +0.000 F 
ENDROOT
BRANCH   4   8
ATOM      8  N   UNL     1       2.512   6.520  19.234  0.00  0.00    +0.000 N 
ATOM      9  C   UNL     1       3.459   6.305  18.256  0.00  0.00    +0.000 C 
ATOM     10  O   UNL     1       4.177   7.054  17.620  0.00  0.00    +0.000 OA
ATOM     11  C   UNL     1       3.569   4.867  18.087  0.00  0.00    +0.000 A 
ATOM     12  C   UNL     1       4.064   4.128  17.030  0.00  0.00    +0.000 A 
ATOM     13  C   UNL     1       4.050   2.741  17.171  0.00  0.00    +0.000 A 
ATOM     14  C   UNL     1       3.625   2.158  18.378  0.00  0.00    +0.000 A 
ATOM     15  F   UNL     1       3.717   0.830  18.522  0.00  0.00    +0.000 F 
ATOM     16  C   UNL     1       3.062   2.918  19.401  0.00  0.00    +0.000 A 
ATOM     17  C   UNL     1       2.974   4.278  19.178  0.00  0.00    +0.000 A 
ATOM     18  C   UNL     1       2.171   5.318  19.826  0.00  0.00    +0.000 C 
ATOM     19  O   UNL     1       1.315   5.033  20.644  0.00  0.00    +0.000 OA
ENDBRANCH   4   8
BRANCH   1  22
ATOM     20  C   UNL     1      -1.147  11.992  19.812  0.00  0.00    +0.000 C 
ATOM     21  O   UNL     1      -1.918  11.332  19.133  0.00  0.00    +0.000 OA
ATOM     22  N   UNL     1       0.082  11.570  20.275  0.00  0.00    +0.000 N 
ATOM     23  H   UNL     1       0.554  12.193  20.923  0.00  0.00    +0.000 HD
BRANCH  20  29
ATOM     24  C   UNL     1       0.300  14.629  18.793  0.00  0.00    +0.000 C 
ATOM     25  C   UNL     1      -0.843  14.505  19.744  0.00  0.00    +0.000 A 
ATOM     26  S   UNL     1      -1.526  15.908  20.466  0.00  0.00    +0.000 S 
ATOM     27  C   UNL     1      -2.636  14.919  21.311  0.00  0.00    +0.000 A 
ATOM     28  N   UNL     1      -2.549  13.624  21.092  0.00  0.00    +0.000 NA
ATOM     29  C   UNL     1      -1.490  13.373  20.209  0.00  0.00    +0.000 A 
ENDBRANCH  20  29
ENDBRANCH   1  22
TORSDOF 3
ENDMDL
