MODEL 1
REMARK VINA RESULT:      -8.5      0.000      0.000
REMARK  Name = 
REMARK  5 active torsions:
REMARK  status: ('A' for Active; 'I' for Inactive)
REMARK    1  A    between atoms: C_1  and  C_2
REMARK    2  A    between atoms: C_2  and  C_3
REMARK    3  A    between atoms: N_5  and  C_6
REMARK    4  A    between atoms: N_16  and  C_17
REMARK    5  A    between atoms: C_17  and  C_18
REMARK                            x       y       z     vdW  Elec       q    Type
REMARK                         _______ _______ _______ _____ _____    ______ ____
ROOT
ATOM      1  C   UNL     1       2.789   2.500  17.254  0.00  0.00    +0.000 C 
ATOM      2  C   UNL     1       3.307   3.554  18.233  0.00  0.00    +0.000 C 
ATOM      3  C   UNL     1       3.563   2.915  19.649  0.00  0.00    +0.000 C 
ATOM      4  C   UNL     1       4.899   3.661  19.617  0.00  0.00    +0.000 C 
ATOM      5  N   UNL     1       4.805   3.694  18.138  0.00  0.00    +0.000 NA
ENDROOT
BRANCH   2   6
ATOM      6  C   UNL     1       2.398   4.859  18.301  0.00  0.00    +0.000 C 
ATOM      7  O   UNL     1       1.303   4.897  17.720  0.00  0.00    +0.000 OA
ATOM      8  N   UNL     1       2.927   5.961  18.985  0.00  0.00    +0.000 N 
ATOM      9  H   UNL     1       3.895   5.901  19.281  0.00  0.00    +0.000 HD
BRANCH   8  10
ATOM     10  C   UNL     1       2.277   7.214  19.128  0.00  0.00    +0.000 A 
ATOM     11  C   UNL     1       2.184   8.141  18.080  0.00  0.00    +0.000 A 
ATOM     12  C   UNL     1       1.610   9.398  18.263  0.00  0.00    +0.000 A 
ATOM     13  C   UNL     1       1.088   9.751  19.501  0.00  0.00    +0.000 A 
ATOM     14 CL   UNL     1       0.423  11.335  19.668  0.00  0.00    +0.000 Cl
ATOM     15  C   UNL     1       1.123   8.820  20.545  0.00  0.00    +0.000 A 
ATOM     16 CL   UNL     1       0.486   9.192  22.114  0.00  0.00    +0.000 Cl
ATOM     17  C   UNL     1       1.698   7.552  20.358  0.00  0.00    +0.000 A 
ENDBRANCH   8  10
ENDBRANCH   2   6
BRANCH   5  18
ATOM     18  C   UNL     1       5.287   4.981  17.629  0.00  0.00    +0.000 C 
BRANCH  18  19
ATOM     19  C   UNL     1       5.850   4.853  16.247  0.00  0.00    +0.000 A 
ATOM     20  C   UNL     1       6.962   5.363  15.605  0.00  0.00    +0.000 A 
ATOM     21  C   UNL     1       6.926   4.871  14.270  0.00  0.00    +0.000 A 
ATOM     22  C   UNL     1       7.733   4.998  13.123  0.00  0.00    +0.000 A 
ATOM     23  C   UNL     1       7.354   4.318  11.954  0.00  0.00    +0.000 A 
ATOM     24  C   UNL     1       6.195   3.538  11.917  0.00  0.00    +0.000 A 
ATOM     25  C   UNL     1       5.375   3.411  13.042  0.00  0.00    +0.000 A 
ATOM     26  C   UNL     1       5.781   4.089  14.189  0.00  0.00    +0.000 A 
ATOM     27  O   UNL     1       5.128   4.079  15.382  0.00  0.00    +0.000 OA
ENDBRANCH  18  19
ENDBRANCH   5  18
TORSDOF 4
ENDMDL
MODEL 2
REMARK VINA RESULT:      -8.4      0.624      1.188
REMARK  Name = 
REMARK  5 active torsions:
REMARK  status: ('A' for Active; 'I' for Inactive)
REMARK    1  A    between atoms: C_1  and  C_2
REMARK    2  A    between atoms: C_2  and  C_3
REMARK    3  A    between atoms: N_5  and  C_6
REMARK    4  A    between atoms: N_16  and  C_17
REMARK    5  A    between atoms: C_17  and  C_18
REMARK                            x       y       z     vdW  Elec       q    Type
REMARK                         _______ _______ _______ _____ _____    ______ ____
ROOT
ATOM      1  C   UNL     1       2.865   2.500  17.639  0.00  0.00    +0.000 C 
ATOM      2  C   UNL     1       3.450   3.699  18.385  0.00  0.00    +0.000 C 
ATOM      3  C   UNL     1       3.845   3.296  19.855  0.00  0.00    +0.000 C 
ATOM      4  C   UNL     1       5.158   4.032  19.581  0.00  0.00    +0.000 C 
ATOM      5  N   UNL     1       4.930   3.829  18.130  0.00  0.00    +0.000 NA
ENDROOT
BRANCH   2   6
ATOM      6  C   UNL     1       2.525   4.994  18.331  0.00  0.00    +0.000 C 
ATOM      7  O   UNL     1       1.507   5.014  17.623  0.00  0.00    +0.000 OA
ATOM      8  N   UNL     1       2.957   6.109  19.060  0.00  0.00    +0.000 N 
ATOM      9  H   UNL     1       3.884   6.063  19.469  0.00  0.00    +0.000 HD
BRANCH   8  10
ATOM     10  C   UNL     1       2.282   7.356  19.110  0.00  0.00    +0.000 A 
ATOM     11  C   UNL     1       2.212   8.222  18.010  0.00  0.00    +0.000 A 
ATOM     12  C   UNL     1       1.611   9.477  18.103  0.00  0.00    +0.000 A 
ATOM     13  C   UNL     1       1.039   9.886  19.301  0.00  0.00    +0.000 A 
ATOM     14 CL   UNL     1       0.343  11.465  19.357  0.00  0.00    +0.000 Cl
ATOM     15  C   UNL     1       1.052   9.016  20.396  0.00  0.00    +0.000 A 
ATOM     16 CL   UNL     1       0.354   9.461  21.918  0.00  0.00    +0.000 Cl
ATOM     17  C   UNL     1       1.655   7.749  20.299  0.00  0.00    +0.000 A 
ENDBRANCH   8  10
ENDBRANCH   2   6
BRANCH   5  18
ATOM     18  C   UNL     1       5.338   5.021  17.382  0.00  0.00    +0.000 C 
BRANCH  18  19
ATOM     19  C   UNL     1       5.691   4.689  15.964  0.00  0.00    +0.000 A 
ATOM     20  C   UNL     1       5.231   3.765  15.045  0.00  0.00    +0.000 A 
ATOM     21  C   UNL     1       5.998   3.951  13.860  0.00  0.00    +0.000 A 
ATOM     22  C   UNL     1       6.043   3.363  12.582  0.00  0.00    +0.000 A 
ATOM     23  C   UNL     1       6.967   3.854  11.646  0.00  0.00    +0.000 A 
ATOM     24  C   UNL     1       7.838   4.899  11.971  0.00  0.00    +0.000 A 
ATOM     25  C   UNL     1       7.817   5.485  13.240  0.00  0.00    +0.000 A 
ATOM     26  C   UNL     1       6.883   4.983  14.143  0.00  0.00    +0.000 A 
ATOM     27  O   UNL     1       6.700   5.429  15.415  0.00  0.00    +0.000 OA
ENDBRANCH  18  19
ENDBRANCH   5  18
TORSDOF 4
ENDMDL
MODEL 3
REMARK VINA RESULT:      -8.3      0.672      1.386
REMARK  Name = 
REMARK  5 active torsions:
REMARK  status: ('A' for Active; 'I' for Inactive)
REMARK    1  A    between atoms: C_1  and  C_2
REMARK    2  A    between atoms: C_2  and  C_3
REMARK    3  A    between atoms: N_5  and  C_6
REMARK    4  A    between atoms: N_16  and  C_17
REMARK    5  A    between atoms: C_17  and  C_18
REMARK                            x       y       z     vdW  Elec       q    Type
REMARK                         _______ _______ _______ _____ _____    ______ ____
ROOT
ATOM      1  C   UNL     1       2.715   2.554  17.465  0.00  0.00    +0.000 C 
ATOM      2  C   UNL     1       3.332   3.616  18.375  0.00  0.00    +0.000 C 
ATOM      3  C   UNL     1       3.767   2.982  19.749  0.00  0.00    +0.000 C 
ATOM      4  C   UNL     1       5.078   3.747  19.556  0.00  0.00    +0.000 C 
ATOM      5  N   UNL     1       4.805   3.778  18.099  0.00  0.00    +0.000 NA
ENDROOT
BRANCH   2   6
ATOM      6  C   UNL     1       2.418   4.907  18.555  0.00  0.00    +0.000 C 
ATOM      7  O   UNL     1       1.461   5.115  17.794  0.00  0.00    +0.000 OA
ATOM      8  N   UNL     1       2.791   5.809  19.560  0.00  0.00    +0.000 N 
ATOM      9  H   UNL     1       3.681   5.648  20.019  0.00  0.00    +0.000 HD
BRANCH   8  10
ATOM     10  C   UNL     1       2.117   7.023  19.850  0.00  0.00    +0.000 A 
ATOM     11  C   UNL     1       1.381   7.215  21.027  0.00  0.00    +0.000 A 
ATOM     12  C   UNL     1       0.662   8.388  21.258  0.00  0.00    +0.000 A 
ATOM     13  C   UNL     1       0.684   9.413  20.320  0.00  0.00    +0.000 A 
ATOM     14 CL   UNL     1      -0.255  10.822  20.652  0.00  0.00    +0.000 Cl
ATOM     15  C   UNL     1       1.456   9.261  19.163  0.00  0.00    +0.000 A 
ATOM     16 CL   UNL     1       1.532  10.501  17.954  0.00  0.00    +0.000 Cl
ATOM     17  C   UNL     1       2.183   8.081  18.934  0.00  0.00    +0.000 A 
ENDBRANCH   8  10
ENDBRANCH   2   6
BRANCH   5  18
ATOM     18  C   UNL     1       5.202   5.073  17.538  0.00  0.00    +0.000 C 
BRANCH  18  19
ATOM     19  C   UNL     1       5.800   4.923  16.172  0.00  0.00    +0.000 A 
ATOM     20  C   UNL     1       6.911   5.447  15.540  0.00  0.00    +0.000 A 
ATOM     21  C   UNL     1       6.920   4.917  14.220  0.00  0.00    +0.000 A 
ATOM     22  C   UNL     1       7.748   5.035  13.088  0.00  0.00    +0.000 A 
ATOM     23  C   UNL     1       7.416   4.312  11.931  0.00  0.00    +0.000 A 
ATOM     24  C   UNL     1       6.282   3.496  11.890  0.00  0.00    +0.000 A 
ATOM     25  C   UNL     1       5.440   3.377  13.001  0.00  0.00    +0.000 A 
ATOM     26  C   UNL     1       5.800   4.099  14.136  0.00  0.00    +0.000 A 
ATOM     27  O   UNL     1       5.121   4.103  15.314  0.00  0.00    +0.000 OA
ENDBRANCH  18  19
ENDBRANCH   5  18
TORSDOF 4
ENDMDL
MODEL 4
REMARK VINA RESULT:      -8.2      1.606      5.094
REMARK  Name = 
REMARK  5 active torsions:
REMARK  status: ('A' for Active; 'I' for Inactive)
REMARK    1  A    between atoms: C_1  and  C_2
REMARK    2  A    between atoms: C_2  and  C_3
REMARK    3  A    between atoms: N_5  and  C_6
REMARK    4  A    between atoms: N_16  and  C_17
REMARK    5  A    between atoms: C_17  and  C_18
REMARK                            x       y       z     vdW  Elec       q    Type
REMARK                         _______ _______ _______ _____ _____    ______ ____
ROOT
ATOM      1  C   UNL     1       6.966   4.871  17.949  0.00  0.00    +0.000 C 
ATOM      2  C   UNL     1       6.116   5.043  16.690  0.00  0.00    +0.000 C 
ATOM      3  C   UNL     1       7.033   5.202  15.421  0.00  0.00    +0.000 C 
ATOM      4  C   UNL     1       6.101   4.183  14.762  0.00  0.00    +0.000 C 
ATOM      5  N   UNL     1       5.722   3.707  16.114  0.00  0.00    +0.000 NA
ENDROOT
BRANCH   2   6
ATOM      6  C   UNL     1       5.028   6.200  16.811  0.00  0.00    +0.000 C 
ATOM      7  O   UNL     1       4.913   7.054  15.921  0.00  0.00    +0.000 OA
ATOM      8  N   UNL     1       4.270   6.232  17.989  0.00  0.00    +0.000 N 
ATOM      9  H   UNL     1       4.546   5.602  18.734  0.00  0.00    +0.000 HD
BRANCH   8  10
ATOM     10  C   UNL     1       3.276   7.200  18.286  0.00  0.00    +0.000 A 
ATOM     11  C   UNL     1       2.969   8.259  17.420  0.00  0.00    +0.000 A 
ATOM     12  C   UNL     1       2.044   9.243  17.766  0.00  0.00    +0.000 A 
ATOM     13  C   UNL     1       1.381   9.177  18.984  0.00  0.00    +0.000 A 
ATOM     14 CL   UNL     1       0.275  10.446  19.364  0.00  0.00    +0.000 Cl
ATOM     15  C   UNL     1       1.635   8.100  19.841  0.00  0.00    +0.000 A 
ATOM     16 CL   UNL     1       0.840   7.952  21.374  0.00  0.00    +0.000 Cl
ATOM     17  C   UNL     1       2.564   7.106  19.488  0.00  0.00    +0.000 A 
ENDBRANCH   8  10
ENDBRANCH   2   6
BRANCH   5  18
ATOM     18  C   UNL     1       4.290   3.399  16.158  0.00  0.00    +0.000 C 
BRANCH  18  19
ATOM     19  C   UNL     1       3.815   3.179  17.562  0.00  0.00    +0.000 A 
ATOM     20  C   UNL     1       4.349   2.562  18.677  0.00  0.00    +0.000 A 
ATOM     21  C   UNL     1       3.381   2.682  19.714  0.00  0.00    +0.000 A 
ATOM     22  C   UNL     1       3.289   2.288  21.062  0.00  0.00    +0.000 A 
ATOM     23  C   UNL     1       2.131   2.619  21.784  0.00  0.00    +0.000 A 
ATOM     24  C   UNL     1       1.080   3.315  21.181  0.00  0.00    +0.000 A 
ATOM     25  C   UNL     1       1.147   3.703  19.839  0.00  0.00    +0.000 A 
ATOM     26  C   UNL     1       2.312   3.368  19.153  0.00  0.00    +0.000 A 
ATOM     27  O   UNL     1       2.572   3.668  17.852  0.00  0.00    +0.000 OA
ENDBRANCH  18  19
ENDBRANCH   5  18
TORSDOF 4
ENDMDL
MODEL 5
REMARK VINA RESULT:      -8.1      1.885      5.060
REMARK  Name = 
REMARK  5 active torsions:
REMARK  status: ('A' for Active; 'I' for Inactive)
REMARK    1  A    between atoms: C_1  and  C_2
REMARK    2  A    between atoms: C_2  and  C_3
REMARK    3  A    between atoms: N_5  and  C_6
REMARK    4  A    between atoms: N_16  and  C_17
REMARK    5  A    between atoms: C_17  and  C_18
REMARK                            x       y       z     vdW  Elec       q    Type
REMARK                         _______ _______ _______ _____ _____    ______ ____
ROOT
ATOM      1  C   UNL     1       6.381   5.157  18.901  0.00  0.00    +0.000 C 
ATOM      2  C   UNL     1       5.890   5.432  17.480  0.00  0.00    +0.000 C 
ATOM      3  C   UNL     1       7.100   5.787  16.537  0.00  0.00    +0.000 C 
ATOM      4  C   UNL     1       6.467   4.806  15.547  0.00  0.00    +0.000 C 
ATOM      5  N   UNL     1       5.777   4.156  16.686  0.00  0.00    +0.000 NA
ENDROOT
BRANCH   2   6
ATOM      6  C   UNL     1       4.719   6.509  17.409  0.00  0.00    +0.000 C 
ATOM      7  O   UNL     1       4.570   7.215  16.400  0.00  0.00    +0.000 OA
ATOM      8  N   UNL     1       3.926   6.655  18.554  0.00  0.00    +0.000 N 
ATOM      9  H   UNL     1       4.224   6.162  19.389  0.00  0.00    +0.000 HD
BRANCH   8  10
ATOM     10  C   UNL     1       2.857   7.579  18.688  0.00  0.00    +0.000 A 
ATOM     11  C   UNL     1       2.521   8.494  17.681  0.00  0.00    +0.000 A 
ATOM     12  C   UNL     1       1.517   9.446  17.863  0.00  0.00    +0.000 A 
ATOM     13  C   UNL     1       0.804   9.486  19.054  0.00  0.00    +0.000 A 
ATOM     14 CL   UNL     1      -0.400  10.710  19.226  0.00  0.00    +0.000 Cl
ATOM     15  C   UNL     1       1.090   8.546  20.051  0.00  0.00    +0.000 A 
ATOM     16 CL   UNL     1       0.237   8.536  21.560  0.00  0.00    +0.000 Cl
ATOM     17  C   UNL     1       2.099   7.585  19.864  0.00  0.00    +0.000 A 
ENDBRANCH   8  10
ENDBRANCH   2   6
BRANCH   5  18
ATOM     18  C   UNL     1       4.416   3.772  16.301  0.00  0.00    +0.000 C 
BRANCH  18  19
ATOM     19  C   UNL     1       3.537   3.579  17.499  0.00  0.00    +0.000 A 
ATOM     20  C   UNL     1       2.206   3.832  17.771  0.00  0.00    +0.000 A 
ATOM     21  C   UNL     1       1.981   3.432  19.118  0.00  0.00    +0.000 A 
ATOM     22  C   UNL     1       0.882   3.415  19.998  0.00  0.00    +0.000 A 
ATOM     23  C   UNL     1       1.064   2.909  21.295  0.00  0.00    +0.000 A 
ATOM     24  C   UNL     1       2.311   2.440  21.718  0.00  0.00    +0.000 A 
ATOM     25  C   UNL     1       3.417   2.462  20.862  0.00  0.00    +0.000 A 
ATOM     26  C   UNL     1       3.203   2.961  19.580  0.00  0.00    +0.000 A 
ATOM     27  O   UNL     1       4.145   3.051  18.603  0.00  0.00    +0.000 OA
ENDBRANCH  18  19
ENDBRANCH   5  18
TORSDOF 4
ENDMDL
MODEL 6
REMARK VINA RESULT:      -8.1      3.776      8.165
REMARK  Name = 
REMARK  5 active torsions:
REMARK  status: ('A' for Active; 'I' for Inactive)
REMARK    1  A    between atoms: C_1  and  C_2
REMARK    2  A    between atoms: C_2  and  C_3
REMARK    3  A    between atoms: N_5  and  C_6
REMARK    4  A    between atoms: N_16  and  C_17
REMARK    5  A    between atoms: C_17  and  C_18
REMARK                            x       y       z     vdW  Elec       q    Type
REMARK                         _______ _______ _______ _____ _____    ______ ____
ROOT
ATOM      1  C   UNL     1       3.488   2.854  20.509  0.00  0.00    +0.000 C 
ATOM      2  C   UNL     1       3.191   3.601  19.210  0.00  0.00    +0.000 C 
ATOM      3  C   UNL     1       2.022   2.899  18.422  0.00  0.00    +0.000 C 
ATOM      4  C   UNL     1       1.446   4.306  18.250  0.00  0.00    +0.000 C 
ATOM      5  N   UNL     1       2.220   4.731  19.442  0.00  0.00    +0.000 NA
ENDROOT
BRANCH   2   6
ATOM      6  C   UNL     1       4.480   3.846  18.308  0.00  0.00    +0.000 C 
ATOM      7  O   UNL     1       5.612   3.857  18.814  0.00  0.00    +0.000 OA
ATOM      8  N   UNL     1       4.260   4.108  16.950  0.00  0.00    +0.000 N 
ATOM      9  H   UNL     1       3.300   4.249  16.655  0.00  0.00    +0.000 HD
BRANCH   8  10
ATOM     10  C   UNL     1       5.280   4.375  16.000  0.00  0.00    +0.000 A 
ATOM     11  C   UNL     1       6.335   5.262  16.255  0.00  0.00    +0.000 A 
ATOM     12  C   UNL     1       7.284   5.570  15.280  0.00  0.00    +0.000 A 
ATOM     13  C   UNL     1       7.213   4.975  14.028  0.00  0.00    +0.000 A 
ATOM     14 CL   UNL     1       8.398   5.427  12.857  0.00  0.00    +0.000 Cl
ATOM     15  C   UNL     1       6.197   4.047  13.771  0.00  0.00    +0.000 A 
ATOM     16 CL   UNL     1       6.052   3.263  12.232  0.00  0.00    +0.000 Cl
ATOM     17  C   UNL     1       5.245   3.734  14.756  0.00  0.00    +0.000 A 
ENDBRANCH   8  10
ENDBRANCH   2   6
BRANCH   5  18
ATOM     18  C   UNL     1       2.760   6.078  19.240  0.00  0.00    +0.000 C 
BRANCH  18  19
ATOM     19  C   UNL     1       1.969   7.108  19.987  0.00  0.00    +0.000 A 
ATOM     20  C   UNL     1       1.316   7.130  21.204  0.00  0.00    +0.000 A 
ATOM     21  C   UNL     1       0.733   8.422  21.333  0.00  0.00    +0.000 A 
ATOM     22  C   UNL     1      -0.042   9.090  22.300  0.00  0.00    +0.000 A 
ATOM     23  C   UNL     1      -0.424  10.419  22.057  0.00  0.00    +0.000 A 
ATOM     24  C   UNL     1      -0.057  11.071  20.876  0.00  0.00    +0.000 A 
ATOM     25  C   UNL     1       0.700  10.418  19.898  0.00  0.00    +0.000 A 
ATOM     26  C   UNL     1       1.072   9.104  20.172  0.00  0.00    +0.000 A 
ATOM     27  O   UNL     1       1.817   8.311  19.356  0.00  0.00    +0.000 OA
ENDBRANCH  18  19
ENDBRANCH   5  18
TORSDOF 4
ENDMDL
MODEL 7
REMARK VINA RESULT:      -7.9      0.955      1.842
REMARK  Name = 
REMARK  5 active torsions:
REMARK  status: ('A' for Active; 'I' for Inactive)
REMARK    1  A    between atoms: C_1  and  C_2
REMARK    2  A    between atoms: C_2  and  C_3
REMARK    3  A    between atoms: N_5  and  C_6
REMARK    4  A    between atoms: N_16  and  C_17
REMARK    5  A    between atoms: C_17  and  C_18
REMARK                            x       y       z     vdW  Elec       q    Type
REMARK                         _______ _______ _______ _____ _____    ______ ____
ROOT
ATOM      1  C   UNL     1       3.000   2.475  17.926  0.00  0.00    +0.000 C 
ATOM      2  C   UNL     1       3.640   3.686  18.603  0.00  0.00    +0.000 C 
ATOM      3  C   UNL     1       4.218   3.291  20.013  0.00  0.00    +0.000 C 
ATOM      4  C   UNL     1       5.471   4.059  19.589  0.00  0.00    +0.000 C 
ATOM      5  N   UNL     1       5.076   3.853  18.175  0.00  0.00    +0.000 NA
ENDROOT
BRANCH   2   6
ATOM      6  C   UNL     1       2.686   4.959  18.665  0.00  0.00    +0.000 C 
ATOM      7  O   UNL     1       1.842   5.159  17.778  0.00  0.00    +0.000 OA
ATOM      8  N   UNL     1       2.896   5.855  19.720  0.00  0.00    +0.000 N 
ATOM      9  H   UNL     1       3.715   5.705  20.298  0.00  0.00    +0.000 HD
BRANCH   8  10
ATOM     10  C   UNL     1       2.164   7.054  19.923  0.00  0.00    +0.000 A 
ATOM     11  C   UNL     1       1.367   7.269  21.056  0.00  0.00    +0.000 A 
ATOM     12  C   UNL     1       0.595   8.422  21.199  0.00  0.00    +0.000 A 
ATOM     13  C   UNL     1       0.623   9.404  20.218  0.00  0.00    +0.000 A 
ATOM     14 CL   UNL     1      -0.383  10.789  20.441  0.00  0.00    +0.000 Cl
ATOM     15  C   UNL     1       1.453   9.232  19.105  0.00  0.00    +0.000 A 
ATOM     16 CL   UNL     1       1.541  10.419  17.845  0.00  0.00    +0.000 Cl
ATOM     17  C   UNL     1       2.234   8.072  18.964  0.00  0.00    +0.000 A 
ENDBRANCH   8  10
ENDBRANCH   2   6
BRANCH   5  18
ATOM     18  C   UNL     1       5.364   5.055  17.388  0.00  0.00    +0.000 C 
BRANCH  18  19
ATOM     19  C   UNL     1       5.696   4.719  15.967  0.00  0.00    +0.000 A 
ATOM     20  C   UNL     1       5.202   3.815  15.046  0.00  0.00    +0.000 A 
ATOM     21  C   UNL     1       5.966   3.981  13.857  0.00  0.00    +0.000 A 
ATOM     22  C   UNL     1       5.984   3.399  12.576  0.00  0.00    +0.000 A 
ATOM     23  C   UNL     1       6.917   3.865  11.635  0.00  0.00    +0.000 A 
ATOM     24  C   UNL     1       7.821   4.880  11.959  0.00  0.00    +0.000 A 
ATOM     25  C   UNL     1       7.828   5.462  13.231  0.00  0.00    +0.000 A 
ATOM     26  C   UNL     1       6.885   4.984  14.139  0.00  0.00    +0.000 A 
ATOM     27  O   UNL     1       6.725   5.430  15.414  0.00  0.00    +0.000 OA
ENDBRANCH  18  19
ENDBRANCH   5  18
TORSDOF 4
ENDMDL
MODEL 8
REMARK VINA RESULT:      -7.8      1.142      1.677
REMARK  Name = 
REMARK  5 active torsions:
REMARK  status: ('A' for Active; 'I' for Inactive)
REMARK    1  A    between atoms: C_1  and  C_2
REMARK    2  A    between atoms: C_2  and  C_3
REMARK    3  A    between atoms: N_5  and  C_6
REMARK    4  A    between atoms: N_16  and  C_17
REMARK    5  A    between atoms: C_17  and  C_18
REMARK                            x       y       z     vdW  Elec       q    Type
REMARK                         _______ _______ _______ _____ _____    ______ ____
ROOT
ATOM      1  C   UNL     1       1.879   3.361  17.713  0.00  0.00    +0.000 C 
ATOM      2  C   UNL     1       2.899   3.637  18.817  0.00  0.00    +0.000 C 
ATOM      3  C   UNL     1       3.052   2.382  19.755  0.00  0.00    +0.000 C 
ATOM      4  C   UNL     1       4.560   2.605  19.617  0.00  0.00    +0.000 C 
ATOM      5  N   UNL     1       4.300   3.333  18.351  0.00  0.00    +0.000 NA
ENDROOT
BRANCH   2   6
ATOM      6  C   UNL     1       2.613   4.978  19.627  0.00  0.00    +0.000 C 
ATOM      7  O   UNL     1       2.690   4.998  20.864  0.00  0.00    +0.000 OA
ATOM      8  N   UNL     1       2.212   6.092  18.879  0.00  0.00    +0.000 N 
ATOM      9  H   UNL     1       2.009   5.942  17.897  0.00  0.00    +0.000 HD
BRANCH   8  10
ATOM     10  C   UNL     1       1.888   7.361  19.426  0.00  0.00    +0.000 A 
ATOM     11  C   UNL     1       1.419   7.521  20.738  0.00  0.00    +0.000 A 
ATOM     12  C   UNL     1       1.033   8.768  21.230  0.00  0.00    +0.000 A 
ATOM     13  C   UNL     1       1.132   9.895  20.424  0.00  0.00    +0.000 A 
ATOM     14 CL   UNL     1       0.604  11.399  21.084  0.00  0.00    +0.000 Cl
ATOM     15  C   UNL     1       1.647   9.764  19.130  0.00  0.00    +0.000 A 
ATOM     16 CL   UNL     1       1.801  11.129  18.073  0.00  0.00    +0.000 Cl
ATOM     17  C   UNL     1       2.040   8.508  18.636  0.00  0.00    +0.000 A 
ENDBRANCH   8  10
ENDBRANCH   2   6
BRANCH   5  18
ATOM     18  C   UNL     1       5.193   4.490  18.242  0.00  0.00    +0.000 C 
BRANCH  18  19
ATOM     19  C   UNL     1       5.799   4.593  16.875  0.00  0.00    +0.000 A 
ATOM     20  C   UNL     1       6.863   5.293  16.340  0.00  0.00    +0.000 A 
ATOM     21  C   UNL     1       6.913   4.967  14.956  0.00  0.00    +0.000 A 
ATOM     22  C   UNL     1       7.727   5.318  13.862  0.00  0.00    +0.000 A 
ATOM     23  C   UNL     1       7.453   4.750  12.608  0.00  0.00    +0.000 A 
ATOM     24  C   UNL     1       6.388   3.861  12.435  0.00  0.00    +0.000 A 
ATOM     25  C   UNL     1       5.561   3.512  13.506  0.00  0.00    +0.000 A 
ATOM     26  C   UNL     1       5.863   4.084  14.740  0.00  0.00    +0.000 A 
ATOM     27  O   UNL     1       5.187   3.858  15.898  0.00  0.00    +0.000 OA
ENDBRANCH  18  19
ENDBRANCH   5  18
TORSDOF 4
ENDMDL
MODEL 9
REMARK VINA RESULT:      -7.8      3.765      8.195
REMARK  Name = 
REMARK  5 active torsions:
REMARK  status: ('A' for Active; 'I' for Inactive)
REMARK    1  A    between atoms: C_1  and  C_2
REMARK    2  A    between atoms: C_2  and  C_3
REMARK    3  A    between atoms: N_5  and  C_6
REMARK    4  A    between atoms: N_16  and  C_17
REMARK    5  A    between atoms: C_17  and  C_18
REMARK                            x       y       z     vdW  Elec       q    Type
REMARK                         _______ _______ _______ _____ _____    ______ ____
ROOT
ATOM      1  C   UNL     1       3.294   3.087  20.544  0.00  0.00    +0.000 C 
ATOM      2  C   UNL     1       3.067   3.885  19.259  0.00  0.00    +0.000 C 
ATOM      3  C   UNL     1       1.821   3.326  18.475  0.00  0.00    +0.000 C 
ATOM      4  C   UNL     1       1.399   4.790  18.332  0.00  0.00    +0.000 C 
ATOM      5  N   UNL     1       2.226   5.109  19.521  0.00  0.00    +0.000 NA
ENDROOT
BRANCH   2   6
ATOM      6  C   UNL     1       4.366   4.003  18.347  0.00  0.00    +0.000 C 
ATOM      7  O   UNL     1       5.494   3.812  18.826  0.00  0.00    +0.000 OA
ATOM      8  N   UNL     1       4.169   4.393  17.016  0.00  0.00    +0.000 N 
ATOM      9  H   UNL     1       3.236   4.694  16.755  0.00  0.00    +0.000 HD
BRANCH   8  10
ATOM     10  C   UNL     1       5.205   4.578  16.064  0.00  0.00    +0.000 A 
ATOM     11  C   UNL     1       6.280   5.451  16.277  0.00  0.00    +0.000 A 
ATOM     12  C   UNL     1       7.246   5.677  15.296  0.00  0.00    +0.000 A 
ATOM     13  C   UNL     1       7.172   5.008  14.081  0.00  0.00    +0.000 A 
ATOM     14 CL   UNL     1       8.379   5.360  12.899  0.00  0.00    +0.000 Cl
ATOM     15  C   UNL     1       6.135   4.093  13.869  0.00  0.00    +0.000 A 
ATOM     16 CL   UNL     1       5.985   3.221  12.378  0.00  0.00    +0.000 Cl
ATOM     17  C   UNL     1       5.165   3.863  14.860  0.00  0.00    +0.000 A 
ENDBRANCH   8  10
ENDBRANCH   2   6
BRANCH   5  18
ATOM     18  C   UNL     1       2.907   6.392  19.334  0.00  0.00    +0.000 C 
BRANCH  18  19
ATOM     19  C   UNL     1       2.052   7.541  19.774  0.00  0.00    +0.000 A 
ATOM     20  C   UNL     1       1.577   8.684  19.159  0.00  0.00    +0.000 A 
ATOM     21  C   UNL     1       0.818   9.388  20.134  0.00  0.00    +0.000 A 
ATOM     22  C   UNL     1       0.081  10.588  20.170  0.00  0.00    +0.000 A 
ATOM     23  C   UNL     1      -0.565  10.947  21.364  0.00  0.00    +0.000 A 
ATOM     24  C   UNL     1      -0.475  10.142  22.503  0.00  0.00    +0.000 A 
ATOM     25  C   UNL     1       0.263   8.954  22.490  0.00  0.00    +0.000 A 
ATOM     26  C   UNL     1       0.884   8.620  21.289  0.00  0.00    +0.000 A 
ATOM     27  O   UNL     1       1.632   7.504  21.074  0.00  0.00    +0.000 OA
ENDBRANCH  18  19
ENDBRANCH   5  18
TORSDOF 4
ENDMDL
