MODEL 1
REMARK VINA RESULT:      -8.1      0.000      0.000
REMARK  Name = 
REMARK  9 active torsions:
REMARK  status: ('A' for Active; 'I' for Inactive)
REMARK    1  A    between atoms: C_1  and  C_2
REMARK    2  A    between atoms: C_2  and  C_3
REMARK    3  A    between atoms: C_3  and  N_4
REMARK    4  A    between atoms: N_4  and  C_5
REMARK    5  A    between atoms: N_4  and  C_21
REMARK    6  A    between atoms: C_5  and  C_6
REMARK    7  A    between atoms: C_6  and  C_7
REMARK    8  A    between atoms: C_7  and  C_8
REMARK    9  A    between atoms: C_8  and  N_9
REMARK                            x       y       z     vdW  Elec       q    Type
REMARK                         _______ _______ _______ _____ _____    ______ ____
ROOT
ATOM      1  C   UNL     1       8.899   9.560  18.997  0.00  0.00    +0.000 C 
ENDROOT
BRANCH   1   2
ATOM      2  N   UNL     1       9.158  10.985  19.246  0.00  0.00    +0.000 NA
BRANCH   2   3
ATOM      3  C   UNL     1       9.773  11.231  20.609  0.00  0.00    +0.000 C 
ATOM      4  C   UNL     1       8.780  11.694  21.698  0.00  0.00    +0.000 C 
ATOM      5  O   UNL     1       8.343  13.053  21.601  0.00  0.00    +0.000 OA
ATOM      6  C   UNL     1       9.238  13.946  21.072  0.00  0.00    +0.000 A 
ATOM      7  C   UNL     1       8.723  15.211  20.791  0.00  0.00    +0.000 A 
ATOM      8  C   UNL     1       9.520  16.164  20.160  0.00  0.00    +0.000 A 
ATOM      9  C   UNL     1      10.848  15.871  19.859  0.00  0.00    +0.000 A 
ATOM     10  C   UNL     1      11.362  14.602  20.121  0.00  0.00    +0.000 A 
ATOM     11  C   UNL     1      10.537  13.611  20.673  0.00  0.00    +0.000 A 
ATOM     12  C   UNL     1      10.986  12.181  20.711  0.00  0.00    +0.000 C 
ENDBRANCH   2   3
BRANCH   2  13
ATOM     13  C   UNL     1       9.981  11.519  18.132  0.00  0.00    +0.000 C 
BRANCH  13  15
ATOM     14  C   UNL     1       8.055  13.025  17.414  0.00  0.00    +0.000 C 
ATOM     15  C   UNL     1       9.557  12.824  17.441  0.00  0.00    +0.000 C 
ENDBRANCH  13  15
ENDBRANCH   2  13
ENDBRANCH   1   2
BRANCH   1  16
ATOM     16  C   UNL     1       8.373   9.216  17.600  0.00  0.00    +0.000 C 
BRANCH  16  17
ATOM     17  C   UNL     1       7.236   8.208  17.690  0.00  0.00    +0.000 C 
BRANCH  17  18
ATOM     18  C   UNL     1       7.690   6.736  17.607  0.00  0.00    +0.000 C 
BRANCH  18  19
ATOM     19  N   UNL     1       6.493   5.933  17.709  0.00  0.00    +0.000 N 
ATOM     20  C   UNL     1       6.140   5.452  18.970  0.00  0.00    +0.000 C 
ATOM     21  O   UNL     1       6.953   5.277  19.874  0.00  0.00    +0.000 OA
ATOM     22  C   UNL     1       4.666   5.293  19.211  0.00  0.00    +0.000 C 
ATOM     23  C   UNL     1       3.836   4.930  17.976  0.00  0.00    +0.000 C 
ATOM     24  C   UNL     1       2.332   5.155  18.299  0.00  0.00    +0.000 C 
ATOM     25  C   UNL     1       1.640   3.839  17.999  0.00  0.00    +0.000 C 
ATOM     26  C   UNL     1       2.713   2.795  18.244  0.00  0.00    +0.000 C 
ATOM     27  C   UNL     1       3.956   3.429  17.634  0.00  0.00    +0.000 C 
ATOM     28  C   UNL     1       4.238   5.802  16.794  0.00  0.00    +0.000 C 
ATOM     29  C   UNL     1       5.720   5.828  16.552  0.00  0.00    +0.000 C 
ATOM     30  O   UNL     1       6.180   5.881  15.415  0.00  0.00    +0.000 OA
ENDBRANCH  18  19
ENDBRANCH  17  18
ENDBRANCH  16  17
ENDBRANCH   1  16
TORSDOF 8
ENDMDL
MODEL 2
REMARK VINA RESULT:      -8.0      1.377      1.912
REMARK  Name = 
REMARK  9 active torsions:
REMARK  status: ('A' for Active; 'I' for Inactive)
REMARK    1  A    between atoms: C_1  and  C_2
REMARK    2  A    between atoms: C_2  and  C_3
REMARK    3  A    between atoms: C_3  and  N_4
REMARK    4  A    between atoms: N_4  and  C_5
REMARK    5  A    between atoms: N_4  and  C_21
REMARK    6  A    between atoms: C_5  and  C_6
REMARK    7  A    between atoms: C_6  and  C_7
REMARK    8  A    between atoms: C_7  and  C_8
REMARK    9  A    between atoms: C_8  and  N_9
REMARK                            x       y       z     vdW  Elec       q    Type
REMARK                         _______ _______ _______ _____ _____    ______ ____
ROOT
ATOM      1  C   UNL     1       8.165  10.744  17.839  0.00  0.00    +0.000 C 
ENDROOT
BRANCH   1   2
ATOM      2  N   UNL     1       9.000  11.810  18.411  0.00  0.00    +0.000 NA
BRANCH   2   3
ATOM      3  C   UNL     1      10.479  11.488  18.336  0.00  0.00    +0.000 C 
ATOM      4  C   UNL     1      11.216  11.488  19.693  0.00  0.00    +0.000 C 
ATOM      5  O   UNL     1      11.479  12.776  20.256  0.00  0.00    +0.000 OA
ATOM      6  C   UNL     1      11.689  13.799  19.369  0.00  0.00    +0.000 A 
ATOM      7  C   UNL     1      11.733  15.075  19.929  0.00  0.00    +0.000 A 
ATOM      8  C   UNL     1      11.842  16.195  19.107  0.00  0.00    +0.000 A 
ATOM      9  C   UNL     1      11.963  16.036  17.728  0.00  0.00    +0.000 A 
ATOM     10  C   UNL     1      11.902  14.763  17.162  0.00  0.00    +0.000 A 
ATOM     11  C   UNL     1      11.701  13.641  17.978  0.00  0.00    +0.000 A 
ATOM     12  C   UNL     1      11.365  12.311  17.374  0.00  0.00    +0.000 C 
ENDBRANCH   2   3
BRANCH   2  13
ATOM     13  C   UNL     1       8.649  13.092  17.751  0.00  0.00    +0.000 C 
BRANCH  13  15
ATOM     14  C   UNL     1       7.134  15.138  17.857  0.00  0.00    +0.000 C 
ATOM     15  C   UNL     1       8.119  14.257  18.600  0.00  0.00    +0.000 C 
ENDBRANCH  13  15
ENDBRANCH   2  13
ENDBRANCH   1   2
BRANCH   1  16
ATOM     16  C   UNL     1       8.555   9.314  18.226  0.00  0.00    +0.000 C 
BRANCH  16  17
ATOM     17  C   UNL     1       7.508   8.324  17.740  0.00  0.00    +0.000 C 
BRANCH  17  18
ATOM     18  C   UNL     1       7.905   6.845  17.922  0.00  0.00    +0.000 C 
BRANCH  18  19
ATOM     19  N   UNL     1       6.678   6.083  17.880  0.00  0.00    +0.000 N 
ATOM     20  C   UNL     1       6.209   5.543  19.078  0.00  0.00    +0.000 C 
ATOM     21  O   UNL     1       6.941   5.284  20.030  0.00  0.00    +0.000 OA
ATOM     22  C   UNL     1       4.716   5.425  19.192  0.00  0.00    +0.000 C 
ATOM     23  C   UNL     1       3.976   5.168  17.876  0.00  0.00    +0.000 C 
ATOM     24  C   UNL     1       2.460   5.431  18.093  0.00  0.00    +0.000 C 
ATOM     25  C   UNL     1       1.751   4.162  17.660  0.00  0.00    +0.000 C 
ATOM     26  C   UNL     1       2.765   3.065  17.923  0.00  0.00    +0.000 C 
ATOM     27  C   UNL     1       4.073   3.686  17.452  0.00  0.00    +0.000 C 
ATOM     28  C   UNL     1       4.501   6.092  16.785  0.00  0.00    +0.000 C 
ATOM     29  C   UNL     1       5.997   6.076  16.662  0.00  0.00    +0.000 C 
ATOM     30  O   UNL     1       6.549   6.179  15.570  0.00  0.00    +0.000 OA
ENDBRANCH  18  19
ENDBRANCH  17  18
ENDBRANCH  16  17
ENDBRANCH   1  16
TORSDOF 8
ENDMDL
MODEL 3
REMARK VINA RESULT:      -7.8      0.860      1.013
REMARK  Name = 
REMARK  9 active torsions:
REMARK  status: ('A' for Active; 'I' for Inactive)
REMARK    1  A    between atoms: C_1  and  C_2
REMARK    2  A    between atoms: C_2  and  C_3
REMARK    3  A    between atoms: C_3  and  N_4
REMARK    4  A    between atoms: N_4  and  C_5
REMARK    5  A    between atoms: N_4  and  C_21
REMARK    6  A    between atoms: C_5  and  C_6
REMARK    7  A    between atoms: C_6  and  C_7
REMARK    8  A    between atoms: C_7  and  C_8
REMARK    9  A    between atoms: C_8  and  N_9
REMARK                            x       y       z     vdW  Elec       q    Type
REMARK                         _______ _______ _______ _____ _____    ______ ____
ROOT
ATOM      1  C   UNL     1       9.030   9.636  19.273  0.00  0.00    +0.000 C 
ENDROOT
BRANCH   1   2
ATOM      2  N   UNL     1       9.390  11.062  19.259  0.00  0.00    +0.000 NA
BRANCH   2   3
ATOM      3  C   UNL     1       9.950  11.530  20.586  0.00  0.00    +0.000 C 
ATOM      4  C   UNL     1       8.896  11.786  21.685  0.00  0.00    +0.000 C 
ATOM      5  O   UNL     1       8.125  12.982  21.538  0.00  0.00    +0.000 OA
ATOM      6  C   UNL     1       8.751  14.042  20.937  0.00  0.00    +0.000 A 
ATOM      7  C   UNL     1       7.925  15.117  20.613  0.00  0.00    +0.000 A 
ATOM      8  C   UNL     1       8.439  16.205  19.910  0.00  0.00    +0.000 A 
ATOM      9  C   UNL     1       9.790  16.243  19.577  0.00  0.00    +0.000 A 
ATOM     10  C   UNL     1      10.617  15.161  19.882  0.00  0.00    +0.000 A 
ATOM     11  C   UNL     1      10.084  14.026  20.509  0.00  0.00    +0.000 A 
ATOM     12  C   UNL     1      10.883  12.761  20.600  0.00  0.00    +0.000 C 
ENDBRANCH   2   3
BRANCH   2  13
ATOM     13  C   UNL     1      10.310  11.306  18.120  0.00  0.00    +0.000 C 
BRANCH  13  15
ATOM     14  C   UNL     1      11.391  13.245  16.869  0.00  0.00    +0.000 C 
ATOM     15  C   UNL     1      10.098  12.541  17.232  0.00  0.00    +0.000 C 
ENDBRANCH  13  15
ENDBRANCH   2  13
ENDBRANCH   1   2
BRANCH   1  16
ATOM     16  C   UNL     1       8.324   9.117  18.017  0.00  0.00    +0.000 C 
BRANCH  16  17
ATOM     17  C   UNL     1       7.809   7.703  18.239  0.00  0.00    +0.000 C 
BRANCH  17  18
ATOM     18  C   UNL     1       7.626   6.887  16.943  0.00  0.00    +0.000 C 
BRANCH  18  19
ATOM     19  N   UNL     1       6.458   6.060  17.142  0.00  0.00    +0.000 N 
ATOM     20  C   UNL     1       6.561   4.998  18.041  0.00  0.00    +0.000 C 
ATOM     21  O   UNL     1       7.627   4.455  18.319  0.00  0.00    +0.000 OA
ATOM     22  C   UNL     1       5.296   4.642  18.767  0.00  0.00    +0.000 C 
ATOM     23  C   UNL     1       4.001   4.880  17.985  0.00  0.00    +0.000 C 
ATOM     24  C   UNL     1       2.800   4.816  18.970  0.00  0.00    +0.000 C 
ATOM     25  C   UNL     1       1.852   3.776  18.403  0.00  0.00    +0.000 C 
ATOM     26  C   UNL     1       2.760   2.821  17.652  0.00  0.00    +0.000 C 
ATOM     27  C   UNL     1       3.744   3.755  16.959  0.00  0.00    +0.000 C 
ATOM     28  C   UNL     1       4.034   6.247  17.312  0.00  0.00    +0.000 C 
ATOM     29  C   UNL     1       5.285   6.487  16.518  0.00  0.00    +0.000 C 
ATOM     30  O   UNL     1       5.262   7.125  15.469  0.00  0.00    +0.000 OA
ENDBRANCH  18  19
ENDBRANCH  17  18
ENDBRANCH  16  17
ENDBRANCH   1  16
TORSDOF 8
ENDMDL
MODEL 4
REMARK VINA RESULT:      -7.5      1.232      2.293
REMARK  Name = 
REMARK  9 active torsions:
REMARK  status: ('A' for Active; 'I' for Inactive)
REMARK    1  A    between atoms: C_1  and  C_2
REMARK    2  A    between atoms: C_2  and  C_3
REMARK    3  A    between atoms: C_3  and  N_4
REMARK    4  A    between atoms: N_4  and  C_5
REMARK    5  A    between atoms: N_4  and  C_21
REMARK    6  A    between atoms: C_5  and  C_6
REMARK    7  A    between atoms: C_6  and  C_7
REMARK    8  A    between atoms: C_7  and  C_8
REMARK    9  A    between atoms: C_8  and  N_9
REMARK                            x       y       z     vdW  Elec       q    Type
REMARK                         _______ _______ _______ _____ _____    ______ ____
ROOT
ATOM      1  C   UNL     1       8.261  10.702  18.118  0.00  0.00    +0.000 C 
ENDROOT
BRANCH   1   2
ATOM      2  N   UNL     1       9.300  11.698  18.421  0.00  0.00    +0.000 NA
BRANCH   2   3
ATOM      3  C   UNL     1       9.089  12.998  17.672  0.00  0.00    +0.000 C 
ATOM      4  C   UNL     1      10.378  13.653  17.128  0.00  0.00    +0.000 C 
ATOM      5  O   UNL     1      11.206  14.296  18.101  0.00  0.00    +0.000 OA
ATOM      6  C   UNL     1      10.565  14.849  19.178  0.00  0.00    +0.000 A 
ATOM      7  C   UNL     1      11.396  15.280  20.211  0.00  0.00    +0.000 A 
ATOM      8  C   UNL     1      10.845  15.767  21.394  0.00  0.00    +0.000 A 
ATOM      9  C   UNL     1       9.462  15.875  21.525  0.00  0.00    +0.000 A 
ATOM     10  C   UNL     1       8.626  15.428  20.502  0.00  0.00    +0.000 A 
ATOM     11  C   UNL     1       9.175  14.854  19.347  0.00  0.00    +0.000 A 
ATOM     12  C   UNL     1       8.301  14.130  18.367  0.00  0.00    +0.000 C 
ENDBRANCH   2   3
BRANCH   2  13
ATOM     13  C   UNL     1       9.368  11.878  19.893  0.00  0.00    +0.000 C 
BRANCH  13  15
ATOM     14  C   UNL     1      11.875  11.489  19.664  0.00  0.00    +0.000 C 
ATOM     15  C   UNL     1      10.711  11.689  20.614  0.00  0.00    +0.000 C 
ENDBRANCH  13  15
ENDBRANCH   2  13
ENDBRANCH   1   2
BRANCH   1  16
ATOM     16  C   UNL     1       8.673   9.238  18.298  0.00  0.00    +0.000 C 
BRANCH  16  17
ATOM     17  C   UNL     1       7.575   8.309  17.803  0.00  0.00    +0.000 C 
BRANCH  17  18
ATOM     18  C   UNL     1       7.943   6.812  17.857  0.00  0.00    +0.000 C 
BRANCH  18  19
ATOM     19  N   UNL     1       6.695   6.083  17.841  0.00  0.00    +0.000 N 
ATOM     20  C   UNL     1       6.236   5.558  19.049  0.00  0.00    +0.000 C 
ATOM     21  O   UNL     1       6.979   5.282  19.987  0.00  0.00    +0.000 OA
ATOM     22  C   UNL     1       4.743   5.481  19.193  0.00  0.00    +0.000 C 
ATOM     23  C   UNL     1       3.970   5.241  17.893  0.00  0.00    +0.000 C 
ATOM     24  C   UNL     1       2.466   5.544  18.139  0.00  0.00    +0.000 C 
ATOM     25  C   UNL     1       1.715   4.294  17.723  0.00  0.00    +0.000 C 
ATOM     26  C   UNL     1       2.704   3.171  17.969  0.00  0.00    +0.000 C 
ATOM     27  C   UNL     1       4.020   3.756  17.470  0.00  0.00    +0.000 C 
ATOM     28  C   UNL     1       4.498   6.149  16.790  0.00  0.00    +0.000 C 
ATOM     29  C   UNL     1       5.990   6.092  16.637  0.00  0.00    +0.000 C 
ATOM     30  O   UNL     1       6.523   6.178  15.534  0.00  0.00    +0.000 OA
ENDBRANCH  18  19
ENDBRANCH  17  18
ENDBRANCH  16  17
ENDBRANCH   1  16
TORSDOF 8
ENDMDL
MODEL 5
REMARK VINA RESULT:      -7.5      0.987      2.043
REMARK  Name = 
REMARK  9 active torsions:
REMARK  status: ('A' for Active; 'I' for Inactive)
REMARK    1  A    between atoms: C_1  and  C_2
REMARK    2  A    between atoms: C_2  and  C_3
REMARK    3  A    between atoms: C_3  and  N_4
REMARK    4  A    between atoms: N_4  and  C_5
REMARK    5  A    between atoms: N_4  and  C_21
REMARK    6  A    between atoms: C_5  and  C_6
REMARK    7  A    between atoms: C_6  and  C_7
REMARK    8  A    between atoms: C_7  and  C_8
REMARK    9  A    between atoms: C_8  and  N_9
REMARK                            x       y       z     vdW  Elec       q    Type
REMARK                         _______ _______ _______ _____ _____    ______ ____
ROOT
ATOM      1  C   UNL     1       8.142  10.125  17.575  0.00  0.00    +0.000 C 
ENDROOT
BRANCH   1   2
ATOM      2  N   UNL     1       8.599  11.177  18.495  0.00  0.00    +0.000 NA
BRANCH   2   3
ATOM      3  C   UNL     1       9.731  10.712  19.388  0.00  0.00    +0.000 C 
ATOM      4  C   UNL     1       9.401  10.683  20.897  0.00  0.00    +0.000 C 
ATOM      5  O   UNL     1       9.354  11.957  21.545  0.00  0.00    +0.000 OA
ATOM      6  C   UNL     1      10.186  12.926  21.050  0.00  0.00    +0.000 A 
ATOM      7  C   UNL     1       9.974  14.209  21.552  0.00  0.00    +0.000 A 
ATOM      8  C   UNL     1      10.697  15.287  21.044  0.00  0.00    +0.000 A 
ATOM      9  C   UNL     1      11.671  15.074  20.071  0.00  0.00    +0.000 A 
ATOM     10  C   UNL     1      11.874  13.795  19.553  0.00  0.00    +0.000 A 
ATOM     11  C   UNL     1      11.086  12.724  19.996  0.00  0.00    +0.000 A 
ATOM     12  C   UNL     1      11.102  11.414  19.268  0.00  0.00    +0.000 C 
ENDBRANCH   2   3
BRANCH   2  13
ATOM     13  C   UNL     1       8.942  12.384  17.701  0.00  0.00    +0.000 C 
BRANCH  13  15
ATOM     14  C   UNL     1       8.419  14.828  18.196  0.00  0.00    +0.000 C 
ATOM     15  C   UNL     1       7.923  13.529  17.593  0.00  0.00    +0.000 C 
ENDBRANCH  13  15
ENDBRANCH   2  13
ENDBRANCH   1   2
BRANCH   1  16
ATOM     16  C   UNL     1       8.229   8.693  18.108  0.00  0.00    +0.000 C 
BRANCH  16  17
ATOM     17  C   UNL     1       7.343   7.764  17.292  0.00  0.00    +0.000 C 
BRANCH  17  18
ATOM     18  C   UNL     1       7.578   6.264  17.567  0.00  0.00    +0.000 C 
BRANCH  18  19
ATOM     19  N   UNL     1       6.271   5.660  17.689  0.00  0.00    +0.000 N 
ATOM     20  C   UNL     1       5.473   5.605  16.546  0.00  0.00    +0.000 C 
ATOM     21  O   UNL     1       5.591   6.387  15.606  0.00  0.00    +0.000 OA
ATOM     22  C   UNL     1       4.543   4.429  16.464  0.00  0.00    +0.000 C 
ATOM     23  C   UNL     1       4.019   3.913  17.808  0.00  0.00    +0.000 C 
ATOM     24  C   UNL     1       3.383   2.511  17.594  0.00  0.00    +0.000 C 
ATOM     25  C   UNL     1       1.971   2.607  18.139  0.00  0.00    +0.000 C 
ATOM     26  C   UNL     1       1.601   4.065  17.949  0.00  0.00    +0.000 C 
ATOM     27  C   UNL     1       2.875   4.799  18.348  0.00  0.00    +0.000 C 
ATOM     28  C   UNL     1       5.159   3.806  18.813  0.00  0.00    +0.000 C 
ATOM     29  C   UNL     1       5.981   5.059  18.914  0.00  0.00    +0.000 C 
ATOM     30  O   UNL     1       6.453   5.428  19.985  0.00  0.00    +0.000 OA
ENDBRANCH  18  19
ENDBRANCH  17  18
ENDBRANCH  16  17
ENDBRANCH   1  16
TORSDOF 8
ENDMDL
MODEL 6
REMARK VINA RESULT:      -7.5      1.409      1.954
REMARK  Name = 
REMARK  9 active torsions:
REMARK  status: ('A' for Active; 'I' for Inactive)
REMARK    1  A    between atoms: C_1  and  C_2
REMARK    2  A    between atoms: C_2  and  C_3
REMARK    3  A    between atoms: C_3  and  N_4
REMARK    4  A    between atoms: N_4  and  C_5
REMARK    5  A    between atoms: N_4  and  C_21
REMARK    6  A    between atoms: C_5  and  C_6
REMARK    7  A    between atoms: C_6  and  C_7
REMARK    8  A    between atoms: C_7  and  C_8
REMARK    9  A    between atoms: C_8  and  N_9
REMARK                            x       y       z     vdW  Elec       q    Type
REMARK                         _______ _______ _______ _____ _____    ______ ____
ROOT
ATOM      1  C   UNL     1       8.291  10.987  17.989  0.00  0.00    +0.000 C 
ENDROOT
BRANCH   1   2
ATOM      2  N   UNL     1       9.237  11.995  18.490  0.00  0.00    +0.000 NA
BRANCH   2   3
ATOM      3  C   UNL     1       8.572  13.013  19.394  0.00  0.00    +0.000 C 
ATOM      4  C   UNL     1       7.794  14.127  18.660  0.00  0.00    +0.000 C 
ATOM      5  O   UNL     1       8.595  15.136  18.039  0.00  0.00    +0.000 OA
ATOM      6  C   UNL     1       9.789  15.427  18.644  0.00  0.00    +0.000 A 
ATOM      7  C   UNL     1      10.643  16.252  17.914  0.00  0.00    +0.000 A 
ATOM      8  C   UNL     1      11.922  16.530  18.390  0.00  0.00    +0.000 A 
ATOM      9  C   UNL     1      12.329  16.027  19.624  0.00  0.00    +0.000 A 
ATOM     10  C   UNL     1      11.486  15.186  20.349  0.00  0.00    +0.000 A 
ATOM     11  C   UNL     1      10.233  14.831  19.831  0.00  0.00    +0.000 A 
ATOM     12  C   UNL     1       9.434  13.728  20.458  0.00  0.00    +0.000 C 
ENDBRANCH   2   3
BRANCH   2  13
ATOM     13  C   UNL     1      10.375  11.296  19.137  0.00  0.00    +0.000 C 
BRANCH  13  15
ATOM     14  C   UNL     1      11.891  12.651  17.603  0.00  0.00    +0.000 C 
ATOM     15  C   UNL     1      11.797  11.512  18.599  0.00  0.00    +0.000 C 
ENDBRANCH  13  15
ENDBRANCH   2  13
ENDBRANCH   1   2
BRANCH   1  16
ATOM     16  C   UNL     1       8.756   9.532  18.091  0.00  0.00    +0.000 C 
BRANCH  16  17
ATOM     17  C   UNL     1       7.582   8.581  17.911  0.00  0.00    +0.000 C 
BRANCH  17  18
ATOM     18  C   UNL     1       7.955   7.089  18.019  0.00  0.00    +0.000 C 
BRANCH  18  19
ATOM     19  N   UNL     1       6.713   6.351  17.969  0.00  0.00    +0.000 N 
ATOM     20  C   UNL     1       6.293   5.709  19.133  0.00  0.00    +0.000 C 
ATOM     21  O   UNL     1       7.065   5.352  20.020  0.00  0.00    +0.000 OA
ATOM     22  C   UNL     1       4.806   5.602  19.311  0.00  0.00    +0.000 C 
ATOM     23  C   UNL     1       3.998   5.479  18.016  0.00  0.00    +0.000 C 
ATOM     24  C   UNL     1       2.499   5.741  18.332  0.00  0.00    +0.000 C 
ATOM     25  C   UNL     1       1.746   4.529  17.819  0.00  0.00    +0.000 C 
ATOM     26  C   UNL     1       2.751   3.398  17.929  0.00  0.00    +0.000 C 
ATOM     27  C   UNL     1       4.047   4.042  17.452  0.00  0.00    +0.000 C 
ATOM     28  C   UNL     1       4.486   6.493  16.990  0.00  0.00    +0.000 C 
ATOM     29  C   UNL     1       5.974   6.468  16.791  0.00  0.00    +0.000 C 
ATOM     30  O   UNL     1       6.473   6.664  15.687  0.00  0.00    +0.000 OA
ENDBRANCH  18  19
ENDBRANCH  17  18
ENDBRANCH  16  17
ENDBRANCH   1  16
TORSDOF 8
ENDMDL
MODEL 7
REMARK VINA RESULT:      -7.5      1.227      2.264
REMARK  Name = 
REMARK  9 active torsions:
REMARK  status: ('A' for Active; 'I' for Inactive)
REMARK    1  A    between atoms: C_1  and  C_2
REMARK    2  A    between atoms: C_2  and  C_3
REMARK    3  A    between atoms: C_3  and  N_4
REMARK    4  A    between atoms: N_4  and  C_5
REMARK    5  A    between atoms: N_4  and  C_21
REMARK    6  A    between atoms: C_5  and  C_6
REMARK    7  A    between atoms: C_6  and  C_7
REMARK    8  A    between atoms: C_7  and  C_8
REMARK    9  A    between atoms: C_8  and  N_9
REMARK                            x       y       z     vdW  Elec       q    Type
REMARK                         _______ _______ _______ _____ _____    ______ ____
ROOT
ATOM      1  C   UNL     1       8.739  10.171  18.899  0.00  0.00    +0.000 C 
ENDROOT
BRANCH   1   2
ATOM      2  N   UNL     1      10.073  10.784  18.984  0.00  0.00    +0.000 NA
BRANCH   2   3
ATOM      3  C   UNL     1      10.348  11.730  17.834  0.00  0.00    +0.000 C 
ATOM      4  C   UNL     1      11.779  12.310  17.794  0.00  0.00    +0.000 C 
ATOM      5  O   UNL     1      12.063  13.328  18.758  0.00  0.00    +0.000 OA
ATOM      6  C   UNL     1      11.015  14.130  19.125  0.00  0.00    +0.000 A 
ATOM      7  C   UNL     1      11.258  14.969  20.211  0.00  0.00    +0.000 A 
ATOM      8  C   UNL     1      10.231  15.755  20.730  0.00  0.00    +0.000 A 
ATOM      9  C   UNL     1       8.974  15.742  20.129  0.00  0.00    +0.000 A 
ATOM     10  C   UNL     1       8.721  14.891  19.054  0.00  0.00    +0.000 A 
ATOM     11  C   UNL     1       9.726  14.033  18.587  0.00  0.00    +0.000 A 
ATOM     12  C   UNL     1       9.400  12.932  17.623  0.00  0.00    +0.000 C 
ENDBRANCH   2   3
BRANCH   2  13
ATOM     13  C   UNL     1      10.214  11.428  20.315  0.00  0.00    +0.000 C 
BRANCH  13  15
ATOM     14  C   UNL     1       9.196  12.580  22.346  0.00  0.00    +0.000 C 
ATOM     15  C   UNL     1       8.970  11.619  21.195  0.00  0.00    +0.000 C 
ENDBRANCH  13  15
ENDBRANCH   2  13
ENDBRANCH   1   2
BRANCH   1  16
ATOM     16  C   UNL     1       8.509   9.244  17.702  0.00  0.00    +0.000 C 
BRANCH  16  17
ATOM     17  C   UNL     1       7.458   8.196  18.032  0.00  0.00    +0.000 C 
BRANCH  17  18
ATOM     18  C   UNL     1       7.573   6.902  17.199  0.00  0.00    +0.000 C 
BRANCH  18  19
ATOM     19  N   UNL     1       6.355   6.159  17.427  0.00  0.00    +0.000 N 
ATOM     20  C   UNL     1       6.309   5.316  18.538  0.00  0.00    +0.000 C 
ATOM     21  O   UNL     1       7.311   4.828  19.054  0.00  0.00    +0.000 OA
ATOM     22  C   UNL     1       4.955   5.149  19.165  0.00  0.00    +0.000 C 
ATOM     23  C   UNL     1       3.770   5.233  18.199  0.00  0.00    +0.000 C 
ATOM     24  C   UNL     1       2.462   5.406  19.021  0.00  0.00    +0.000 C 
ATOM     25  C   UNL     1       1.542   4.284  18.580  0.00  0.00    +0.000 C 
ATOM     26  C   UNL     1       2.487   3.173  18.166  0.00  0.00    +0.000 C 
ATOM     27  C   UNL     1       3.583   3.917  17.414  0.00  0.00    +0.000 C 
ATOM     28  C   UNL     1       3.939   6.420  17.258  0.00  0.00    +0.000 C 
ATOM     29  C   UNL     1       5.282   6.460  16.589  0.00  0.00    +0.000 C 
ATOM     30  O   UNL     1       5.407   6.854  15.433  0.00  0.00    +0.000 OA
ENDBRANCH  18  19
ENDBRANCH  17  18
ENDBRANCH  16  17
ENDBRANCH   1  16
TORSDOF 8
ENDMDL
MODEL 8
REMARK VINA RESULT:      -7.3      1.242      2.807
REMARK  Name = 
REMARK  9 active torsions:
REMARK  status: ('A' for Active; 'I' for Inactive)
REMARK    1  A    between atoms: C_1  and  C_2
REMARK    2  A    between atoms: C_2  and  C_3
REMARK    3  A    between atoms: C_3  and  N_4
REMARK    4  A    between atoms: N_4  and  C_5
REMARK    5  A    between atoms: N_4  and  C_21
REMARK    6  A    between atoms: C_5  and  C_6
REMARK    7  A    between atoms: C_6  and  C_7
REMARK    8  A    between atoms: C_7  and  C_8
REMARK    9  A    between atoms: C_8  and  N_9
REMARK                            x       y       z     vdW  Elec       q    Type
REMARK                         _______ _______ _______ _____ _____    ______ ____
ROOT
ATOM      1  C   UNL     1       8.608  10.062  18.652  0.00  0.00    +0.000 C 
ENDROOT
BRANCH   1   2
ATOM      2  N   UNL     1       9.898  10.766  18.698  0.00  0.00    +0.000 NA
BRANCH   2   3
ATOM      3  C   UNL     1       9.999  11.855  17.650  0.00  0.00    +0.000 C 
ATOM      4  C   UNL     1      11.392  12.512  17.526  0.00  0.00    +0.000 C 
ATOM      5  O   UNL     1      11.742  13.423  18.571  0.00  0.00    +0.000 OA
ATOM      6  C   UNL     1      10.712  14.118  19.147  0.00  0.00    +0.000 A 
ATOM      7  C   UNL     1      11.044  14.835  20.296  0.00  0.00    +0.000 A 
ATOM      8  C   UNL     1      10.053  15.497  21.017  0.00  0.00    +0.000 A 
ATOM      9  C   UNL     1       8.737  15.487  20.561  0.00  0.00    +0.000 A 
ATOM     10  C   UNL     1       8.396  14.756  19.423  0.00  0.00    +0.000 A 
ATOM     11  C   UNL     1       9.375  14.015  18.745  0.00  0.00    +0.000 A 
ATOM     12  C   UNL     1       8.985  13.019  17.695  0.00  0.00    +0.000 C 
ENDBRANCH   2   3
BRANCH   2  13
ATOM     13  C   UNL     1      10.115  11.264  20.079  0.00  0.00    +0.000 C 
BRANCH  13  15
ATOM     14  C   UNL     1       8.908  12.186  22.125  0.00  0.00    +0.000 C 
ATOM     15  C   UNL     1       9.030  11.038  21.142  0.00  0.00    +0.000 C 
ENDBRANCH  13  15
ENDBRANCH   2  13
ENDBRANCH   1   2
BRANCH   1  16
ATOM     16  C   UNL     1       8.687   8.540  18.500  0.00  0.00    +0.000 C 
BRANCH  16  17
ATOM     17  C   UNL     1       7.474   8.013  17.748  0.00  0.00    +0.000 C 
BRANCH  17  18
ATOM     18  C   UNL     1       7.591   6.537  17.317  0.00  0.00    +0.000 C 
BRANCH  18  19
ATOM     19  N   UNL     1       6.295   5.940  17.547  0.00  0.00    +0.000 N 
ATOM     20  C   UNL     1       5.370   5.977  16.502  0.00  0.00    +0.000 C 
ATOM     21  O   UNL     1       5.395   6.824  15.613  0.00  0.00    +0.000 OA
ATOM     22  C   UNL     1       4.414   4.821  16.445  0.00  0.00    +0.000 C 
ATOM     23  C   UNL     1       4.037   4.214  17.800  0.00  0.00    +0.000 C 
ATOM     24  C   UNL     1       3.354   2.839  17.562  0.00  0.00    +0.000 C 
ATOM     25  C   UNL     1       2.016   2.910  18.272  0.00  0.00    +0.000 C 
ATOM     26  C   UNL     1       1.654   4.383  18.230  0.00  0.00    +0.000 C 
ATOM     27  C   UNL     1       2.980   5.071  18.530  0.00  0.00    +0.000 C 
ATOM     28  C   UNL     1       5.282   4.022  18.657  0.00  0.00    +0.000 C 
ATOM     29  C   UNL     1       6.135   5.254  18.751  0.00  0.00    +0.000 C 
ATOM     30  O   UNL     1       6.733   5.539  19.784  0.00  0.00    +0.000 OA
ENDBRANCH  18  19
ENDBRANCH  17  18
ENDBRANCH  16  17
ENDBRANCH   1  16
TORSDOF 8
ENDMDL
MODEL 9
REMARK VINA RESULT:      -7.3      4.886      9.465
REMARK  Name = 
REMARK  9 active torsions:
REMARK  status: ('A' for Active; 'I' for Inactive)
REMARK    1  A    between atoms: C_1  and  C_2
REMARK    2  A    between atoms: C_2  and  C_3
REMARK    3  A    between atoms: C_3  and  N_4
REMARK    4  A    between atoms: N_4  and  C_5
REMARK    5  A    between atoms: N_4  and  C_21
REMARK    6  A    between atoms: C_5  and  C_6
REMARK    7  A    between atoms: C_6  and  C_7
REMARK    8  A    between atoms: C_7  and  C_8
REMARK    9  A    between atoms: C_8  and  N_9
REMARK                            x       y       z     vdW  Elec       q    Type
REMARK                         _______ _______ _______ _____ _____    ______ ____
ROOT
ATOM      1  C   UNL     1       4.886   6.084  17.159  0.00  0.00    +0.000 C 
ENDROOT
BRANCH   1   2
ATOM      2  N   UNL     1       5.315   5.393  18.384  0.00  0.00    +0.000 NA
BRANCH   2   3
ATOM      3  C   UNL     1       5.229   3.886  18.259  0.00  0.00    +0.000 C 
ATOM      4  C   UNL     1       4.326   3.378  17.113  0.00  0.00    +0.000 C 
ATOM      5  O   UNL     1       2.918   3.485  17.340  0.00  0.00    +0.000 OA
ATOM      6  C   UNL     1       2.497   3.369  18.638  0.00  0.00    +0.000 A 
ATOM      7  C   UNL     1       1.158   3.685  18.862  0.00  0.00    +0.000 A 
ATOM      8  C   UNL     1       0.651   3.696  20.160  0.00  0.00    +0.000 A 
ATOM      9  C   UNL     1       1.469   3.339  21.229  0.00  0.00    +0.000 A 
ATOM     10  C   UNL     1       2.814   3.040  21.012  0.00  0.00    +0.000 A 
ATOM     11  C   UNL     1       3.350   3.115  19.719  0.00  0.00    +0.000 A 
ATOM     12  C   UNL     1       4.833   3.063  19.506  0.00  0.00    +0.000 C 
ENDBRANCH   2   3
BRANCH   2  13
ATOM     13  C   UNL     1       6.674   5.871  18.745  0.00  0.00    +0.000 C 
BRANCH  13  15
ATOM     14  C   UNL     1       7.863   7.939  17.850  0.00  0.00    +0.000 C 
ATOM     15  C   UNL     1       7.579   6.462  17.655  0.00  0.00    +0.000 C 
ENDBRANCH  13  15
ENDBRANCH   2  13
ENDBRANCH   1   2
BRANCH   1  16
ATOM     16  C   UNL     1       3.981   7.302  17.366  0.00  0.00    +0.000 C 
BRANCH  16  17
ATOM     17  C   UNL     1       3.257   7.209  18.701  0.00  0.00    +0.000 C 
BRANCH  17  18
ATOM     18  C   UNL     1       1.724   7.348  18.597  0.00  0.00    +0.000 C 
BRANCH  18  19
ATOM     19  N   UNL     1       1.387   8.619  19.196  0.00  0.00    +0.000 N 
ATOM     20  C   UNL     1       1.309   9.730  18.357  0.00  0.00    +0.000 C 
ATOM     21  O   UNL     1       1.912   9.810  17.290  0.00  0.00    +0.000 OA
ATOM     22  C   UNL     1       0.318  10.782  18.768  0.00  0.00    +0.000 C 
ATOM     23  C   UNL     1       0.104  10.926  20.277  0.00  0.00    +0.000 C 
ATOM     24  C   UNL     1      -1.178  11.769  20.524  0.00  0.00    +0.000 C 
ATOM     25  C   UNL     1      -0.755  12.921  21.416  0.00  0.00    +0.000 C 
ATOM     26  C   UNL     1       0.703  13.144  21.061  0.00  0.00    +0.000 C 
ATOM     27  C   UNL     1       1.248  11.727  20.937  0.00  0.00    +0.000 C 
ATOM     28  C   UNL     1      -0.056   9.556  20.922  0.00  0.00    +0.000 C 
ATOM     29  C   UNL     1       1.031   8.591  20.545  0.00  0.00    +0.000 C 
ATOM     30  O   UNL     1       1.461   7.769  21.349  0.00  0.00    +0.000 OA
ENDBRANCH  18  19
ENDBRANCH  17  18
ENDBRANCH  16  17
ENDBRANCH   1  16
TORSDOF 8
ENDMDL
