MODEL 1
REMARK VINA RESULT:      -7.3      0.000      0.000
REMARK  Name = 
REMARK  9 active torsions:
REMARK  status: ('A' for Active; 'I' for Inactive)
REMARK    1  A    between atoms: C_1  and  C_2
REMARK    2  A    between atoms: C_4  and  C_5
REMARK    3  A    between atoms: C_6  and  N_7
REMARK    4  A    between atoms: N_10  and  C_11
REMARK    5  A    between atoms: C_20  and  C_21
REMARK    6  A    between atoms: N_23  and  C_24
REMARK    7  A    between atoms: C_24  and  C_25
REMARK    8  A    between atoms: C_25  and  O_27
REMARK    9  A    between atoms: C_34  and  C_35
REMARK                            x       y       z     vdW  Elec       q    Type
REMARK                         _______ _______ _______ _____ _____    ______ ____
ROOT
ATOM      1  C   UNL     1       1.770  10.176  18.420  0.00  0.00    +0.000 A 
ATOM      2  C   UNL     1       2.634   9.271  17.766  0.00  0.00    +0.000 A 
ATOM      3  C   UNL     1       2.778   7.929  18.194  0.00  0.00    +0.000 A 
ATOM      4  C   UNL     1       3.669   7.026  17.580  0.00  0.00    +0.000 A 
ATOM      5  C   UNL     1       3.800   5.711  18.044  0.00  0.00    +0.000 A 
ATOM      6  C   UNL     1       3.041   5.272  19.122  0.00  0.00    +0.000 A 
ATOM      7  C   UNL     1       2.152   6.149  19.739  0.00  0.00    +0.000 A 
ATOM      8  C   UNL     1       2.019   7.473  19.286  0.00  0.00    +0.000 A 
ATOM      9  C   UNL     1       1.122   8.354  19.898  0.00  0.00    +0.000 A 
ATOM     10  C   UNL     1       0.972   9.691  19.468  0.00  0.00    +0.000 A 
ENDROOT
BRANCH   1  14
ATOM     11  N   UNL     1       2.068  13.794  18.116  0.00  0.00    +0.000 N 
ATOM     12  C   UNL     1       2.150  12.585  18.803  0.00  0.00    +0.000 C 
ATOM     13  O   UNL     1       2.448  12.457  19.979  0.00  0.00    +0.000 OA
ATOM     14  N   UNL     1       1.788  11.529  17.961  0.00  0.00    +0.000 N 
ATOM     15  H   UNL     1       1.262  13.843  17.511  0.00  0.00    +0.000 HD
ATOM     16  H   UNL     1       2.161  11.668  17.028  0.00  0.00    +0.000 HD
BRANCH  11  22
ATOM     17  C   UNL     1       3.912  18.630  20.659  0.00  0.00    +0.000 C 
ATOM     18  C   UNL     1       3.402  17.418  19.935  0.00  0.00    +0.000 A 
ATOM     19  C   UNL     1       2.050  17.085  19.928  0.00  0.00    +0.000 A 
ATOM     20  C   UNL     1       1.577  15.910  19.301  0.00  0.00    +0.000 A 
ATOM     21  C   UNL     1       0.116  15.585  19.469  0.00  0.00    +0.000 C 
ATOM     22  C   UNL     1       2.493  15.039  18.664  0.00  0.00    +0.000 A 
ATOM     23  C   UNL     1       3.874  15.355  18.700  0.00  0.00    +0.000 A 
ATOM     24  C   UNL     1       4.953  14.527  18.052  0.00  0.00    +0.000 C 
ATOM     25  C   UNL     1       4.299  16.559  19.300  0.00  0.00    +0.000 A 
ENDBRANCH  11  22
ENDBRANCH   1  14
BRANCH  10  26
ATOM     26  C   UNL     1      -0.172  10.393  20.117  0.00  0.00    +0.000 C 
ATOM     27  O   UNL     1      -1.306  10.195  19.693  0.00  0.00    +0.000 OA
ATOM     28  N   UNL     1       0.112  11.346  21.078  0.00  0.00    +0.000 N 
ATOM     29  H   UNL     1       0.985  11.199  21.573  0.00  0.00    +0.000 HD
BRANCH  28  30
ATOM     30  C   UNL     1      -0.958  12.159  21.726  0.00  0.00    +0.000 C 
ATOM     31  C   UNL     1      -1.652  11.383  22.864  0.00  0.00    +0.000 C 
ATOM     32  C   UNL     1      -2.892  12.071  23.432  0.00  0.00    +0.000 C 
ATOM     33  C   UNL     1      -3.827  12.558  22.354  0.00  0.00    +0.000 C 
ATOM     34  O   UNL     1      -5.049  12.519  22.505  0.00  0.00    +0.000 OA
ATOM     35  C   UNL     1      -3.224  13.285  21.175  0.00  0.00    +0.000 C 
ATOM     36  C   UNL     1      -1.970  12.608  20.645  0.00  0.00    +0.000 C 
BRANCH  30  37
ATOM     37  C   UNL     1      -0.267  13.431  22.293  0.00  0.00    +0.000 C 
ATOM     38  O   UNL     1      -0.835  14.380  22.808  0.00  0.00    +0.000 OA
BRANCH  37  39
ATOM     39  O   UNL     1       1.077  13.453  22.078  0.00  0.00    +0.000 OA
ATOM     40  H   UNL     1       1.337  12.742  21.458  0.00  0.00    +0.000 HD
ENDBRANCH  37  39
ENDBRANCH  30  37
ENDBRANCH  28  30
ENDBRANCH  10  26
TORSDOF 6
ENDMDL
MODEL 2
REMARK VINA RESULT:      -7.1      3.020      6.963
REMARK  Name = 
REMARK  9 active torsions:
REMARK  status: ('A' for Active; 'I' for Inactive)
REMARK    1  A    between atoms: C_1  and  C_2
REMARK    2  A    between atoms: C_4  and  C_5
REMARK    3  A    between atoms: C_6  and  N_7
REMARK    4  A    between atoms: N_10  and  C_11
REMARK    5  A    between atoms: C_20  and  C_21
REMARK    6  A    between atoms: N_23  and  C_24
REMARK    7  A    between atoms: C_24  and  C_25
REMARK    8  A    between atoms: C_25  and  O_27
REMARK    9  A    between atoms: C_34  and  C_35
REMARK                            x       y       z     vdW  Elec       q    Type
REMARK                         _______ _______ _______ _____ _____    ______ ____
ROOT
ATOM      1  C   UNL     1       0.388  13.564  21.487  0.00  0.00    +0.000 A 
ATOM      2  C   UNL     1       1.688  13.704  20.958  0.00  0.00    +0.000 A 
ATOM      3  C   UNL     1       2.499  14.829  21.246  0.00  0.00    +0.000 A 
ATOM      4  C   UNL     1       3.782  15.005  20.691  0.00  0.00    +0.000 A 
ATOM      5  C   UNL     1       4.546  16.142  20.983  0.00  0.00    +0.000 A 
ATOM      6  C   UNL     1       4.049  17.117  21.838  0.00  0.00    +0.000 A 
ATOM      7  C   UNL     1       2.785  16.958  22.400  0.00  0.00    +0.000 A 
ATOM      8  C   UNL     1       2.006  15.825  22.108  0.00  0.00    +0.000 A 
ATOM      9  C   UNL     1       0.740  15.659  22.676  0.00  0.00    +0.000 A 
ATOM     10  C   UNL     1      -0.067  14.534  22.395  0.00  0.00    +0.000 A 
ENDROOT
BRANCH   1  14
ATOM     11  N   UNL     1      -1.669  11.215  19.609  0.00  0.00    +0.000 N 
ATOM     12  C   UNL     1      -0.982  12.415  19.785  0.00  0.00    +0.000 C 
ATOM     13  O   UNL     1      -0.950  13.336  18.987  0.00  0.00    +0.000 OA
ATOM     14  N   UNL     1      -0.371  12.438  21.043  0.00  0.00    +0.000 N 
ATOM     15  H   UNL     1      -2.150  10.917  20.444  0.00  0.00    +0.000 HD
ATOM     16  H   UNL     1       0.022  11.531  21.268  0.00  0.00    +0.000 HD
BRANCH  11  22
ATOM     17  C   UNL     1      -3.978   9.988  14.470  0.00  0.00    +0.000 C 
ATOM     18  C   UNL     1      -3.426  10.249  15.841  0.00  0.00    +0.000 A 
ATOM     19  C   UNL     1      -4.142  10.971  16.792  0.00  0.00    +0.000 A 
ATOM     20  C   UNL     1      -3.598  11.273  18.062  0.00  0.00    +0.000 A 
ATOM     21  C   UNL     1      -4.410  12.170  18.958  0.00  0.00    +0.000 C 
ATOM     22  C   UNL     1      -2.291  10.839  18.383  0.00  0.00    +0.000 A 
ATOM     23  C   UNL     1      -1.544  10.135  17.406  0.00  0.00    +0.000 A 
ATOM     24  C   UNL     1      -0.150   9.603  17.619  0.00  0.00    +0.000 C 
ATOM     25  C   UNL     1      -2.140   9.819  16.166  0.00  0.00    +0.000 A 
ENDBRANCH  11  22
ENDBRANCH   1  14
BRANCH  10  26
ATOM     26  C   UNL     1      -1.282  14.452  23.255  0.00  0.00    +0.000 C 
ATOM     27  O   UNL     1      -1.146  14.432  24.473  0.00  0.00    +0.000 OA
ATOM     28  N   UNL     1      -2.503  14.260  22.635  0.00  0.00    +0.000 N 
ATOM     29  H   UNL     1      -2.556  14.615  21.686  0.00  0.00    +0.000 HD
BRANCH  28  30
ATOM     30  C   UNL     1      -3.765  14.084  23.412  0.00  0.00    +0.000 C 
ATOM     31  C   UNL     1      -3.783  12.742  24.171  0.00  0.00    +0.000 C 
ATOM     32  C   UNL     1      -5.124  12.401  24.819  0.00  0.00    +0.000 C 
ATOM     33  C   UNL     1      -6.286  12.596  23.877  0.00  0.00    +0.000 C 
ATOM     34  O   UNL     1      -7.256  11.838  23.898  0.00  0.00    +0.000 OA
ATOM     35  C   UNL     1      -6.320  13.863  23.055  0.00  0.00    +0.000 C 
ATOM     36  C   UNL     1      -4.969  14.209  22.449  0.00  0.00    +0.000 C 
BRANCH  30  37
ATOM     37  C   UNL     1      -3.833  15.266  24.420  0.00  0.00    +0.000 C 
ATOM     38  O   UNL     1      -4.068  16.430  24.137  0.00  0.00    +0.000 OA
BRANCH  37  39
ATOM     39  O   UNL     1      -3.501  14.910  25.690  0.00  0.00    +0.000 OA
ATOM     40  H   UNL     1      -2.542  14.727  25.756  0.00  0.00    +0.000 HD
ENDBRANCH  37  39
ENDBRANCH  30  37
ENDBRANCH  28  30
ENDBRANCH  10  26
TORSDOF 6
ENDMDL
MODEL 3
REMARK VINA RESULT:      -7.1      2.217      7.191
REMARK  Name = 
REMARK  9 active torsions:
REMARK  status: ('A' for Active; 'I' for Inactive)
REMARK    1  A    between atoms: C_1  and  C_2
REMARK    2  A    between atoms: C_4  and  C_5
REMARK    3  A    between atoms: C_6  and  N_7
REMARK    4  A    between atoms: N_10  and  C_11
REMARK    5  A    between atoms: C_20  and  C_21
REMARK    6  A    between atoms: N_23  and  C_24
REMARK    7  A    between atoms: C_24  and  C_25
REMARK    8  A    between atoms: C_25  and  O_27
REMARK    9  A    between atoms: C_34  and  C_35
REMARK                            x       y       z     vdW  Elec       q    Type
REMARK                         _______ _______ _______ _____ _____    ______ ____
ROOT
ATOM      1  C   UNL     1      -0.577  13.733  19.771  0.00  0.00    +0.000 A 
ATOM      2  C   UNL     1       0.497  14.413  19.159  0.00  0.00    +0.000 A 
ATOM      3  C   UNL     1       0.653  15.817  19.262  0.00  0.00    +0.000 A 
ATOM      4  C   UNL     1       1.694  16.516  18.619  0.00  0.00    +0.000 A 
ATOM      5  C   UNL     1       1.805  17.908  18.727  0.00  0.00    +0.000 A 
ATOM      6  C   UNL     1       0.885  18.626  19.482  0.00  0.00    +0.000 A 
ATOM      7  C   UNL     1      -0.148  17.951  20.129  0.00  0.00    +0.000 A 
ATOM      8  C   UNL     1      -0.273  16.555  20.020  0.00  0.00    +0.000 A 
ATOM      9  C   UNL     1      -1.304  15.874  20.673  0.00  0.00    +0.000 A 
ATOM     10  C   UNL     1      -1.457  14.473  20.577  0.00  0.00    +0.000 A 
ENDROOT
BRANCH   1  14
ATOM     11  N   UNL     1       0.000  10.152  19.433  0.00  0.00    +0.000 N 
ATOM     12  C   UNL     1       0.359  11.449  19.796  0.00  0.00    +0.000 C 
ATOM     13  O   UNL     1       1.439  11.784  20.252  0.00  0.00    +0.000 OA
ATOM     14  N   UNL     1      -0.686  12.333  19.510  0.00  0.00    +0.000 N 
ATOM     15  H   UNL     1      -0.507  10.118  18.562  0.00  0.00    +0.000 HD
ATOM     16  H   UNL     1      -1.583  11.916  19.738  0.00  0.00    +0.000 HD
BRANCH  11  22
ATOM     17  C   UNL     1       3.016   5.317  20.316  0.00  0.00    +0.000 C 
ATOM     18  C   UNL     1       2.279   6.613  20.142  0.00  0.00    +0.000 A 
ATOM     19  C   UNL     1       1.351   7.058  21.080  0.00  0.00    +0.000 A 
ATOM     20  C   UNL     1       0.610   8.246  20.888  0.00  0.00    +0.000 A 
ATOM     21  C   UNL     1      -0.458   8.559  21.903  0.00  0.00    +0.000 C 
ATOM     22  C   UNL     1       0.804   9.008  19.712  0.00  0.00    +0.000 A 
ATOM     23  C   UNL     1       1.721   8.542  18.737  0.00  0.00    +0.000 A 
ATOM     24  C   UNL     1       2.036   9.260  17.451  0.00  0.00    +0.000 C 
ATOM     25  C   UNL     1       2.471   7.372  18.989  0.00  0.00    +0.000 A 
ENDBRANCH  11  22
ENDBRANCH   1  14
BRANCH  10  26
ATOM     26  C   UNL     1      -2.489  13.929  21.505  0.00  0.00    +0.000 C 
ATOM     27  O   UNL     1      -3.014  12.852  21.242  0.00  0.00    +0.000 OA
ATOM     28  N   UNL     1      -2.910  14.731  22.550  0.00  0.00    +0.000 N 
ATOM     29  H   UNL     1      -2.222  15.404  22.869  0.00  0.00    +0.000 HD
BRANCH  28  30
ATOM     30  C   UNL     1      -3.995  14.308  23.484  0.00  0.00    +0.000 C 
ATOM     31  C   UNL     1      -3.813  12.846  23.942  0.00  0.00    +0.000 C 
ATOM     32  C   UNL     1      -4.993  12.281  24.731  0.00  0.00    +0.000 C 
ATOM     33  C   UNL     1      -6.318  12.563  24.067  0.00  0.00    +0.000 C 
ATOM     34  O   UNL     1      -7.235  11.741  24.102  0.00  0.00    +0.000 OA
ATOM     35  C   UNL     1      -6.559  13.959  23.543  0.00  0.00    +0.000 C 
ATOM     36  C   UNL     1      -5.362  14.521  22.793  0.00  0.00    +0.000 C 
BRANCH  30  37
ATOM     37  C   UNL     1      -3.922  15.263  24.709  0.00  0.00    +0.000 C 
ATOM     38  O   UNL     1      -4.480  16.344  24.803  0.00  0.00    +0.000 OA
BRANCH  37  39
ATOM     39  O   UNL     1      -3.073  14.829  25.679  0.00  0.00    +0.000 OA
ATOM     40  H   UNL     1      -2.733  13.937  25.464  0.00  0.00    +0.000 HD
ENDBRANCH  37  39
ENDBRANCH  30  37
ENDBRANCH  28  30
ENDBRANCH  10  26
TORSDOF 6
ENDMDL
MODEL 4
REMARK VINA RESULT:      -7.0      2.419      8.461
REMARK  Name = 
REMARK  9 active torsions:
REMARK  status: ('A' for Active; 'I' for Inactive)
REMARK    1  A    between atoms: C_1  and  C_2
REMARK    2  A    between atoms: C_4  and  C_5
REMARK    3  A    between atoms: C_6  and  N_7
REMARK    4  A    between atoms: N_10  and  C_11
REMARK    5  A    between atoms: C_20  and  C_21
REMARK    6  A    between atoms: N_23  and  C_24
REMARK    7  A    between atoms: C_24  and  C_25
REMARK    8  A    between atoms: C_25  and  O_27
REMARK    9  A    between atoms: C_34  and  C_35
REMARK                            x       y       z     vdW  Elec       q    Type
REMARK                         _______ _______ _______ _____ _____    ______ ____
ROOT
ATOM      1  C   UNL     1      -0.711  13.295  21.589  0.00  0.00    +0.000 A 
ATOM      2  C   UNL     1      -1.728  13.264  22.566  0.00  0.00    +0.000 A 
ATOM      3  C   UNL     1      -1.849  14.270  23.555  0.00  0.00    +0.000 A 
ATOM      4  C   UNL     1      -2.832  14.231  24.565  0.00  0.00    +0.000 A 
ATOM      5  C   UNL     1      -2.908  15.235  25.539  0.00  0.00    +0.000 A 
ATOM      6  C   UNL     1      -2.013  16.298  25.519  0.00  0.00    +0.000 A 
ATOM      7  C   UNL     1      -1.038  16.356  24.526  0.00  0.00    +0.000 A 
ATOM      8  C   UNL     1      -0.947  15.350  23.548  0.00  0.00    +0.000 A 
ATOM      9  C   UNL     1       0.025  15.409  22.546  0.00  0.00    +0.000 A 
ATOM     10  C   UNL     1       0.143  14.409  21.555  0.00  0.00    +0.000 A 
ENDROOT
BRANCH   1  14
ATOM     11  N   UNL     1       0.228  10.223  19.869  0.00  0.00    +0.000 N 
ATOM     12  C   UNL     1       0.361  11.194  20.861  0.00  0.00    +0.000 C 
ATOM     13  O   UNL     1       1.235  11.223  21.711  0.00  0.00    +0.000 OA
ATOM     14  N   UNL     1      -0.627  12.171  20.710  0.00  0.00    +0.000 N 
ATOM     15  H   UNL     1      -0.005  10.616  18.970  0.00  0.00    +0.000 HD
ATOM     16  H   UNL     1      -1.514  11.750  20.456  0.00  0.00    +0.000 HD
BRANCH  11  22
ATOM     17  C   UNL     1       3.129   5.259  19.430  0.00  0.00    +0.000 C 
ATOM     18  C   UNL     1       2.427   6.574  19.605  0.00  0.00    +0.000 A 
ATOM     19  C   UNL     1       1.571   6.809  20.678  0.00  0.00    +0.000 A 
ATOM     20  C   UNL     1       0.860   8.023  20.810  0.00  0.00    +0.000 A 
ATOM     21  C   UNL     1      -0.135   8.115  21.937  0.00  0.00    +0.000 C 
ATOM     22  C   UNL     1       1.009   9.031  19.828  0.00  0.00    +0.000 A 
ATOM     23  C   UNL     1       1.850   8.783  18.715  0.00  0.00    +0.000 A 
ATOM     24  C   UNL     1       2.112   9.771  17.608  0.00  0.00    +0.000 C 
ATOM     25  C   UNL     1       2.575   7.573  18.644  0.00  0.00    +0.000 A 
ENDBRANCH  11  22
ENDBRANCH   1  14
BRANCH  10  26
ATOM     26  C   UNL     1       1.104  14.764  20.472  0.00  0.00    +0.000 C 
ATOM     27  O   UNL     1       0.839  14.447  19.317  0.00  0.00    +0.000 OA
ATOM     28  N   UNL     1       2.320  15.312  20.837  0.00  0.00    +0.000 N 
ATOM     29  H   UNL     1       2.307  15.822  21.713  0.00  0.00    +0.000 HD
BRANCH  28  30
ATOM     30  C   UNL     1       3.379  15.626  19.833  0.00  0.00    +0.000 C 
ATOM     31  C   UNL     1       3.579  14.466  18.836  0.00  0.00    +0.000 C 
ATOM     32  C   UNL     1       4.784  14.629  17.912  0.00  0.00    +0.000 C 
ATOM     33  C   UNL     1       6.033  15.028  18.658  0.00  0.00    +0.000 C 
ATOM     34  O   UNL     1       7.138  14.601  18.321  0.00  0.00    +0.000 OA
ATOM     35  C   UNL     1       5.916  16.123  19.691  0.00  0.00    +0.000 C 
ATOM     36  C   UNL     1       4.691  15.967  20.578  0.00  0.00    +0.000 C 
BRANCH  30  37
ATOM     37  C   UNL     1       2.910  16.902  19.079  0.00  0.00    +0.000 C 
ATOM     38  O   UNL     1       2.986  18.046  19.499  0.00  0.00    +0.000 OA
BRANCH  37  39
ATOM     39  O   UNL     1       2.291  16.631  17.898  0.00  0.00    +0.000 OA
ATOM     40  H   UNL     1       1.360  16.371  18.050  0.00  0.00    +0.000 HD
ENDBRANCH  37  39
ENDBRANCH  30  37
ENDBRANCH  28  30
ENDBRANCH  10  26
TORSDOF 6
ENDMDL
MODEL 5
REMARK VINA RESULT:      -6.9      2.490      6.465
REMARK  Name = 
REMARK  9 active torsions:
REMARK  status: ('A' for Active; 'I' for Inactive)
REMARK    1  A    between atoms: C_1  and  C_2
REMARK    2  A    between atoms: C_4  and  C_5
REMARK    3  A    between atoms: C_6  and  N_7
REMARK    4  A    between atoms: N_10  and  C_11
REMARK    5  A    between atoms: C_20  and  C_21
REMARK    6  A    between atoms: N_23  and  C_24
REMARK    7  A    between atoms: C_24  and  C_25
REMARK    8  A    between atoms: C_25  and  O_27
REMARK    9  A    between atoms: C_34  and  C_35
REMARK                            x       y       z     vdW  Elec       q    Type
REMARK                         _______ _______ _______ _____ _____    ______ ____
ROOT
ATOM      1  C   UNL     1       0.216  11.452  20.982  0.00  0.00    +0.000 A 
ATOM      2  C   UNL     1       0.445  10.117  21.377  0.00  0.00    +0.000 A 
ATOM      3  C   UNL     1       1.074   9.180  20.521  0.00  0.00    +0.000 A 
ATOM      4  C   UNL     1       1.270   7.832  20.883  0.00  0.00    +0.000 A 
ATOM      5  C   UNL     1       1.878   6.928  20.001  0.00  0.00    +0.000 A 
ATOM      6  C   UNL     1       2.307   7.354  18.750  0.00  0.00    +0.000 A 
ATOM      7  C   UNL     1       2.125   8.684  18.377  0.00  0.00    +0.000 A 
ATOM      8  C   UNL     1       1.510   9.597  19.250  0.00  0.00    +0.000 A 
ATOM      9  C   UNL     1       1.332  10.934  18.882  0.00  0.00    +0.000 A 
ATOM     10  C   UNL     1       0.712  11.871  19.737  0.00  0.00    +0.000 A 
ENDROOT
BRANCH   1  14
ATOM     11  N   UNL     1      -2.307  13.482  22.653  0.00  0.00    +0.000 N 
ATOM     12  C   UNL     1      -1.830  12.679  21.619  0.00  0.00    +0.000 C 
ATOM     13  O   UNL     1      -2.440  12.400  20.600  0.00  0.00    +0.000 OA
ATOM     14  N   UNL     1      -0.519  12.275  21.890  0.00  0.00    +0.000 N 
ATOM     15  H   UNL     1      -1.610  14.124  23.000  0.00  0.00    +0.000 HD
ATOM     16  H   UNL     1      -0.410  12.046  22.872  0.00  0.00    +0.000 HD
BRANCH  11  22
ATOM     17  C   UNL     1      -7.618  15.661  23.200  0.00  0.00    +0.000 C 
ATOM     18  C   UNL     1      -6.268  15.031  23.013  0.00  0.00    +0.000 A 
ATOM     19  C   UNL     1      -5.878  13.909  23.738  0.00  0.00    +0.000 A 
ATOM     20  C   UNL     1      -4.585  13.353  23.610  0.00  0.00    +0.000 A 
ATOM     21  C   UNL     1      -4.231  12.221  24.539  0.00  0.00    +0.000 C 
ATOM     22  C   UNL     1      -3.652  13.948  22.729  0.00  0.00    +0.000 A 
ATOM     23  C   UNL     1      -4.031  15.112  22.015  0.00  0.00    +0.000 A 
ATOM     24  C   UNL     1      -3.146  15.837  21.035  0.00  0.00    +0.000 C 
ATOM     25  C   UNL     1      -5.347  15.609  22.141  0.00  0.00    +0.000 A 
ENDBRANCH  11  22
ENDBRANCH   1  14
BRANCH  10  26
ATOM     26  C   UNL     1       0.805  13.273  19.240  0.00  0.00    +0.000 C 
ATOM     27  O   UNL     1       0.212  13.578  18.211  0.00  0.00    +0.000 OA
ATOM     28  N   UNL     1       1.673  14.135  19.886  0.00  0.00    +0.000 N 
ATOM     29  H   UNL     1       1.840  13.913  20.862  0.00  0.00    +0.000 HD
BRANCH  28  30
ATOM     30  C   UNL     1       1.898  15.532  19.414  0.00  0.00    +0.000 C 
ATOM     31  C   UNL     1       0.569  16.297  19.248  0.00  0.00    +0.000 C 
ATOM     32  C   UNL     1       0.705  17.660  18.572  0.00  0.00    +0.000 C 
ATOM     33  C   UNL     1       1.547  17.603  17.322  0.00  0.00    +0.000 C 
ATOM     34  O   UNL     1       1.278  18.297  16.341  0.00  0.00    +0.000 OA
ATOM     35  C   UNL     1       2.843  16.829  17.382  0.00  0.00    +0.000 C 
ATOM     36  C   UNL     1       2.699  15.492  18.091  0.00  0.00    +0.000 C 
BRANCH  30  37
ATOM     37  C   UNL     1       2.781  16.227  20.488  0.00  0.00    +0.000 C 
ATOM     38  O   UNL     1       3.999  16.179  20.548  0.00  0.00    +0.000 OA
BRANCH  37  39
ATOM     39  O   UNL     1       2.058  16.844  21.462  0.00  0.00    +0.000 OA
ATOM     40  H   UNL     1       1.193  16.402  21.579  0.00  0.00    +0.000 HD
ENDBRANCH  37  39
ENDBRANCH  30  37
ENDBRANCH  28  30
ENDBRANCH  10  26
TORSDOF 6
ENDMDL
MODEL 6
REMARK VINA RESULT:      -6.9      1.062      1.536
REMARK  Name = 
REMARK  9 active torsions:
REMARK  status: ('A' for Active; 'I' for Inactive)
REMARK    1  A    between atoms: C_1  and  C_2
REMARK    2  A    between atoms: C_4  and  C_5
REMARK    3  A    between atoms: C_6  and  N_7
REMARK    4  A    between atoms: N_10  and  C_11
REMARK    5  A    between atoms: C_20  and  C_21
REMARK    6  A    between atoms: N_23  and  C_24
REMARK    7  A    between atoms: C_24  and  C_25
REMARK    8  A    between atoms: C_25  and  O_27
REMARK    9  A    between atoms: C_34  and  C_35
REMARK                            x       y       z     vdW  Elec       q    Type
REMARK                         _______ _______ _______ _____ _____    ______ ____
ROOT
ATOM      1  C   UNL     1       1.835   9.854  18.389  0.00  0.00    +0.000 A 
ATOM      2  C   UNL     1       2.708   8.903  17.819  0.00  0.00    +0.000 A 
ATOM      3  C   UNL     1       2.850   7.600  18.354  0.00  0.00    +0.000 A 
ATOM      4  C   UNL     1       3.750   6.653  17.824  0.00  0.00    +0.000 A 
ATOM      5  C   UNL     1       3.878   5.380  18.393  0.00  0.00    +0.000 A 
ATOM      6  C   UNL     1       3.106   5.025  19.493  0.00  0.00    +0.000 A 
ATOM      7  C   UNL     1       2.208   5.945  20.027  0.00  0.00    +0.000 A 
ATOM      8  C   UNL     1       2.077   7.229  19.469  0.00  0.00    +0.000 A 
ATOM      9  C   UNL     1       1.171   8.153  19.999  0.00  0.00    +0.000 A 
ATOM     10  C   UNL     1       1.024   9.451  19.462  0.00  0.00    +0.000 A 
ENDROOT
BRANCH   1  14
ATOM     11  N   UNL     1       2.018  13.449  17.824  0.00  0.00    +0.000 N 
ATOM     12  C   UNL     1       2.061  12.302  18.615  0.00  0.00    +0.000 C 
ATOM     13  O   UNL     1       2.208  12.281  19.825  0.00  0.00    +0.000 OA
ATOM     14  N   UNL     1       1.855  11.167  17.825  0.00  0.00    +0.000 N 
ATOM     15  H   UNL     1       1.297  13.409  17.121  0.00  0.00    +0.000 HD
ATOM     16  H   UNL     1       2.341  11.253  16.939  0.00  0.00    +0.000 HD
BRANCH  11  22
ATOM     17  C   UNL     1       3.348  18.553  20.156  0.00  0.00    +0.000 C 
ATOM     18  C   UNL     1       2.971  17.265  19.483  0.00  0.00    +0.000 A 
ATOM     19  C   UNL     1       1.653  16.819  19.443  0.00  0.00    +0.000 A 
ATOM     20  C   UNL     1       1.305  15.576  18.866  0.00  0.00    +0.000 A 
ATOM     21  C   UNL     1      -0.131  15.139  18.997  0.00  0.00    +0.000 C 
ATOM     22  C   UNL     1       2.316  14.753  18.317  0.00  0.00    +0.000 A 
ATOM     23  C   UNL     1       3.663  15.185  18.387  0.00  0.00    +0.000 A 
ATOM     24  C   UNL     1       4.834  14.418  17.829  0.00  0.00    +0.000 C 
ATOM     25  C   UNL     1       3.962  16.452  18.933  0.00  0.00    +0.000 A 
ENDBRANCH  11  22
ENDBRANCH   1  14
BRANCH  10  26
ATOM     26  C   UNL     1      -0.129  10.199  20.039  0.00  0.00    +0.000 C 
ATOM     27  O   UNL     1      -1.220  10.127  19.482  0.00  0.00    +0.000 OA
ATOM     28  N   UNL     1       0.116  11.054  21.098  0.00  0.00    +0.000 N 
ATOM     29  H   UNL     1       0.914  10.800  21.670  0.00  0.00    +0.000 HD
BRANCH  28  30
ATOM     30  C   UNL     1      -0.956  11.906  21.690  0.00  0.00    +0.000 C 
ATOM     31  C   UNL     1      -2.095  12.169  20.684  0.00  0.00    +0.000 C 
ATOM     32  C   UNL     1      -3.122  13.200  21.148  0.00  0.00    +0.000 C 
ATOM     33  C   UNL     1      -2.479  14.449  21.696  0.00  0.00    +0.000 C 
ATOM     34  O   UNL     1      -2.982  15.558  21.510  0.00  0.00    +0.000 OA
ATOM     35  C   UNL     1      -1.320  14.283  22.651  0.00  0.00    +0.000 C 
ATOM     36  C   UNL     1      -0.327  13.227  22.194  0.00  0.00    +0.000 C 
BRANCH  30  37
ATOM     37  C   UNL     1      -1.504  11.135  22.924  0.00  0.00    +0.000 C 
ATOM     38  O   UNL     1      -2.591  11.313  23.450  0.00  0.00    +0.000 OA
BRANCH  37  39
ATOM     39  O   UNL     1      -0.600  10.272  23.462  0.00  0.00    +0.000 OA
ATOM     40  H   UNL     1      -0.927   9.352  23.402  0.00  0.00    +0.000 HD
ENDBRANCH  37  39
ENDBRANCH  30  37
ENDBRANCH  28  30
ENDBRANCH  10  26
TORSDOF 6
ENDMDL
MODEL 7
REMARK VINA RESULT:      -6.9      2.606      6.565
REMARK  Name = 
REMARK  9 active torsions:
REMARK  status: ('A' for Active; 'I' for Inactive)
REMARK    1  A    between atoms: C_1  and  C_2
REMARK    2  A    between atoms: C_4  and  C_5
REMARK    3  A    between atoms: C_6  and  N_7
REMARK    4  A    between atoms: N_10  and  C_11
REMARK    5  A    between atoms: C_20  and  C_21
REMARK    6  A    between atoms: N_23  and  C_24
REMARK    7  A    between atoms: C_24  and  C_25
REMARK    8  A    between atoms: C_25  and  O_27
REMARK    9  A    between atoms: C_34  and  C_35
REMARK                            x       y       z     vdW  Elec       q    Type
REMARK                         _______ _______ _______ _____ _____    ______ ____
ROOT
ATOM      1  C   UNL     1       0.170  11.662  21.113  0.00  0.00    +0.000 A 
ATOM      2  C   UNL     1       0.424  10.334  21.517  0.00  0.00    +0.000 A 
ATOM      3  C   UNL     1       1.012   9.385  20.646  0.00  0.00    +0.000 A 
ATOM      4  C   UNL     1       1.232   8.044  21.018  0.00  0.00    +0.000 A 
ATOM      5  C   UNL     1       1.798   7.128  20.122  0.00  0.00    +0.000 A 
ATOM      6  C   UNL     1       2.161   7.534  18.844  0.00  0.00    +0.000 A 
ATOM      7  C   UNL     1       1.956   8.857  18.459  0.00  0.00    +0.000 A 
ATOM      8  C   UNL     1       1.381   9.782  19.348  0.00  0.00    +0.000 A 
ATOM      9  C   UNL     1       1.181  11.113  18.968  0.00  0.00    +0.000 A 
ATOM     10  C   UNL     1       0.600  12.062  19.838  0.00  0.00    +0.000 A 
ENDROOT
BRANCH   1  14
ATOM     11  N   UNL     1      -2.261  13.740  22.860  0.00  0.00    +0.000 N 
ATOM     12  C   UNL     1      -1.831  12.930  21.810  0.00  0.00    +0.000 C 
ATOM     13  O   UNL     1      -2.474  12.668  20.808  0.00  0.00    +0.000 OA
ATOM     14  N   UNL     1      -0.522  12.497  22.044  0.00  0.00    +0.000 N 
ATOM     15  H   UNL     1      -1.540  14.365  23.189  0.00  0.00    +0.000 HD
ATOM     16  H   UNL     1      -0.389  12.262  23.022  0.00  0.00    +0.000 HD
BRANCH  11  22
ATOM     17  C   UNL     1      -7.761  15.461  23.058  0.00  0.00    +0.000 C 
ATOM     18  C   UNL     1      -6.310  15.076  23.058  0.00  0.00    +0.000 A 
ATOM     19  C   UNL     1      -5.366  15.783  22.317  0.00  0.00    +0.000 A 
ATOM     20  C   UNL     1      -4.011  15.384  22.264  0.00  0.00    +0.000 A 
ATOM     21  C   UNL     1      -3.109  16.145  21.328  0.00  0.00    +0.000 C 
ATOM     22  C   UNL     1      -3.593  14.234  22.975  0.00  0.00    +0.000 A 
ATOM     23  C   UNL     1      -4.556  13.491  23.701  0.00  0.00    +0.000 A 
ATOM     24  C   UNL     1      -4.247  12.259  24.513  0.00  0.00    +0.000 C 
ATOM     25  C   UNL     1      -5.890  13.948  23.761  0.00  0.00    +0.000 A 
ENDBRANCH  11  22
ENDBRANCH   1  14
BRANCH  10  26
ATOM     26  C   UNL     1       0.663  13.456  19.314  0.00  0.00    +0.000 C 
ATOM     27  O   UNL     1       0.030  13.738  18.302  0.00  0.00    +0.000 OA
ATOM     28  N   UNL     1       1.547  14.335  19.913  0.00  0.00    +0.000 N 
ATOM     29  H   UNL     1       1.751  14.132  20.885  0.00  0.00    +0.000 HD
BRANCH  28  30
ATOM     30  C   UNL     1       1.741  15.727  19.409  0.00  0.00    +0.000 C 
ATOM     31  C   UNL     1       0.394  16.447  19.193  0.00  0.00    +0.000 C 
ATOM     32  C   UNL     1       0.507  17.796  18.485  0.00  0.00    +0.000 C 
ATOM     33  C   UNL     1       1.380  17.731  17.256  0.00  0.00    +0.000 C 
ATOM     34  O   UNL     1       1.114  18.392  16.251  0.00  0.00    +0.000 OA
ATOM     35  C   UNL     1       2.696  16.999  17.367  0.00  0.00    +0.000 C 
ATOM     36  C   UNL     1       2.574  15.677  18.107  0.00  0.00    +0.000 C 
BRANCH  30  37
ATOM     37  C   UNL     1       2.578  16.475  20.485  0.00  0.00    +0.000 C 
ATOM     38  O   UNL     1       3.794  16.587  20.490  0.00  0.00    +0.000 OA
BRANCH  37  39
ATOM     39  O   UNL     1       1.829  16.936  21.523  0.00  0.00    +0.000 OA
ATOM     40  H   UNL     1       2.231  17.743  21.904  0.00  0.00    +0.000 HD
ENDBRANCH  37  39
ENDBRANCH  30  37
ENDBRANCH  28  30
ENDBRANCH  10  26
TORSDOF 6
ENDMDL
MODEL 8
REMARK VINA RESULT:      -6.8      2.567      8.601
REMARK  Name = 
REMARK  9 active torsions:
REMARK  status: ('A' for Active; 'I' for Inactive)
REMARK    1  A    between atoms: C_1  and  C_2
REMARK    2  A    between atoms: C_4  and  C_5
REMARK    3  A    between atoms: C_6  and  N_7
REMARK    4  A    between atoms: N_10  and  C_11
REMARK    5  A    between atoms: C_20  and  C_21
REMARK    6  A    between atoms: N_23  and  C_24
REMARK    7  A    between atoms: C_24  and  C_25
REMARK    8  A    between atoms: C_25  and  O_27
REMARK    9  A    between atoms: C_34  and  C_35
REMARK                            x       y       z     vdW  Elec       q    Type
REMARK                         _______ _______ _______ _____ _____    ______ ____
ROOT
ATOM      1  C   UNL     1      -0.610  13.708  21.714  0.00  0.00    +0.000 A 
ATOM      2  C   UNL     1      -1.520  13.741  22.792  0.00  0.00    +0.000 A 
ATOM      3  C   UNL     1      -1.480  14.760  23.775  0.00  0.00    +0.000 A 
ATOM      4  C   UNL     1      -2.352  14.784  24.882  0.00  0.00    +0.000 A 
ATOM      5  C   UNL     1      -2.270  15.797  25.846  0.00  0.00    +0.000 A 
ATOM      6  C   UNL     1      -1.323  16.806  25.720  0.00  0.00    +0.000 A 
ATOM      7  C   UNL     1      -0.456  16.802  24.630  0.00  0.00    +0.000 A 
ATOM      8  C   UNL     1      -0.525  15.786  23.661  0.00  0.00    +0.000 A 
ATOM      9  C   UNL     1       0.339  15.782  22.562  0.00  0.00    +0.000 A 
ATOM     10  C   UNL     1       0.296  14.771  21.577  0.00  0.00    +0.000 A 
ENDROOT
BRANCH   1  14
ATOM     11  N   UNL     1      -0.017  10.588  19.927  0.00  0.00    +0.000 N 
ATOM     12  C   UNL     1       0.278  11.560  20.882  0.00  0.00    +0.000 C 
ATOM     13  O   UNL     1       1.252  11.560  21.615  0.00  0.00    +0.000 OA
ATOM     14  N   UNL     1      -0.682  12.575  20.845  0.00  0.00    +0.000 N 
ATOM     15  H   UNL     1      -0.347  10.983  19.060  0.00  0.00    +0.000 HD
ATOM     16  H   UNL     1      -1.610  12.188  20.710  0.00  0.00    +0.000 HD
BRANCH  11  22
ATOM     17  C   UNL     1       3.161   5.782  19.697  0.00  0.00    +0.000 C 
ATOM     18  C   UNL     1       2.287   7.002  19.696  0.00  0.00    +0.000 A 
ATOM     19  C   UNL     1       2.395   7.979  18.710  0.00  0.00    +0.000 A 
ATOM     20  C   UNL     1       1.617   9.158  18.742  0.00  0.00    +0.000 A 
ATOM     21  C   UNL     1       1.913  10.202  17.697  0.00  0.00    +0.000 C 
ATOM     22  C   UNL     1       0.705   9.365  19.803  0.00  0.00    +0.000 A 
ATOM     23  C   UNL     1       0.616   8.392  20.828  0.00  0.00    +0.000 A 
ATOM     24  C   UNL     1      -0.322   8.476  22.005  0.00  0.00    +0.000 C 
ATOM     25  C   UNL     1       1.380   7.208  20.735  0.00  0.00    +0.000 A 
ENDBRANCH  11  22
ENDBRANCH   1  14
BRANCH  10  26
ATOM     26  C   UNL     1       1.157  15.063  20.395  0.00  0.00    +0.000 C 
ATOM     27  O   UNL     1       0.769  14.725  19.282  0.00  0.00    +0.000 OA
ATOM     28  N   UNL     1       2.420  15.579  20.624  0.00  0.00    +0.000 N 
ATOM     29  H   UNL     1       2.509  16.112  21.481  0.00  0.00    +0.000 HD
BRANCH  28  30
ATOM     30  C   UNL     1       3.384  15.828  19.512  0.00  0.00    +0.000 C 
ATOM     31  C   UNL     1       3.690  14.538  18.724  0.00  0.00    +0.000 C 
ATOM     32  C   UNL     1       4.822  14.673  17.708  0.00  0.00    +0.000 C 
ATOM     33  C   UNL     1       6.040  15.349  18.287  0.00  0.00    +0.000 C 
ATOM     34  O   UNL     1       7.176  15.004  17.959  0.00  0.00    +0.000 OA
ATOM     35  C   UNL     1       5.826  16.593  19.117  0.00  0.00    +0.000 C 
ATOM     36  C   UNL     1       4.671  16.456  20.097  0.00  0.00    +0.000 C 
BRANCH  30  37
ATOM     37  C   UNL     1       2.721  16.878  18.577  0.00  0.00    +0.000 C 
ATOM     38  O   UNL     1       2.522  16.742  17.381  0.00  0.00    +0.000 OA
BRANCH  37  39
ATOM     39  O   UNL     1       2.450  18.058  19.200  0.00  0.00    +0.000 OA
ATOM     40  H   UNL     1       2.953  18.127  20.037  0.00  0.00    +0.000 HD
ENDBRANCH  37  39
ENDBRANCH  30  37
ENDBRANCH  28  30
ENDBRANCH  10  26
TORSDOF 6
ENDMDL
MODEL 9
REMARK VINA RESULT:      -6.8      5.803      8.026
REMARK  Name = 
REMARK  9 active torsions:
REMARK  status: ('A' for Active; 'I' for Inactive)
REMARK    1  A    between atoms: C_1  and  C_2
REMARK    2  A    between atoms: C_4  and  C_5
REMARK    3  A    between atoms: C_6  and  N_7
REMARK    4  A    between atoms: N_10  and  C_11
REMARK    5  A    between atoms: C_20  and  C_21
REMARK    6  A    between atoms: N_23  and  C_24
REMARK    7  A    between atoms: C_24  and  C_25
REMARK    8  A    between atoms: C_25  and  O_27
REMARK    9  A    between atoms: C_34  and  C_35
REMARK                            x       y       z     vdW  Elec       q    Type
REMARK                         _______ _______ _______ _____ _____    ______ ____
ROOT
ATOM      1  C   UNL     1       8.152  14.744  20.218  0.00  0.00    +0.000 A 
ATOM      2  C   UNL     1       8.709  14.379  18.974  0.00  0.00    +0.000 A 
ATOM      3  C   UNL     1       9.769  13.445  18.873  0.00  0.00    +0.000 A 
ATOM      4  C   UNL     1      10.367  13.102  17.644  0.00  0.00    +0.000 A 
ATOM      5  C   UNL     1      11.428  12.189  17.585  0.00  0.00    +0.000 A 
ATOM      6  C   UNL     1      11.905  11.597  18.748  0.00  0.00    +0.000 A 
ATOM      7  C   UNL     1      11.323  11.919  19.972  0.00  0.00    +0.000 A 
ATOM      8  C   UNL     1      10.264  12.840  20.043  0.00  0.00    +0.000 A 
ATOM      9  C   UNL     1       9.673  13.161  21.269  0.00  0.00    +0.000 A 
ATOM     10  C   UNL     1       8.611  14.088  21.370  0.00  0.00    +0.000 A 
ENDROOT
BRANCH   1  14
ATOM     11  N   UNL     1       5.053  16.655  20.067  0.00  0.00    +0.000 N 
ATOM     12  C   UNL     1       5.799  15.478  20.069  0.00  0.00    +0.000 C 
ATOM     13  O   UNL     1       5.349  14.354  19.930  0.00  0.00    +0.000 OA
ATOM     14  N   UNL     1       7.159  15.773  20.201  0.00  0.00    +0.000 N 
ATOM     15  H   UNL     1       5.495  17.394  19.541  0.00  0.00    +0.000 HD
ATOM     16  H   UNL     1       7.302  16.526  20.866  0.00  0.00    +0.000 HD
BRANCH  11  22
ATOM     17  C   UNL     1      -0.705  16.381  20.215  0.00  0.00    +0.000 C 
ATOM     18  C   UNL     1       0.787  16.529  20.144  0.00  0.00    +0.000 A 
ATOM     19  C   UNL     1       1.478  16.403  18.942  0.00  0.00    +0.000 A 
ATOM     20  C   UNL     1       2.888  16.478  18.883  0.00  0.00    +0.000 A 
ATOM     21  C   UNL     1       3.533  16.197  17.551  0.00  0.00    +0.000 C 
ATOM     22  C   UNL     1       3.628  16.681  20.071  0.00  0.00    +0.000 A 
ATOM     23  C   UNL     1       2.933  16.774  21.302  0.00  0.00    +0.000 A 
ATOM     24  C   UNL     1       3.592  17.005  22.638  0.00  0.00    +0.000 C 
ATOM     25  C   UNL     1       1.521  16.736  21.311  0.00  0.00    +0.000 A 
ENDBRANCH  11  22
ENDBRANCH   1  14
BRANCH  10  26
ATOM     26  C   UNL     1       7.997  14.132  22.728  0.00  0.00    +0.000 C 
ATOM     27  O   UNL     1       8.117  15.151  23.399  0.00  0.00    +0.000 OA
ATOM     28  N   UNL     1       7.439  12.969  23.226  0.00  0.00    +0.000 N 
ATOM     29  H   UNL     1       7.099  12.327  22.518  0.00  0.00    +0.000 HD
BRANCH  28  30
ATOM     30  C   UNL     1       6.872  12.891  24.605  0.00  0.00    +0.000 C 
ATOM     31  C   UNL     1       7.952  13.139  25.678  0.00  0.00    +0.000 C 
ATOM     32  C   UNL     1       7.492  12.871  27.109  0.00  0.00    +0.000 C 
ATOM     33  C   UNL     1       6.772  11.553  27.247  0.00  0.00    +0.000 C 
ATOM     34  O   UNL     1       6.900  10.860  28.257  0.00  0.00    +0.000 OA
ATOM     35  C   UNL     1       5.733  11.207  26.207  0.00  0.00    +0.000 C 
ATOM     36  C   UNL     1       6.191  11.515  24.790  0.00  0.00    +0.000 C 
BRANCH  30  37
ATOM     37  C   UNL     1       5.772  13.986  24.694  0.00  0.00    +0.000 C 
ATOM     38  O   UNL     1       4.722  13.993  24.071  0.00  0.00    +0.000 OA
BRANCH  37  39
ATOM     39  O   UNL     1       6.123  15.038  25.483  0.00  0.00    +0.000 OA
ATOM     40  H   UNL     1       6.006  15.882  25.002  0.00  0.00    +0.000 HD
ENDBRANCH  37  39
ENDBRANCH  30  37
ENDBRANCH  28  30
ENDBRANCH  10  26
TORSDOF 6
ENDMDL
