MODEL 1
REMARK VINA RESULT:      -7.8      0.000      0.000
REMARK  Name = 
REMARK  2 active torsions:
REMARK  status: ('A' for Active; 'I' for Inactive)
REMARK    1  A    between atoms: C_2  and  C_3
REMARK    2  A    between atoms: N_16  and  C_17
REMARK                            x       y       z     vdW  Elec       q    Type
REMARK                         _______ _______ _______ _____ _____    ______ ____
ROOT
ATOM      1  O   UNL     1       2.152   9.990  17.632  0.00  0.00    +0.000 OA
ATOM      2  C   UNL     1       1.625   9.470  18.613  0.00  0.00    +0.000 C 
ATOM      3  N   UNL     1       0.712  10.169  19.394  0.00  0.00    +0.000 N 
ATOM      4  C   UNL     1      -0.168   9.621  20.433  0.00  0.00    +0.000 C 
ATOM      5  C   UNL     1       0.129  10.299  21.780  0.00  0.00    +0.000 C 
ATOM      6  N   UNL     1      -0.081  11.749  21.628  0.00  0.00    +0.000 N 
ATOM      7  C   UNL     1       0.700  12.381  20.542  0.00  0.00    +0.000 C 
ATOM      8  C   UNL     1       0.536  11.616  19.207  0.00  0.00    +0.000 C 
ENDROOT
BRANCH   2   9
ATOM      9  C   UNL     1       1.936   8.093  18.959  0.00  0.00    +0.000 A 
ATOM     10  C   UNL     1       2.023   7.430  20.170  0.00  0.00    +0.000 A 
ATOM     11  C   UNL     1       2.227   6.052  19.919  0.00  0.00    +0.000 A 
ATOM     12  C   UNL     1       2.260   4.913  20.742  0.00  0.00    +0.000 A 
ATOM     13  C   UNL     1       2.547   3.683  20.157  0.00  0.00    +0.000 A 
ATOM     14  F   UNL     1       2.583   2.590  20.930  0.00  0.00    +0.000 F 
ATOM     15  C   UNL     1       2.802   3.566  18.795  0.00  0.00    +0.000 A 
ATOM     16  C   UNL     1       2.749   4.685  17.957  0.00  0.00    +0.000 A 
ATOM     17  C   UNL     1       2.444   5.916  18.551  0.00  0.00    +0.000 A 
ATOM     18  N   UNL     1       2.303   7.170  18.000  0.00  0.00    +0.000 N 
ATOM     19  H   UNL     1       2.404   7.394  17.017  0.00  0.00    +0.000 HD
ENDBRANCH   2   9
BRANCH   6  20
ATOM     20  C   UNL     1      -0.974  12.434  22.423  0.00  0.00    +0.000 A 
ATOM     21  C   UNL     1      -2.184  11.847  22.839  0.00  0.00    +0.000 A 
ATOM     22  C   UNL     1      -3.098  12.530  23.647  0.00  0.00    +0.000 A 
ATOM     23  C   UNL     1      -2.813  13.824  24.051  0.00  0.00    +0.000 A 
ATOM     24  F   UNL     1      -3.683  14.480  24.829  0.00  0.00    +0.000 F 
ATOM     25  C   UNL     1      -1.640  14.442  23.657  0.00  0.00    +0.000 A 
ATOM     26  C   UNL     1      -0.731  13.749  22.849  0.00  0.00    +0.000 A 
ENDBRANCH   6  20
TORSDOF 2
ENDMDL
MODEL 2
REMARK VINA RESULT:      -7.7      4.689      6.899
REMARK  Name = 
REMARK  2 active torsions:
REMARK  status: ('A' for Active; 'I' for Inactive)
REMARK    1  A    between atoms: C_2  and  C_3
REMARK    2  A    between atoms: N_16  and  C_17
REMARK                            x       y       z     vdW  Elec       q    Type
REMARK                         _______ _______ _______ _____ _____    ______ ____
ROOT
ATOM      1  O   UNL     1       5.701   3.559  18.837  0.00  0.00    +0.000 OA
ATOM      2  C   UNL     1       5.455   4.466  18.045  0.00  0.00    +0.000 C 
ATOM      3  N   UNL     1       4.763   5.602  18.446  0.00  0.00    +0.000 N 
ATOM      4  C   UNL     1       4.605   6.855  17.698  0.00  0.00    +0.000 C 
ATOM      5  C   UNL     1       3.114   7.134  17.456  0.00  0.00    +0.000 C 
ATOM      6  N   UNL     1       2.438   7.217  18.762  0.00  0.00    +0.000 N 
ATOM      7  C   UNL     1       2.613   6.032  19.630  0.00  0.00    +0.000 C 
ATOM      8  C   UNL     1       4.103   5.640  19.759  0.00  0.00    +0.000 C 
ENDROOT
BRANCH   2   9
ATOM      9  C   UNL     1       5.912   4.371  16.669  0.00  0.00    +0.000 A 
ATOM     10  C   UNL     1       5.546   3.549  15.617  0.00  0.00    +0.000 A 
ATOM     11  C   UNL     1       6.221   3.979  14.450  0.00  0.00    +0.000 A 
ATOM     12  C   UNL     1       6.141   3.612  13.095  0.00  0.00    +0.000 A 
ATOM     13  C   UNL     1       7.014   4.216  12.195  0.00  0.00    +0.000 A 
ATOM     14  F   UNL     1       6.950   3.874  10.901  0.00  0.00    +0.000 F 
ATOM     15  C   UNL     1       7.950   5.158  12.607  0.00  0.00    +0.000 A 
ATOM     16  C   UNL     1       8.026   5.554  13.947  0.00  0.00    +0.000 A 
ATOM     17  C   UNL     1       7.135   4.952  14.844  0.00  0.00    +0.000 A 
ATOM     18  N   UNL     1       6.956   5.141  16.196  0.00  0.00    +0.000 N 
ATOM     19  H   UNL     1       7.478   5.789  16.772  0.00  0.00    +0.000 HD
ENDBRANCH   2   9
BRANCH   6  20
ATOM     20  C   UNL     1       1.737   8.342  19.139  0.00  0.00    +0.000 A 
ATOM     21  C   UNL     1       1.313   8.531  20.467  0.00  0.00    +0.000 A 
ATOM     22  C   UNL     1       0.603   9.669  20.864  0.00  0.00    +0.000 A 
ATOM     23  C   UNL     1       0.302  10.642  19.925  0.00  0.00    +0.000 A 
ATOM     24  F   UNL     1      -0.374  11.736  20.300  0.00  0.00    +0.000 F 
ATOM     25  C   UNL     1       0.691  10.492  18.605  0.00  0.00    +0.000 A 
ATOM     26  C   UNL     1       1.402   9.350  18.220  0.00  0.00    +0.000 A 
ENDBRANCH   6  20
TORSDOF 2
ENDMDL
MODEL 3
REMARK VINA RESULT:      -7.7      3.857      5.868
REMARK  Name = 
REMARK  2 active torsions:
REMARK  status: ('A' for Active; 'I' for Inactive)
REMARK    1  A    between atoms: C_2  and  C_3
REMARK    2  A    between atoms: N_16  and  C_17
REMARK                            x       y       z     vdW  Elec       q    Type
REMARK                         _______ _______ _______ _____ _____    ______ ____
ROOT
ATOM      1  O   UNL     1       3.629   2.752  19.787  0.00  0.00    +0.000 OA
ATOM      2  C   UNL     1       3.807   3.837  19.237  0.00  0.00    +0.000 C 
ATOM      3  N   UNL     1       3.357   5.018  19.815  0.00  0.00    +0.000 N 
ATOM      4  C   UNL     1       3.697   6.388  19.412  0.00  0.00    +0.000 C 
ATOM      5  C   UNL     1       2.421   7.151  19.027  0.00  0.00    +0.000 C 
ATOM      6  N   UNL     1       1.514   7.158  20.187  0.00  0.00    +0.000 N 
ATOM      7  C   UNL     1       1.180   5.821  20.725  0.00  0.00    +0.000 C 
ATOM      8  C   UNL     1       2.452   4.976  20.973  0.00  0.00    +0.000 C 
ENDROOT
BRANCH   2   9
ATOM      9  C   UNL     1       4.520   3.900  17.973  0.00  0.00    +0.000 A 
ATOM     10  C   UNL     1       4.175   3.531  16.685  0.00  0.00    +0.000 A 
ATOM     11  C   UNL     1       5.203   3.943  15.804  0.00  0.00    +0.000 A 
ATOM     12  C   UNL     1       5.333   3.949  14.404  0.00  0.00    +0.000 A 
ATOM     13  C   UNL     1       6.536   4.385  13.855  0.00  0.00    +0.000 A 
ATOM     14  F   UNL     1       6.674   4.395  12.522  0.00  0.00    +0.000 F 
ATOM     15  C   UNL     1       7.594   4.803  14.654  0.00  0.00    +0.000 A 
ATOM     16  C   UNL     1       7.473   4.826  16.048  0.00  0.00    +0.000 A 
ATOM     17  C   UNL     1       6.256   4.400  16.592  0.00  0.00    +0.000 A 
ATOM     18  N   UNL     1       5.832   4.326  17.901  0.00  0.00    +0.000 N 
ATOM     19  H   UNL     1       6.380   4.591  18.710  0.00  0.00    +0.000 HD
ENDBRANCH   2   9
BRANCH   6  20
ATOM     20  C   UNL     1       1.058   8.336  20.737  0.00  0.00    +0.000 A 
ATOM     21  C   UNL     1       0.653   8.408  22.083  0.00  0.00    +0.000 A 
ATOM     22  C   UNL     1       0.191   9.598  22.654  0.00  0.00    +0.000 A 
ATOM     23  C   UNL     1       0.125  10.743  21.878  0.00  0.00    +0.000 A 
ATOM     24  F   UNL     1      -0.312  11.887  22.421  0.00  0.00    +0.000 F 
ATOM     25  C   UNL     1       0.505  10.715  20.547  0.00  0.00    +0.000 A 
ATOM     26  C   UNL     1       0.967   9.519  19.986  0.00  0.00    +0.000 A 
ENDBRANCH   6  20
TORSDOF 2
ENDMDL
MODEL 4
REMARK VINA RESULT:      -7.5      4.593      6.709
REMARK  Name = 
REMARK  2 active torsions:
REMARK  status: ('A' for Active; 'I' for Inactive)
REMARK    1  A    between atoms: C_2  and  C_3
REMARK    2  A    between atoms: N_16  and  C_17
REMARK                            x       y       z     vdW  Elec       q    Type
REMARK                         _______ _______ _______ _____ _____    ______ ____
ROOT
ATOM      1  O   UNL     1       5.705   3.658  18.658  0.00  0.00    +0.000 OA
ATOM      2  C   UNL     1       5.370   4.599  17.943  0.00  0.00    +0.000 C 
ATOM      3  N   UNL     1       4.681   5.688  18.462  0.00  0.00    +0.000 N 
ATOM      4  C   UNL     1       4.429   6.974  17.804  0.00  0.00    +0.000 C 
ATOM      5  C   UNL     1       2.915   7.218  17.696  0.00  0.00    +0.000 C 
ATOM      6  N   UNL     1       2.344   7.206  19.054  0.00  0.00    +0.000 N 
ATOM      7  C   UNL     1       2.621   5.980  19.835  0.00  0.00    +0.000 C 
ATOM      8  C   UNL     1       4.128   5.630  19.823  0.00  0.00    +0.000 C 
ENDROOT
BRANCH   2   9
ATOM      9  C   UNL     1       5.718   4.596  16.532  0.00  0.00    +0.000 A 
ATOM     10  C   UNL     1       6.741   5.196  15.820  0.00  0.00    +0.000 A 
ATOM     11  C   UNL     1       6.685   4.746  14.478  0.00  0.00    +0.000 A 
ATOM     12  C   UNL     1       7.526   4.916  13.365  0.00  0.00    +0.000 A 
ATOM     13  C   UNL     1       7.130   4.366  12.149  0.00  0.00    +0.000 A 
ATOM     14  F   UNL     1       7.922   4.521  11.079  0.00  0.00    +0.000 F 
ATOM     15  C   UNL     1       5.935   3.669  12.018  0.00  0.00    +0.000 A 
ATOM     16  C   UNL     1       5.097   3.470  13.122  0.00  0.00    +0.000 A 
ATOM     17  C   UNL     1       5.509   4.013  14.345  0.00  0.00    +0.000 A 
ATOM     18  N   UNL     1       4.924   3.971  15.590  0.00  0.00    +0.000 N 
ATOM     19  H   UNL     1       4.052   3.507  15.813  0.00  0.00    +0.000 HD
ENDBRANCH   2   9
BRANCH   6  20
ATOM     20  C   UNL     1       1.644   8.284  19.550  0.00  0.00    +0.000 A 
ATOM     21  C   UNL     1       1.236   8.337  20.896  0.00  0.00    +0.000 A 
ATOM     22  C   UNL     1       0.528   9.427  21.412  0.00  0.00    +0.000 A 
ATOM     23  C   UNL     1       0.212  10.487  20.580  0.00  0.00    +0.000 A 
ATOM     24  F   UNL     1      -0.463  11.535  21.070  0.00  0.00    +0.000 F 
ATOM     25  C   UNL     1       0.585  10.472  19.247  0.00  0.00    +0.000 A 
ATOM     26  C   UNL     1       1.295   9.378  18.741  0.00  0.00    +0.000 A 
ENDBRANCH   6  20
TORSDOF 2
ENDMDL
MODEL 5
REMARK VINA RESULT:      -7.5      4.015      6.127
REMARK  Name = 
REMARK  2 active torsions:
REMARK  status: ('A' for Active; 'I' for Inactive)
REMARK    1  A    between atoms: C_2  and  C_3
REMARK    2  A    between atoms: N_16  and  C_17
REMARK                            x       y       z     vdW  Elec       q    Type
REMARK                         _______ _______ _______ _____ _____    ______ ____
ROOT
ATOM      1  O   UNL     1       4.095   2.805  19.591  0.00  0.00    +0.000 OA
ATOM      2  C   UNL     1       4.182   3.874  18.991  0.00  0.00    +0.000 C 
ATOM      3  N   UNL     1       3.704   5.053  19.550  0.00  0.00    +0.000 N 
ATOM      4  C   UNL     1       3.945   6.421  19.076  0.00  0.00    +0.000 C 
ATOM      5  C   UNL     1       2.609   7.101  18.740  0.00  0.00    +0.000 C 
ATOM      6  N   UNL     1       1.772   7.108  19.953  0.00  0.00    +0.000 N 
ATOM      7  C   UNL     1       1.544   5.778  20.560  0.00  0.00    +0.000 C 
ATOM      8  C   UNL     1       2.872   5.012  20.762  0.00  0.00    +0.000 C 
ENDROOT
BRANCH   2   9
ATOM      9  C   UNL     1       4.815   3.922  17.684  0.00  0.00    +0.000 A 
ATOM     10  C   UNL     1       4.427   3.459  16.440  0.00  0.00    +0.000 A 
ATOM     11  C   UNL     1       5.369   3.898  15.478  0.00  0.00    +0.000 A 
ATOM     12  C   UNL     1       5.418   3.839  14.074  0.00  0.00    +0.000 A 
ATOM     13  C   UNL     1       6.550   4.334  13.432  0.00  0.00    +0.000 A 
ATOM     14  F   UNL     1       6.610   4.282  12.095  0.00  0.00    +0.000 F 
ATOM     15  C   UNL     1       7.616   4.872  14.144  0.00  0.00    +0.000 A 
ATOM     16  C   UNL     1       7.573   4.960  15.540  0.00  0.00    +0.000 A 
ATOM     17  C   UNL     1       6.425   4.475  16.178  0.00  0.00    +0.000 A 
ATOM     18  N   UNL     1       6.084   4.440  17.511  0.00  0.00    +0.000 N 
ATOM     19  H   UNL     1       6.654   4.788  18.272  0.00  0.00    +0.000 HD
ENDBRANCH   2   9
BRANCH   6  20
ATOM     20  C   UNL     1       1.287   8.283  20.485  0.00  0.00    +0.000 A 
ATOM     21  C   UNL     1       0.995   9.391  19.669  0.00  0.00    +0.000 A 
ATOM     22  C   UNL     1       0.500  10.589  20.195  0.00  0.00    +0.000 A 
ATOM     23  C   UNL     1       0.292  10.695  21.561  0.00  0.00    +0.000 A 
ATOM     24  F   UNL     1      -0.186  11.838  22.070  0.00  0.00    +0.000 F 
ATOM     25  C   UNL     1       0.575   9.632  22.401  0.00  0.00    +0.000 A 
ATOM     26  C   UNL     1       1.069   8.438  21.863  0.00  0.00    +0.000 A 
ENDBRANCH   6  20
TORSDOF 2
ENDMDL
MODEL 6
REMARK VINA RESULT:      -7.5      4.206     10.240
REMARK  Name = 
REMARK  2 active torsions:
REMARK  status: ('A' for Active; 'I' for Inactive)
REMARK    1  A    between atoms: C_2  and  C_3
REMARK    2  A    between atoms: N_16  and  C_17
REMARK                            x       y       z     vdW  Elec       q    Type
REMARK                         _______ _______ _______ _____ _____    ______ ____
ROOT
ATOM      1  O   UNL     1       2.952   4.749  20.767  0.00  0.00    +0.000 OA
ATOM      2  C   UNL     1       2.901   5.533  19.823  0.00  0.00    +0.000 C 
ATOM      3  N   UNL     1       3.414   5.192  18.577  0.00  0.00    +0.000 N 
ATOM      4  C   UNL     1       3.217   5.908  17.311  0.00  0.00    +0.000 C 
ATOM      5  C   UNL     1       4.576   6.348  16.744  0.00  0.00    +0.000 C 
ATOM      6  N   UNL     1       5.407   5.149  16.542  0.00  0.00    +0.000 N 
ATOM      7  C   UNL     1       5.591   4.309  17.746  0.00  0.00    +0.000 C 
ATOM      8  C   UNL     1       4.238   3.985  18.423  0.00  0.00    +0.000 C 
ENDROOT
BRANCH   2   9
ATOM      9  C   UNL     1       2.275   6.833  19.993  0.00  0.00    +0.000 A 
ATOM     10  C   UNL     1       2.148   7.927  19.155  0.00  0.00    +0.000 A 
ATOM     11  C   UNL     1       1.319   8.886  19.784  0.00  0.00    +0.000 A 
ATOM     12  C   UNL     1       0.754  10.102  19.362  0.00  0.00    +0.000 A 
ATOM     13  C   UNL     1       0.014  10.841  20.281  0.00  0.00    +0.000 A 
ATOM     14  F   UNL     1      -0.530  12.002  19.893  0.00  0.00    +0.000 F 
ATOM     15  C   UNL     1      -0.168  10.405  21.589  0.00  0.00    +0.000 A 
ATOM     16  C   UNL     1       0.367   9.186  22.019  0.00  0.00    +0.000 A 
ATOM     17  C   UNL     1       1.097   8.442  21.085  0.00  0.00    +0.000 A 
ATOM     18  N   UNL     1       1.719   7.219  21.197  0.00  0.00    +0.000 N 
ATOM     19  H   UNL     1       1.735   6.643  22.030  0.00  0.00    +0.000 HD
ENDBRANCH   2   9
BRANCH   6  20
ATOM     20  C   UNL     1       5.926   4.834  15.305  0.00  0.00    +0.000 A 
ATOM     21  C   UNL     1       7.132   5.398  14.851  0.00  0.00    +0.000 A 
ATOM     22  C   UNL     1       7.671   5.085  13.599  0.00  0.00    +0.000 A 
ATOM     23  C   UNL     1       7.002   4.196  12.775  0.00  0.00    +0.000 A 
ATOM     24  F   UNL     1       7.516   3.889  11.577  0.00  0.00    +0.000 F 
ATOM     25  C   UNL     1       5.808   3.625  13.178  0.00  0.00    +0.000 A 
ATOM     26  C   UNL     1       5.278   3.944  14.433  0.00  0.00    +0.000 A 
ENDBRANCH   6  20
TORSDOF 2
ENDMDL
MODEL 7
REMARK VINA RESULT:      -7.5      3.881      9.954
REMARK  Name = 
REMARK  2 active torsions:
REMARK  status: ('A' for Active; 'I' for Inactive)
REMARK    1  A    between atoms: C_2  and  C_3
REMARK    2  A    between atoms: N_16  and  C_17
REMARK                            x       y       z     vdW  Elec       q    Type
REMARK                         _______ _______ _______ _____ _____    ______ ____
ROOT
ATOM      1  O   UNL     1       2.263   4.846  21.114  0.00  0.00    +0.000 OA
ATOM      2  C   UNL     1       2.352   5.680  20.216  0.00  0.00    +0.000 C 
ATOM      3  N   UNL     1       2.915   5.356  18.987  0.00  0.00    +0.000 N 
ATOM      4  C   UNL     1       2.875   6.153  17.756  0.00  0.00    +0.000 C 
ATOM      5  C   UNL     1       4.305   6.487  17.303  0.00  0.00    +0.000 C 
ATOM      6  N   UNL     1       5.031   5.224  17.084  0.00  0.00    +0.000 N 
ATOM      7  C   UNL     1       5.051   4.308  18.246  0.00  0.00    +0.000 C 
ATOM      8  C   UNL     1       3.630   4.083  18.816  0.00  0.00    +0.000 C 
ENDROOT
BRANCH   2   9
ATOM      9  C   UNL     1       1.842   7.025  20.422  0.00  0.00    +0.000 A 
ATOM     10  C   UNL     1       1.842   8.157  19.627  0.00  0.00    +0.000 A 
ATOM     11  C   UNL     1       1.084   9.164  20.271  0.00  0.00    +0.000 A 
ATOM     12  C   UNL     1       0.645  10.442  19.884  0.00  0.00    +0.000 A 
ATOM     13  C   UNL     1      -0.054  11.210  20.812  0.00  0.00    +0.000 A 
ATOM     14  F   UNL     1      -0.476  12.431  20.456  0.00  0.00    +0.000 F 
ATOM     15  C   UNL     1      -0.317  10.743  22.094  0.00  0.00    +0.000 A 
ATOM     16  C   UNL     1       0.091   9.463  22.488  0.00  0.00    +0.000 A 
ATOM     17  C   UNL     1       0.780   8.692  21.545  0.00  0.00    +0.000 A 
ATOM     18  N   UNL     1       1.285   7.413  21.625  0.00  0.00    +0.000 N 
ATOM     19  H   UNL     1       1.221   6.807  22.433  0.00  0.00    +0.000 HD
ENDBRANCH   2   9
BRANCH   6  20
ATOM     20  C   UNL     1       5.602   4.924  15.867  0.00  0.00    +0.000 A 
ATOM     21  C   UNL     1       4.915   4.164  14.902  0.00  0.00    +0.000 A 
ATOM     22  C   UNL     1       5.482   3.855  13.662  0.00  0.00    +0.000 A 
ATOM     23  C   UNL     1       6.760   4.303  13.369  0.00  0.00    +0.000 A 
ATOM     24  F   UNL     1       7.306   4.014  12.181  0.00  0.00    +0.000 F 
ATOM     25  C   UNL     1       7.475   5.044  14.293  0.00  0.00    +0.000 A 
ATOM     26  C   UNL     1       6.897   5.350  15.530  0.00  0.00    +0.000 A 
ENDBRANCH   6  20
TORSDOF 2
ENDMDL
MODEL 8
REMARK VINA RESULT:      -7.3      2.451      8.854
REMARK  Name = 
REMARK  2 active torsions:
REMARK  status: ('A' for Active; 'I' for Inactive)
REMARK    1  A    between atoms: C_2  and  C_3
REMARK    2  A    between atoms: N_16  and  C_17
REMARK                            x       y       z     vdW  Elec       q    Type
REMARK                         _______ _______ _______ _____ _____    ______ ____
ROOT
ATOM      1  O   UNL     1      -0.456  14.411  21.033  0.00  0.00    +0.000 OA
ATOM      2  C   UNL     1      -0.877  13.273  21.229  0.00  0.00    +0.000 C 
ATOM      3  N   UNL     1      -0.087  12.160  20.970  0.00  0.00    +0.000 N 
ATOM      4  C   UNL     1      -0.350  10.773  21.372  0.00  0.00    +0.000 C 
ATOM      5  C   UNL     1      -0.437   9.876  20.128  0.00  0.00    +0.000 C 
ATOM      6  N   UNL     1       0.835   9.974  19.393  0.00  0.00    +0.000 N 
ATOM      7  C   UNL     1       1.234  11.349  19.019  0.00  0.00    +0.000 C 
ATOM      8  C   UNL     1       1.176  12.306  20.233  0.00  0.00    +0.000 C 
ENDROOT
BRANCH   2   9
ATOM      9  C   UNL     1      -2.213  13.078  21.765  0.00  0.00    +0.000 A 
ATOM     10  C   UNL     1      -2.703  13.022  23.058  0.00  0.00    +0.000 A 
ATOM     11  C   UNL     1      -4.116  12.948  23.004  0.00  0.00    +0.000 A 
ATOM     12  C   UNL     1      -5.125  12.997  23.982  0.00  0.00    +0.000 A 
ATOM     13  C   UNL     1      -6.447  12.834  23.575  0.00  0.00    +0.000 A 
ATOM     14  F   UNL     1      -7.419  12.877  24.496  0.00  0.00    +0.000 F 
ATOM     15  C   UNL     1      -6.778  12.622  22.242  0.00  0.00    +0.000 A 
ATOM     16  C   UNL     1      -5.789  12.595  21.253  0.00  0.00    +0.000 A 
ATOM     17  C   UNL     1      -4.464  12.775  21.667  0.00  0.00    +0.000 A 
ATOM     18  N   UNL     1      -3.293  12.816  20.944  0.00  0.00    +0.000 N 
ATOM     19  H   UNL     1      -3.220  12.719  19.939  0.00  0.00    +0.000 HD
ENDBRANCH   2   9
BRANCH   6  20
ATOM     20  C   UNL     1       1.599   8.859  19.125  0.00  0.00    +0.000 A 
ATOM     21  C   UNL     1       2.296   8.723  17.910  0.00  0.00    +0.000 A 
ATOM     22  C   UNL     1       3.076   7.597  17.626  0.00  0.00    +0.000 A 
ATOM     23  C   UNL     1       3.166   6.580  18.562  0.00  0.00    +0.000 A 
ATOM     24  F   UNL     1       3.916   5.502  18.297  0.00  0.00    +0.000 F 
ATOM     25  C   UNL     1       2.489   6.669  19.765  0.00  0.00    +0.000 A 
ATOM     26  C   UNL     1       1.713   7.800  20.040  0.00  0.00    +0.000 A 
ENDBRANCH   6  20
TORSDOF 2
ENDMDL
MODEL 9
REMARK VINA RESULT:      -7.3      1.056      1.200
REMARK  Name = 
REMARK  2 active torsions:
REMARK  status: ('A' for Active; 'I' for Inactive)
REMARK    1  A    between atoms: C_2  and  C_3
REMARK    2  A    between atoms: N_16  and  C_17
REMARK                            x       y       z     vdW  Elec       q    Type
REMARK                         _______ _______ _______ _____ _____    ______ ____
ROOT
ATOM      1  O   UNL     1       2.563   9.001  17.252  0.00  0.00    +0.000 OA
ATOM      2  C   UNL     1       1.985   8.728  18.301  0.00  0.00    +0.000 C 
ATOM      3  N   UNL     1       1.207   9.671  18.960  0.00  0.00    +0.000 N 
ATOM      4  C   UNL     1       0.276   9.435  20.070  0.00  0.00    +0.000 C 
ATOM      5  C   UNL     1       0.702  10.260  21.294  0.00  0.00    +0.000 C 
ATOM      6  N   UNL     1       0.714  11.683  20.916  0.00  0.00    +0.000 N 
ATOM      7  C   UNL     1       1.558  12.010  19.746  0.00  0.00    +0.000 C 
ATOM      8  C   UNL     1       1.250  11.082  18.548  0.00  0.00    +0.000 C 
ENDROOT
BRANCH   2   9
ATOM      9  C   UNL     1       2.089   7.390  18.859  0.00  0.00    +0.000 A 
ATOM     10  C   UNL     1       2.275   6.928  20.150  0.00  0.00    +0.000 A 
ATOM     11  C   UNL     1       2.163   5.516  20.147  0.00  0.00    +0.000 A 
ATOM     12  C   UNL     1       2.135   4.545  21.163  0.00  0.00    +0.000 A 
ATOM     13  C   UNL     1       2.069   3.205  20.794  0.00  0.00    +0.000 A 
ATOM     14  F   UNL     1       2.042   2.269  21.752  0.00  0.00    +0.000 F 
ATOM     15  C   UNL     1       2.036   2.817  19.459  0.00  0.00    +0.000 A 
ATOM     16  C   UNL     1       2.040   3.771  18.435  0.00  0.00    +0.000 A 
ATOM     17  C   UNL     1       2.091   5.117  18.815  0.00  0.00    +0.000 A 
ATOM     18  N   UNL     1       2.089   6.267  18.056  0.00  0.00    +0.000 N 
ATOM     19  H   UNL     1       2.044   6.302  17.045  0.00  0.00    +0.000 HD
ENDBRANCH   2   9
BRANCH   6  20
ATOM     20  C   UNL     1      -0.047  12.613  21.591  0.00  0.00    +0.000 A 
ATOM     21  C   UNL     1      -0.880  12.240  22.662  0.00  0.00    +0.000 A 
ATOM     22  C   UNL     1      -1.656  13.173  23.357  0.00  0.00    +0.000 A 
ATOM     23  C   UNL     1      -1.610  14.506  22.983  0.00  0.00    +0.000 A 
ATOM     24  F   UNL     1      -2.347  15.405  23.649  0.00  0.00    +0.000 F 
ATOM     25  C   UNL     1      -0.812  14.915  21.929  0.00  0.00    +0.000 A 
ATOM     26  C   UNL     1      -0.039  13.973  21.242  0.00  0.00    +0.000 A 
ENDBRANCH   6  20
TORSDOF 2
ENDMDL
