MODEL 1
REMARK VINA RESULT:      -7.1      0.000      0.000
REMARK  Name = 
REMARK  8 active torsions:
REMARK  status: ('A' for Active; 'I' for Inactive)
REMARK    1  A    between atoms: C_1  and  O_2
REMARK    2  A    between atoms: O_2  and  C_3
REMARK    3  A    between atoms: C_8  and  C_9
REMARK    4  A    between atoms: C_9  and  C_10
REMARK    5  A    between atoms: C_9  and  C_20
REMARK    6  A    between atoms: C_20  and  C_21
REMARK    7  A    between atoms: C_20  and  C_22
REMARK    8  A    between atoms: C_20  and  C_24
REMARK                            x       y       z     vdW  Elec       q    Type
REMARK                         _______ _______ _______ _____ _____    ______ ____
ROOT
ATOM      1  C   UNL     1      -0.905  12.164  20.034  0.00  0.00    +0.000 C 
ENDROOT
BRANCH   1   2
ATOM      2  C   UNL     1      -0.499  10.764  20.592  0.00  0.00    +0.000 A 
ATOM      3  C   UNL     1      -0.695  10.542  21.967  0.00  0.00    +0.000 A 
ATOM      4  C   UNL     1      -0.058   9.499  22.621  0.00  0.00    +0.000 A 
ATOM      5  C   UNL     1       0.839   8.697  21.926  0.00  0.00    +0.000 A 
ATOM      6  C   UNL     1       1.027   8.852  20.549  0.00  0.00    +0.000 A 
ATOM      7  C   UNL     1       2.028   8.105  19.907  0.00  0.00    +0.000 A 
ATOM      8  C   UNL     1       2.250   8.224  18.538  0.00  0.00    +0.000 A 
ATOM      9  C   UNL     1       1.405   9.020  17.781  0.00  0.00    +0.000 A 
ATOM     10  C   UNL     1       0.411   9.782  18.412  0.00  0.00    +0.000 A 
ATOM     11  C   UNL     1       0.268   9.805  19.829  0.00  0.00    +0.000 A 
ENDBRANCH   1   2
BRANCH   1  17
ATOM     12  C   UNL     1      -2.875  11.821  18.284  0.00  0.00    +0.000 A 
ATOM     13  C   UNL     1      -4.252  11.637  18.067  0.00  0.00    +0.000 A 
ATOM     14  C   UNL     1      -5.178  12.081  18.997  0.00  0.00    +0.000 A 
ATOM     15  C   UNL     1      -4.725  12.680  20.163  0.00  0.00    +0.000 A 
ATOM     16  C   UNL     1      -3.352  12.721  20.445  0.00  0.00    +0.000 A 
ATOM     17  C   UNL     1      -2.384  12.238  19.534  0.00  0.00    +0.000 A 
BRANCH  12  19
ATOM     18  C   UNL     1      -2.676  10.939  16.139  0.00  0.00    +0.000 C 
ATOM     19  O   UNL     1      -2.025  11.610  17.233  0.00  0.00    +0.000 OA
ENDBRANCH  12  19
ENDBRANCH   1  17
BRANCH   1  20
ATOM     20  C   UNL     1      -0.275  13.395  20.873  0.00  0.00    +0.000 C 
ATOM     21  C   UNL     1      -0.907  13.437  22.292  0.00  0.00    +0.000 C 
BRANCH  20  22
ATOM     22  C   UNL     1      -0.490  14.805  20.257  0.00  0.00    +0.000 C 
ATOM     23  O   UNL     1      -1.247  15.618  20.804  0.00  0.00    +0.000 OA
ATOM     24  N   UNL     1       0.223  15.214  19.121  0.00  0.00    +0.000 N 
ATOM     25  C   UNL     1       1.241  14.479  18.359  0.00  0.00    +0.000 C 
ATOM     26  C   UNL     1       2.578  15.221  18.422  0.00  0.00    +0.000 C 
ATOM     27  C   UNL     1       2.421  16.641  17.886  0.00  0.00    +0.000 C 
ATOM     28  C   UNL     1       1.298  17.375  18.619  0.00  0.00    +0.000 C 
ATOM     29  C   UNL     1      -0.002  16.569  18.605  0.00  0.00    +0.000 C 
ENDBRANCH  20  22
BRANCH  20  30
ATOM     30  C   UNL     1       1.173  13.126  21.035  0.00  0.00    +0.000 C 
ATOM     31  N   UNL     1       2.301  12.927  21.228  0.00  0.00    +0.000 NA
ENDBRANCH  20  30
ENDBRANCH   1  20
TORSDOF 6
ENDMDL
MODEL 2
REMARK VINA RESULT:      -6.9      1.814      2.647
REMARK  Name = 
REMARK  8 active torsions:
REMARK  status: ('A' for Active; 'I' for Inactive)
REMARK    1  A    between atoms: C_1  and  O_2
REMARK    2  A    between atoms: O_2  and  C_3
REMARK    3  A    between atoms: C_8  and  C_9
REMARK    4  A    between atoms: C_9  and  C_10
REMARK    5  A    between atoms: C_9  and  C_20
REMARK    6  A    between atoms: C_20  and  C_21
REMARK    7  A    between atoms: C_20  and  C_22
REMARK    8  A    between atoms: C_20  and  C_24
REMARK                            x       y       z     vdW  Elec       q    Type
REMARK                         _______ _______ _______ _____ _____    ______ ____
ROOT
ATOM      1  C   UNL     1      -1.747  12.597  21.215  0.00  0.00    +0.000 C 
ENDROOT
BRANCH   1   2
ATOM      2  C   UNL     1      -1.128  11.195  21.508  0.00  0.00    +0.000 A 
ATOM      3  C   UNL     1      -1.019  10.812  22.857  0.00  0.00    +0.000 A 
ATOM      4  C   UNL     1      -0.182   9.775  23.240  0.00  0.00    +0.000 A 
ATOM      5  C   UNL     1       0.611   9.144  22.290  0.00  0.00    +0.000 A 
ATOM      6  C   UNL     1       0.499   9.461  20.933  0.00  0.00    +0.000 A 
ATOM      7  C   UNL     1       1.401   8.889  20.020  0.00  0.00    +0.000 A 
ATOM      8  C   UNL     1       1.326   9.171  18.660  0.00  0.00    +0.000 A 
ATOM      9  C   UNL     1       0.284   9.953  18.186  0.00  0.00    +0.000 A 
ATOM     10  C   UNL     1      -0.614  10.542  19.088  0.00  0.00    +0.000 A 
ATOM     11  C   UNL     1      -0.463  10.403  20.497  0.00  0.00    +0.000 A 
ENDBRANCH   1   2
BRANCH   1  17
ATOM     12  C   UNL     1      -4.157  12.598  22.338  0.00  0.00    +0.000 A 
ATOM     13  C   UNL     1      -5.518  12.930  22.227  0.00  0.00    +0.000 A 
ATOM     14  C   UNL     1      -6.116  13.049  20.983  0.00  0.00    +0.000 A 
ATOM     15  C   UNL     1      -5.342  12.869  19.846  0.00  0.00    +0.000 A 
ATOM     16  C   UNL     1      -3.956  12.691  19.958  0.00  0.00    +0.000 A 
ATOM     17  C   UNL     1      -3.311  12.608  21.214  0.00  0.00    +0.000 A 
BRANCH  12  19
ATOM     18  C   UNL     1      -4.668  12.412  24.600  0.00  0.00    +0.000 C 
ATOM     19  O   UNL     1      -3.681  12.235  23.568  0.00  0.00    +0.000 OA
ENDBRANCH  12  19
ENDBRANCH   1  17
BRANCH   1  20
ATOM     20  C   UNL     1      -0.934  13.813  21.906  0.00  0.00    +0.000 C 
ATOM     21  C   UNL     1      -1.126  13.761  23.447  0.00  0.00    +0.000 C 
BRANCH  20  22
ATOM     22  C   UNL     1      -1.356  15.240  21.461  0.00  0.00    +0.000 C 
ATOM     23  O   UNL     1      -1.866  16.024  22.273  0.00  0.00    +0.000 OA
ATOM     24  N   UNL     1      -1.100  15.698  20.160  0.00  0.00    +0.000 N 
ATOM     25  C   UNL     1      -0.424  15.003  19.056  0.00  0.00    +0.000 C 
ATOM     26  C   UNL     1       0.845  15.760  18.662  0.00  0.00    +0.000 C 
ATOM     27  C   UNL     1       0.506  17.195  18.271  0.00  0.00    +0.000 C 
ATOM     28  C   UNL     1      -0.278  17.889  19.386  0.00  0.00    +0.000 C 
ATOM     29  C   UNL     1      -1.496  17.066  19.810  0.00  0.00    +0.000 C 
ENDBRANCH  20  22
BRANCH  20  30
ATOM     30  C   UNL     1       0.505  13.598  21.626  0.00  0.00    +0.000 C 
ATOM     31  N   UNL     1       1.648  13.471  21.458  0.00  0.00    +0.000 NA
ENDBRANCH  20  30
ENDBRANCH   1  20
TORSDOF 6
ENDMDL
MODEL 3
REMARK VINA RESULT:      -6.9      2.136      5.255
REMARK  Name = 
REMARK  8 active torsions:
REMARK  status: ('A' for Active; 'I' for Inactive)
REMARK    1  A    between atoms: C_1  and  O_2
REMARK    2  A    between atoms: O_2  and  C_3
REMARK    3  A    between atoms: C_8  and  C_9
REMARK    4  A    between atoms: C_9  and  C_10
REMARK    5  A    between atoms: C_9  and  C_20
REMARK    6  A    between atoms: C_20  and  C_21
REMARK    7  A    between atoms: C_20  and  C_22
REMARK    8  A    between atoms: C_20  and  C_24
REMARK                            x       y       z     vdW  Elec       q    Type
REMARK                         _______ _______ _______ _____ _____    ______ ____
ROOT
ATOM      1  C   UNL     1      -0.888  12.779  19.757  0.00  0.00    +0.000 C 
ENDROOT
BRANCH   1   2
ATOM      2  C   UNL     1       0.328  13.343  18.957  0.00  0.00    +0.000 A 
ATOM      3  C   UNL     1       1.374  12.448  18.668  0.00  0.00    +0.000 A 
ATOM      4  C   UNL     1       2.625  12.911  18.290  0.00  0.00    +0.000 A 
ATOM      5  C   UNL     1       2.874  14.277  18.257  0.00  0.00    +0.000 A 
ATOM      6  C   UNL     1       1.850  15.201  18.491  0.00  0.00    +0.000 A 
ATOM      7  C   UNL     1       2.166  16.567  18.567  0.00  0.00    +0.000 A 
ATOM      8  C   UNL     1       1.180  17.523  18.794  0.00  0.00    +0.000 A 
ATOM      9  C   UNL     1      -0.147  17.129  18.848  0.00  0.00    +0.000 A 
ATOM     10  C   UNL     1      -0.475  15.766  18.788  0.00  0.00    +0.000 A 
ATOM     11  C   UNL     1       0.526  14.755  18.720  0.00  0.00    +0.000 A 
ENDBRANCH   1   2
BRANCH   1  17
ATOM     12  C   UNL     1      -3.149  11.771  18.789  0.00  0.00    +0.000 A 
ATOM     13  C   UNL     1      -3.775  11.002  17.793  0.00  0.00    +0.000 A 
ATOM     14  C   UNL     1      -3.066  10.034  17.099  0.00  0.00    +0.000 A 
ATOM     15  C   UNL     1      -1.719   9.859  17.378  0.00  0.00    +0.000 A 
ATOM     16  C   UNL     1      -1.064  10.731  18.259  0.00  0.00    +0.000 A 
ATOM     17  C   UNL     1      -1.752  11.755  18.951  0.00  0.00    +0.000 A 
BRANCH  12  19
ATOM     18  C   UNL     1      -5.340  12.326  19.343  0.00  0.00    +0.000 C 
ATOM     19  O   UNL     1      -3.941  12.517  19.618  0.00  0.00    +0.000 OA
ENDBRANCH  12  19
ENDBRANCH   1  17
BRANCH   1  20
ATOM     20  C   UNL     1      -0.556  12.502  21.316  0.00  0.00    +0.000 C 
ATOM     21  C   UNL     1       0.142  11.122  21.463  0.00  0.00    +0.000 C 
BRANCH  20  22
ATOM     22  C   UNL     1      -1.784  12.475  22.268  0.00  0.00    +0.000 C 
ATOM     23  O   UNL     1      -2.006  11.482  22.974  0.00  0.00    +0.000 OA
ATOM     24  N   UNL     1      -2.617  13.594  22.406  0.00  0.00    +0.000 N 
ATOM     25  C   UNL     1      -2.505  14.910  21.761  0.00  0.00    +0.000 C 
ATOM     26  C   UNL     1      -2.295  15.994  22.820  0.00  0.00    +0.000 C 
ATOM     27  C   UNL     1      -3.441  15.980  23.827  0.00  0.00    +0.000 C 
ATOM     28  C   UNL     1      -3.614  14.585  24.431  0.00  0.00    +0.000 C 
ATOM     29  C   UNL     1      -3.742  13.516  23.344  0.00  0.00    +0.000 C 
ENDBRANCH  20  22
BRANCH  20  30
ATOM     30  C   UNL     1       0.405  13.540  21.755  0.00  0.00    +0.000 C 
ATOM     31  N   UNL     1       1.156  14.328  22.162  0.00  0.00    +0.000 NA
ENDBRANCH  20  30
ENDBRANCH   1  20
TORSDOF 6
ENDMDL
MODEL 4
REMARK VINA RESULT:      -6.7      2.100      4.897
REMARK  Name = 
REMARK  8 active torsions:
REMARK  status: ('A' for Active; 'I' for Inactive)
REMARK    1  A    between atoms: C_1  and  O_2
REMARK    2  A    between atoms: O_2  and  C_3
REMARK    3  A    between atoms: C_8  and  C_9
REMARK    4  A    between atoms: C_9  and  C_10
REMARK    5  A    between atoms: C_9  and  C_20
REMARK    6  A    between atoms: C_20  and  C_21
REMARK    7  A    between atoms: C_20  and  C_22
REMARK    8  A    between atoms: C_20  and  C_24
REMARK                            x       y       z     vdW  Elec       q    Type
REMARK                         _______ _______ _______ _____ _____    ______ ____
ROOT
ATOM      1  C   UNL     1      -0.884  12.854  19.734  0.00  0.00    +0.000 C 
ENDROOT
BRANCH   1   2
ATOM      2  C   UNL     1       0.326  13.457  18.954  0.00  0.00    +0.000 A 
ATOM      3  C   UNL     1       1.401  12.594  18.673  0.00  0.00    +0.000 A 
ATOM      4  C   UNL     1       2.643  13.094  18.316  0.00  0.00    +0.000 A 
ATOM      5  C   UNL     1       2.853  14.467  18.295  0.00  0.00    +0.000 A 
ATOM      6  C   UNL     1       1.801  15.360  18.520  0.00  0.00    +0.000 A 
ATOM      7  C   UNL     1       2.076  16.734  18.609  0.00  0.00    +0.000 A 
ATOM      8  C   UNL     1       1.061  17.661  18.828  0.00  0.00    +0.000 A 
ATOM      9  C   UNL     1      -0.255  17.229  18.862  0.00  0.00    +0.000 A 
ATOM     10  C   UNL     1      -0.543  15.858  18.789  0.00  0.00    +0.000 A 
ATOM     11  C   UNL     1       0.487  14.876  18.729  0.00  0.00    +0.000 A 
ENDBRANCH   1   2
BRANCH   1  17
ATOM     12  C   UNL     1      -3.064  11.746  18.692  0.00  0.00    +0.000 A 
ATOM     13  C   UNL     1      -3.617  10.920  17.698  0.00  0.00    +0.000 A 
ATOM     14  C   UNL     1      -2.848   9.944  17.084  0.00  0.00    +0.000 A 
ATOM     15  C   UNL     1      -1.514   9.817  17.440  0.00  0.00    +0.000 A 
ATOM     16  C   UNL     1      -0.928  10.742  18.316  0.00  0.00    +0.000 A 
ATOM     17  C   UNL     1      -1.678  11.775  18.927  0.00  0.00    +0.000 A 
BRANCH  12  19
ATOM     18  C   UNL     1      -5.292  12.124  19.250  0.00  0.00    +0.000 C 
ATOM     19  O   UNL     1      -3.918  12.503  19.447  0.00  0.00    +0.000 OA
ENDBRANCH  12  19
ENDBRANCH   1  17
BRANCH   1  20
ATOM     20  C   UNL     1      -0.583  12.624  21.306  0.00  0.00    +0.000 C 
ATOM     21  C   UNL     1      -1.901  12.254  22.041  0.00  0.00    +0.000 C 
BRANCH  20  22
ATOM     22  C   UNL     1       0.010  13.846  22.060  0.00  0.00    +0.000 C 
ATOM     23  O   UNL     1       1.236  13.971  22.183  0.00  0.00    +0.000 OA
ATOM     24  N   UNL     1      -0.818  14.868  22.546  0.00  0.00    +0.000 N 
ATOM     25  C   UNL     1      -2.278  15.000  22.436  0.00  0.00    +0.000 C 
ATOM     26  C   UNL     1      -2.630  16.255  21.634  0.00  0.00    +0.000 C 
ATOM     27  C   UNL     1      -2.022  17.491  22.290  0.00  0.00    +0.000 C 
ATOM     28  C   UNL     1      -0.516  17.314  22.487  0.00  0.00    +0.000 C 
ATOM     29  C   UNL     1      -0.196  16.011  23.221  0.00  0.00    +0.000 C 
ENDBRANCH  20  22
BRANCH  20  30
ATOM     30  C   UNL     1       0.334  11.465  21.417  0.00  0.00    +0.000 C 
ATOM     31  N   UNL     1       1.013  10.533  21.554  0.00  0.00    +0.000 NA
ENDBRANCH  20  30
ENDBRANCH   1  20
TORSDOF 6
ENDMDL
MODEL 5
REMARK VINA RESULT:      -6.4      1.564      2.365
REMARK  Name = 
REMARK  8 active torsions:
REMARK  status: ('A' for Active; 'I' for Inactive)
REMARK    1  A    between atoms: C_1  and  O_2
REMARK    2  A    between atoms: O_2  and  C_3
REMARK    3  A    between atoms: C_8  and  C_9
REMARK    4  A    between atoms: C_9  and  C_10
REMARK    5  A    between atoms: C_9  and  C_20
REMARK    6  A    between atoms: C_20  and  C_21
REMARK    7  A    between atoms: C_20  and  C_22
REMARK    8  A    between atoms: C_20  and  C_24
REMARK                            x       y       z     vdW  Elec       q    Type
REMARK                         _______ _______ _______ _____ _____    ______ ____
ROOT
ATOM      1  C   UNL     1      -0.458  11.623  19.237  0.00  0.00    +0.000 C 
ENDROOT
BRANCH   1   2
ATOM      2  C   UNL     1      -0.156  10.260  19.937  0.00  0.00    +0.000 A 
ATOM      3  C   UNL     1      -0.553  10.129  21.280  0.00  0.00    +0.000 A 
ATOM      4  C   UNL     1      -0.031   9.128  22.085  0.00  0.00    +0.000 A 
ATOM      5  C   UNL     1       0.946   8.279  21.581  0.00  0.00    +0.000 A 
ATOM      6  C   UNL     1       1.334   8.344  20.239  0.00  0.00    +0.000 A 
ATOM      7  C   UNL     1       2.407   7.552  19.797  0.00  0.00    +0.000 A 
ATOM      8  C   UNL     1       2.826   7.580  18.471  0.00  0.00    +0.000 A 
ATOM      9  C   UNL     1       2.110   8.328  17.549  0.00  0.00    +0.000 A 
ATOM     10  C   UNL     1       1.046   9.134  17.980  0.00  0.00    +0.000 A 
ATOM     11  C   UNL     1       0.700   9.251  19.356  0.00  0.00    +0.000 A 
ENDBRANCH   1   2
BRANCH   1  17
ATOM     12  C   UNL     1      -2.821  11.620  18.021  0.00  0.00    +0.000 A 
ATOM     13  C   UNL     1      -4.221  11.661  18.145  0.00  0.00    +0.000 A 
ATOM     14  C   UNL     1      -4.813  12.237  19.258  0.00  0.00    +0.000 A 
ATOM     15  C   UNL     1      -4.003  12.742  20.264  0.00  0.00    +0.000 A 
ATOM     16  C   UNL     1      -2.614  12.559  20.208  0.00  0.00    +0.000 A 
ATOM     17  C   UNL     1      -1.984  11.938  19.105  0.00  0.00    +0.000 A 
BRANCH  12  19
ATOM     18  C   UNL     1      -3.316  10.994  15.835  0.00  0.00    +0.000 C 
ATOM     19  O   UNL     1      -2.294  11.287  16.803  0.00  0.00    +0.000 OA
ENDBRANCH  12  19
ENDBRANCH   1  17
BRANCH   1  20
ATOM     20  C   UNL     1       0.575  12.797  19.650  0.00  0.00    +0.000 C 
ATOM     21  C   UNL     1       1.086  12.558  21.097  0.00  0.00    +0.000 C 
BRANCH  20  22
ATOM     22  C   UNL     1      -0.004  14.238  19.622  0.00  0.00    +0.000 C 
ATOM     23  O   UNL     1      -0.287  14.779  18.545  0.00  0.00    +0.000 OA
ATOM     24  N   UNL     1      -0.290  14.925  20.811  0.00  0.00    +0.000 N 
ATOM     25  C   UNL     1      -0.142  14.466  22.199  0.00  0.00    +0.000 C 
ATOM     26  C   UNL     1      -1.507  14.430  22.886  0.00  0.00    +0.000 C 
ATOM     27  C   UNL     1      -2.160  15.808  22.839  0.00  0.00    +0.000 C 
ATOM     28  C   UNL     1      -2.232  16.325  21.402  0.00  0.00    +0.000 C 
ATOM     29  C   UNL     1      -0.864  16.272  20.718  0.00  0.00    +0.000 C 
ENDBRANCH  20  22
BRANCH  20  30
ATOM     30  C   UNL     1       1.741  12.700  18.741  0.00  0.00    +0.000 C 
ATOM     31  N   UNL     1       2.612  12.610  17.977  0.00  0.00    +0.000 NA
ENDBRANCH  20  30
ENDBRANCH   1  20
TORSDOF 6
ENDMDL
MODEL 6
REMARK VINA RESULT:      -6.4      2.093      6.020
REMARK  Name = 
REMARK  8 active torsions:
REMARK  status: ('A' for Active; 'I' for Inactive)
REMARK    1  A    between atoms: C_1  and  O_2
REMARK    2  A    between atoms: O_2  and  C_3
REMARK    3  A    between atoms: C_8  and  C_9
REMARK    4  A    between atoms: C_9  and  C_10
REMARK    5  A    between atoms: C_9  and  C_20
REMARK    6  A    between atoms: C_20  and  C_21
REMARK    7  A    between atoms: C_20  and  C_22
REMARK    8  A    between atoms: C_20  and  C_24
REMARK                            x       y       z     vdW  Elec       q    Type
REMARK                         _______ _______ _______ _____ _____    ______ ____
ROOT
ATOM      1  C   UNL     1      -1.163  11.339  19.985  0.00  0.00    +0.000 C 
ENDROOT
BRANCH   1   2
ATOM      2  C   UNL     1      -2.187  11.047  18.843  0.00  0.00    +0.000 A 
ATOM      3  C   UNL     1      -1.679  10.487  17.656  0.00  0.00    +0.000 A 
ATOM      4  C   UNL     1      -2.413  10.519  16.481  0.00  0.00    +0.000 A 
ATOM      5  C   UNL     1      -3.641  11.167  16.453  0.00  0.00    +0.000 A 
ATOM      6  C   UNL     1      -4.204  11.694  17.619  0.00  0.00    +0.000 A 
ATOM      7  C   UNL     1      -5.387  12.447  17.529  0.00  0.00    +0.000 A 
ATOM      8  C   UNL     1      -5.985  12.988  18.663  0.00  0.00    +0.000 A 
ATOM      9  C   UNL     1      -5.458  12.697  19.912  0.00  0.00    +0.000 A 
ATOM     10  C   UNL     1      -4.270  11.960  20.014  0.00  0.00    +0.000 A 
ATOM     11  C   UNL     1      -3.548  11.534  18.863  0.00  0.00    +0.000 A 
ENDBRANCH   1   2
BRANCH   1  17
ATOM     12  C   UNL     1      -0.022   9.310  21.267  0.00  0.00    +0.000 A 
ATOM     13  C   UNL     1       0.759   8.144  21.188  0.00  0.00    +0.000 A 
ATOM     14  C   UNL     1       1.649   7.962  20.141  0.00  0.00    +0.000 A 
ATOM     15  C   UNL     1       1.733   8.932  19.154  0.00  0.00    +0.000 A 
ATOM     16  C   UNL     1       0.843  10.015  19.155  0.00  0.00    +0.000 A 
ATOM     17  C   UNL     1      -0.105  10.206  20.187  0.00  0.00    +0.000 A 
BRANCH  12  19
ATOM     18  C   UNL     1       0.183   9.437  23.582  0.00  0.00    +0.000 C 
ATOM     19  O   UNL     1      -0.681   9.564  22.439  0.00  0.00    +0.000 OA
ENDBRANCH  12  19
ENDBRANCH   1  17
BRANCH   1  20
ATOM     20  C   UNL     1      -0.708  12.890  20.056  0.00  0.00    +0.000 C 
ATOM     21  C   UNL     1       0.612  13.009  20.865  0.00  0.00    +0.000 C 
BRANCH  20  22
ATOM     22  C   UNL     1      -1.722  13.856  20.728  0.00  0.00    +0.000 C 
ATOM     23  O   UNL     1      -2.291  14.730  20.060  0.00  0.00    +0.000 OA
ATOM     24  N   UNL     1      -2.073  13.711  22.078  0.00  0.00    +0.000 N 
ATOM     25  C   UNL     1      -1.620  12.700  23.044  0.00  0.00    +0.000 C 
ATOM     26  C   UNL     1      -2.809  11.865  23.522  0.00  0.00    +0.000 C 
ATOM     27  C   UNL     1      -3.875  12.765  24.140  0.00  0.00    +0.000 C 
ATOM     28  C   UNL     1      -4.280  13.872  23.166  0.00  0.00    +0.000 C 
ATOM     29  C   UNL     1      -3.060  14.635  22.647  0.00  0.00    +0.000 C 
ENDBRANCH  20  22
BRANCH  20  30
ATOM     30  C   UNL     1      -0.427  13.332  18.670  0.00  0.00    +0.000 C 
ATOM     31  N   UNL     1      -0.258  13.640  17.562  0.00  0.00    +0.000 NA
ENDBRANCH  20  30
ENDBRANCH   1  20
TORSDOF 6
ENDMDL
MODEL 7
REMARK VINA RESULT:      -6.4      1.865      5.157
REMARK  Name = 
REMARK  8 active torsions:
REMARK  status: ('A' for Active; 'I' for Inactive)
REMARK    1  A    between atoms: C_1  and  O_2
REMARK    2  A    between atoms: O_2  and  C_3
REMARK    3  A    between atoms: C_8  and  C_9
REMARK    4  A    between atoms: C_9  and  C_10
REMARK    5  A    between atoms: C_9  and  C_20
REMARK    6  A    between atoms: C_20  and  C_21
REMARK    7  A    between atoms: C_20  and  C_22
REMARK    8  A    between atoms: C_20  and  C_24
REMARK                            x       y       z     vdW  Elec       q    Type
REMARK                         _______ _______ _______ _____ _____    ______ ____
ROOT
ATOM      1  C   UNL     1      -1.404  11.906  20.050  0.00  0.00    +0.000 C 
ENDROOT
BRANCH   1   2
ATOM      2  C   UNL     1      -2.174  11.200  18.891  0.00  0.00    +0.000 A 
ATOM      3  C   UNL     1      -1.421  10.384  18.026  0.00  0.00    +0.000 A 
ATOM      4  C   UNL     1      -1.917  10.007  16.788  0.00  0.00    +0.000 A 
ATOM      5  C   UNL     1      -3.147  10.491  16.362  0.00  0.00    +0.000 A 
ATOM      6  C   UNL     1      -3.948  11.265  17.208  0.00  0.00    +0.000 A 
ATOM      7  C   UNL     1      -5.128  11.835  16.700  0.00  0.00    +0.000 A 
ATOM      8  C   UNL     1      -5.958  12.609  17.505  0.00  0.00    +0.000 A 
ATOM      9  C   UNL     1      -5.667  12.739  18.854  0.00  0.00    +0.000 A 
ATOM     10  C   UNL     1      -4.485  12.187  19.369  0.00  0.00    +0.000 A 
ATOM     11  C   UNL     1      -3.536  11.530  18.535  0.00  0.00    +0.000 A 
ENDBRANCH   1   2
BRANCH   1  17
ATOM     12  C   UNL     1      -0.739  11.087  22.490  0.00  0.00    +0.000 A 
ATOM     13  C   UNL     1      -0.464  10.006  23.345  0.00  0.00    +0.000 A 
ATOM     14  C   UNL     1      -0.011   8.800  22.835  0.00  0.00    +0.000 A 
ATOM     15  C   UNL     1       0.135   8.663  21.463  0.00  0.00    +0.000 A 
ATOM     16  C   UNL     1      -0.287   9.689  20.605  0.00  0.00    +0.000 A 
ATOM     17  C   UNL     1      -0.793  10.916  21.095  0.00  0.00    +0.000 A 
BRANCH  12  19
ATOM     18  C   UNL     1      -2.308  12.568  23.360  0.00  0.00    +0.000 C 
ATOM     19  O   UNL     1      -0.925  12.320  23.051  0.00  0.00    +0.000 OA
ENDBRANCH  12  19
ENDBRANCH   1  17
BRANCH   1  20
ATOM     20  C   UNL     1      -0.551  13.191  19.563  0.00  0.00    +0.000 C 
ATOM     21  C   UNL     1      -0.725  13.383  18.031  0.00  0.00    +0.000 C 
BRANCH  20  22
ATOM     22  C   UNL     1       0.978  13.119  19.824  0.00  0.00    +0.000 C 
ATOM     23  O   UNL     1       1.529  12.026  20.015  0.00  0.00    +0.000 OA
ATOM     24  N   UNL     1       1.776  14.270  19.773  0.00  0.00    +0.000 N 
ATOM     25  C   UNL     1       1.380  15.652  19.467  0.00  0.00    +0.000 C 
ATOM     26  C   UNL     1       2.090  16.131  18.200  0.00  0.00    +0.000 C 
ATOM     27  C   UNL     1       3.603  16.026  18.368  0.00  0.00    +0.000 C 
ATOM     28  C   UNL     1       4.005  14.608  18.775  0.00  0.00    +0.000 C 
ATOM     29  C   UNL     1       3.219  14.132  19.997  0.00  0.00    +0.000 C 
ENDBRANCH  20  22
BRANCH  20  30
ATOM     30  C   UNL     1      -1.125  14.382  20.232  0.00  0.00    +0.000 C 
ATOM     31  N   UNL     1      -1.608  15.274  20.799  0.00  0.00    +0.000 NA
ENDBRANCH  20  30
ENDBRANCH   1  20
TORSDOF 6
ENDMDL
MODEL 8
REMARK VINA RESULT:      -6.4      2.380      3.816
REMARK  Name = 
REMARK  8 active torsions:
REMARK  status: ('A' for Active; 'I' for Inactive)
REMARK    1  A    between atoms: C_1  and  O_2
REMARK    2  A    between atoms: O_2  and  C_3
REMARK    3  A    between atoms: C_8  and  C_9
REMARK    4  A    between atoms: C_9  and  C_10
REMARK    5  A    between atoms: C_9  and  C_20
REMARK    6  A    between atoms: C_20  and  C_21
REMARK    7  A    between atoms: C_20  and  C_22
REMARK    8  A    between atoms: C_20  and  C_24
REMARK                            x       y       z     vdW  Elec       q    Type
REMARK                         _______ _______ _______ _____ _____    ______ ____
ROOT
ATOM      1  C   UNL     1      -2.850  13.777  21.182  0.00  0.00    +0.000 C 
ENDROOT
BRANCH   1   2
ATOM      2  C   UNL     1      -2.103  12.409  21.266  0.00  0.00    +0.000 A 
ATOM      3  C   UNL     1      -1.431  12.119  22.468  0.00  0.00    +0.000 A 
ATOM      4  C   UNL     1      -0.465  11.126  22.524  0.00  0.00    +0.000 A 
ATOM      5  C   UNL     1      -0.104  10.449  21.367  0.00  0.00    +0.000 A 
ATOM      6  C   UNL     1      -0.779  10.672  20.162  0.00  0.00    +0.000 A 
ATOM      7  C   UNL     1      -0.307  10.059  18.990  0.00  0.00    +0.000 A 
ATOM      8  C   UNL     1      -0.948  10.249  17.769  0.00  0.00    +0.000 A 
ATOM      9  C   UNL     1      -2.126  10.977  17.727  0.00  0.00    +0.000 A 
ATOM     10  C   UNL     1      -2.600  11.607  18.888  0.00  0.00    +0.000 A 
ATOM     11  C   UNL     1      -1.877  11.564  20.114  0.00  0.00    +0.000 A 
ENDBRANCH   1   2
BRANCH   1  17
ATOM     12  C   UNL     1      -5.049  13.086  22.506  0.00  0.00    +0.000 A 
ATOM     13  C   UNL     1      -6.412  13.326  22.751  0.00  0.00    +0.000 A 
ATOM     14  C   UNL     1      -7.202  13.946  21.796  0.00  0.00    +0.000 A 
ATOM     15  C   UNL     1      -6.619  14.357  20.606  0.00  0.00    +0.000 A 
ATOM     16  C   UNL     1      -5.232  14.256  20.430  0.00  0.00    +0.000 A 
ATOM     17  C   UNL     1      -4.393  13.666  21.404  0.00  0.00    +0.000 A 
BRANCH  12  19
ATOM     18  C   UNL     1      -4.894  12.318  24.697  0.00  0.00    +0.000 C 
ATOM     19  O   UNL     1      -4.381  12.246  23.354  0.00  0.00    +0.000 OA
ENDBRANCH  12  19
ENDBRANCH   1  17
BRANCH   1  20
ATOM     20  C   UNL     1      -2.025  14.999  21.848  0.00  0.00    +0.000 C 
ATOM     21  C   UNL     1      -2.348  16.318  21.093  0.00  0.00    +0.000 C 
BRANCH  20  22
ATOM     22  C   UNL     1      -0.479  14.852  21.831  0.00  0.00    +0.000 C 
ATOM     23  O   UNL     1       0.140  14.628  22.880  0.00  0.00    +0.000 OA
ATOM     24  N   UNL     1       0.238  14.890  20.626  0.00  0.00    +0.000 N 
ATOM     25  C   UNL     1      -0.272  15.038  19.256  0.00  0.00    +0.000 C 
ATOM     26  C   UNL     1       0.067  13.793  18.435  0.00  0.00    +0.000 C 
ATOM     27  C   UNL     1       1.574  13.555  18.429  0.00  0.00    +0.000 C 
ATOM     28  C   UNL     1       2.117  13.491  19.857  0.00  0.00    +0.000 C 
ATOM     29  C   UNL     1       1.693  14.714  20.673  0.00  0.00    +0.000 C 
ENDBRANCH  20  22
BRANCH  20  30
ATOM     30  C   UNL     1      -2.506  15.150  23.241  0.00  0.00    +0.000 C 
ATOM     31  N   UNL     1      -2.826  15.238  24.355  0.00  0.00    +0.000 NA
ENDBRANCH  20  30
ENDBRANCH   1  20
TORSDOF 6
ENDMDL
MODEL 9
REMARK VINA RESULT:      -6.4      1.415      1.873
REMARK  Name = 
REMARK  8 active torsions:
REMARK  status: ('A' for Active; 'I' for Inactive)
REMARK    1  A    between atoms: C_1  and  O_2
REMARK    2  A    between atoms: O_2  and  C_3
REMARK    3  A    between atoms: C_8  and  C_9
REMARK    4  A    between atoms: C_9  and  C_10
REMARK    5  A    between atoms: C_9  and  C_20
REMARK    6  A    between atoms: C_20  and  C_21
REMARK    7  A    between atoms: C_20  and  C_22
REMARK    8  A    between atoms: C_20  and  C_24
REMARK                            x       y       z     vdW  Elec       q    Type
REMARK                         _______ _______ _______ _____ _____    ______ ____
ROOT
ATOM      1  C   UNL     1      -0.837  12.027  19.437  0.00  0.00    +0.000 C 
ENDROOT
BRANCH   1   2
ATOM      2  C   UNL     1      -0.410  10.726  20.186  0.00  0.00    +0.000 A 
ATOM      3  C   UNL     1      -0.607  10.695  21.579  0.00  0.00    +0.000 A 
ATOM      4  C   UNL     1       0.046   9.764  22.372  0.00  0.00    +0.000 A 
ATOM      5  C   UNL     1       0.958   8.888  21.798  0.00  0.00    +0.000 A 
ATOM      6  C   UNL     1       1.148   8.853  20.412  0.00  0.00    +0.000 A 
ATOM      7  C   UNL     1       2.163   8.040  19.881  0.00  0.00    +0.000 A 
ATOM      8  C   UNL     1       2.387   7.969  18.510  0.00  0.00    +0.000 A 
ATOM      9  C   UNL     1       1.531   8.637  17.648  0.00  0.00    +0.000 A 
ATOM     10  C   UNL     1       0.523   9.463  18.166  0.00  0.00    +0.000 A 
ATOM     11  C   UNL     1       0.375   9.682  19.565  0.00  0.00    +0.000 A 
ENDBRANCH   1   2
BRANCH   1  17
ATOM     12  C   UNL     1      -3.260  11.799  18.368  0.00  0.00    +0.000 A 
ATOM     13  C   UNL     1      -4.650  11.764  18.574  0.00  0.00    +0.000 A 
ATOM     14  C   UNL     1      -5.214  12.376  19.682  0.00  0.00    +0.000 A 
ATOM     15  C   UNL     1      -4.383  12.995  20.604  0.00  0.00    +0.000 A 
ATOM     16  C   UNL     1      -2.991  12.894  20.476  0.00  0.00    +0.000 A 
ATOM     17  C   UNL     1      -2.385  12.239  19.378  0.00  0.00    +0.000 A 
BRANCH  12  19
ATOM     18  C   UNL     1      -3.843  11.148  16.211  0.00  0.00    +0.000 C 
ATOM     19  O   UNL     1      -2.781  11.418  17.145  0.00  0.00    +0.000 OA
ENDBRANCH  12  19
ENDBRANCH   1  17
BRANCH   1  20
ATOM     20  C   UNL     1       0.139  13.283  19.729  0.00  0.00    +0.000 C 
ATOM     21  C   UNL     1      -0.517  14.587  19.197  0.00  0.00    +0.000 C 
BRANCH  20  22
ATOM     22  C   UNL     1       1.546  13.204  19.077  0.00  0.00    +0.000 C 
ATOM     23  O   UNL     1       1.830  12.273  18.312  0.00  0.00    +0.000 OA
ATOM     24  N   UNL     1       2.493  14.219  19.275  0.00  0.00    +0.000 N 
ATOM     25  C   UNL     1       2.362  15.463  20.046  0.00  0.00    +0.000 C 
ATOM     26  C   UNL     1       2.512  16.671  19.120  0.00  0.00    +0.000 C 
ATOM     27  C   UNL     1       3.855  16.621  18.397  0.00  0.00    +0.000 C 
ATOM     28  C   UNL     1       4.029  15.287  17.669  0.00  0.00    +0.000 C 
ATOM     29  C   UNL     1       3.794  14.102  18.607  0.00  0.00    +0.000 C 
ENDBRANCH  20  22
BRANCH  20  30
ATOM     30  C   UNL     1       0.266  13.413  21.200  0.00  0.00    +0.000 C 
ATOM     31  N   UNL     1       0.298  13.515  22.357  0.00  0.00    +0.000 NA
ENDBRANCH  20  30
ENDBRANCH   1  20
TORSDOF 6
ENDMDL
