MODEL 1
REMARK VINA RESULT:      -7.0      0.000      0.000
REMARK  Name = 
REMARK  6 active torsions:
REMARK  status: ('A' for Active; 'I' for Inactive)
REMARK    1  A    between atoms: C_1  and  O_2
REMARK    2  A    between atoms: O_2  and  C_3
REMARK    3  A    between atoms: C_3  and  C_4
REMARK    4  A    between atoms: C_8  and  C_10
REMARK    5  A    between atoms: N_17  and  S_18
REMARK    6  A    between atoms: S_18  and  C_19
REMARK                            x       y       z     vdW  Elec       q    Type
REMARK                         _______ _______ _______ _____ _____    ______ ____
ROOT
ATOM      1  C   UNL     1       3.555   5.415  17.874  0.00  0.00    +0.000 C 
ATOM      2  C   UNL     1       4.480   5.265  16.628  0.00  0.00    +0.000 C 
ATOM      3  C   UNL     1       5.864   5.945  16.868  0.00  0.00    +0.000 C 
ATOM      4  N   UNL     1       6.418   5.622  18.186  0.00  0.00    +0.000 N 
ATOM      5  C   UNL     1       7.560   6.167  18.778  0.00  0.00    +0.000 C 
ATOM      6  O   UNL     1       7.987   5.716  19.850  0.00  0.00    +0.000 OA
ATOM      7  C   UNL     1       5.779   4.527  18.867  0.00  0.00    +0.000 C 
ATOM      8  C   UNL     1       4.303   4.845  19.112  0.00  0.00    +0.000 C 
ATOM      9  C   UNL     1       3.663   3.506  19.450  0.00  0.00    +0.000 C 
ATOM     10  N   UNL     1       2.329   3.550  18.876  0.00  0.00    +0.000 NA
ATOM     11  C   UNL     1       2.231   4.605  17.843  0.00  0.00    +0.000 C 
ENDROOT
BRANCH   5  12
ATOM     12  C   UNL     1       8.245   7.363  18.083  0.00  0.00    +0.000 C 
ATOM     13  C   UNL     1       7.289   8.448  17.496  0.00  0.00    +0.000 C 
ATOM     14  C   UNL     1       8.292   9.511  17.958  0.00  0.00    +0.000 C 
ATOM     15  C   UNL     1       8.829   8.486  18.973  0.00  0.00    +0.000 C 
ENDBRANCH   5  12
BRANCH  10  16
ATOM     16  S   UNL     1       1.037   3.187  19.886  0.00  0.00    +0.000 S 
ATOM     17  C   UNL     1       1.813   2.334  21.248  0.00  0.00    +0.000 C 
ATOM     18  O   UNL     1       0.483   4.433  20.379  0.00  0.00    +0.000 OA
ATOM     19  O   UNL     1       0.206   2.222  19.190  0.00  0.00    +0.000 OA
ENDBRANCH  10  16
BRANCH   1  20
ATOM     20  C   UNL     1       3.188   6.928  17.922  0.00  0.00    +0.000 C 
BRANCH  20  22
ATOM     21  C   UNL     1       1.834   8.607  18.858  0.00  0.00    +0.000 C 
ATOM     22  O   UNL     1       2.342   7.279  19.015  0.00  0.00    +0.000 OA
ENDBRANCH  20  22
ENDBRANCH   1  20
TORSDOF 4
ENDMDL
MODEL 2
REMARK VINA RESULT:      -6.6      3.336      6.271
REMARK  Name = 
REMARK  6 active torsions:
REMARK  status: ('A' for Active; 'I' for Inactive)
REMARK    1  A    between atoms: C_1  and  O_2
REMARK    2  A    between atoms: O_2  and  C_3
REMARK    3  A    between atoms: C_3  and  C_4
REMARK    4  A    between atoms: C_8  and  C_10
REMARK    5  A    between atoms: N_17  and  S_18
REMARK    6  A    between atoms: S_18  and  C_19
REMARK                            x       y       z     vdW  Elec       q    Type
REMARK                         _______ _______ _______ _____ _____    ______ ____
ROOT
ATOM      1  C   UNL     1       4.046   5.075  18.258  0.00  0.00    +0.000 C 
ATOM      2  C   UNL     1       2.510   4.808  18.200  0.00  0.00    +0.000 C 
ATOM      3  C   UNL     1       1.727   5.826  19.087  0.00  0.00    +0.000 C 
ATOM      4  N   UNL     1       2.199   7.201  18.899  0.00  0.00    +0.000 N 
ATOM      5  C   UNL     1       1.821   8.330  19.630  0.00  0.00    +0.000 C 
ATOM      6  O   UNL     1       2.207   9.456  19.288  0.00  0.00    +0.000 OA
ATOM      7  C   UNL     1       3.037   7.409  17.748  0.00  0.00    +0.000 C 
ATOM      8  C   UNL     1       4.302   6.554  17.853  0.00  0.00    +0.000 C 
ATOM      9  C   UNL     1       4.885   6.542  16.447  0.00  0.00    +0.000 C 
ATOM     10  N   UNL     1       5.465   5.221  16.271  0.00  0.00    +0.000 NA
ATOM     11  C   UNL     1       4.917   4.267  17.260  0.00  0.00    +0.000 C 
ENDROOT
BRANCH   5  12
ATOM     12  C   UNL     1       0.949   8.129  20.887  0.00  0.00    +0.000 C 
ATOM     13  C   UNL     1       1.411   8.895  22.166  0.00  0.00    +0.000 C 
ATOM     14  C   UNL     1      -0.066   9.154  22.485  0.00  0.00    +0.000 C 
ATOM     15  C   UNL     1      -0.372   8.930  20.993  0.00  0.00    +0.000 C 
ENDBRANCH   5  12
BRANCH  10  16
ATOM     16  S   UNL     1       7.062   5.136  15.758  0.00  0.00    +0.000 S 
ATOM     17  C   UNL     1       6.913   4.731  14.026  0.00  0.00    +0.000 C 
ATOM     18  O   UNL     1       7.645   6.458  15.873  0.00  0.00    +0.000 OA
ATOM     19  O   UNL     1       7.664   3.992  16.418  0.00  0.00    +0.000 OA
ENDBRANCH  10  16
BRANCH   1  20
ATOM     20  C   UNL     1       4.471   4.669  19.701  0.00  0.00    +0.000 C 
BRANCH  20  22
ATOM     21  C   UNL     1       4.304   2.388  20.248  0.00  0.00    +0.000 C 
ATOM     22  O   UNL     1       5.164   3.425  19.767  0.00  0.00    +0.000 OA
ENDBRANCH  20  22
ENDBRANCH   1  20
TORSDOF 4
ENDMDL
MODEL 3
REMARK VINA RESULT:      -6.5      1.037      1.167
REMARK  Name = 
REMARK  6 active torsions:
REMARK  status: ('A' for Active; 'I' for Inactive)
REMARK    1  A    between atoms: C_1  and  O_2
REMARK    2  A    between atoms: O_2  and  C_3
REMARK    3  A    between atoms: C_3  and  C_4
REMARK    4  A    between atoms: C_8  and  C_10
REMARK    5  A    between atoms: N_17  and  S_18
REMARK    6  A    between atoms: S_18  and  C_19
REMARK                            x       y       z     vdW  Elec       q    Type
REMARK                         _______ _______ _______ _____ _____    ______ ____
ROOT
ATOM      1  C   UNL     1       3.760   5.866  17.965  0.00  0.00    +0.000 C 
ATOM      2  C   UNL     1       4.549   5.915  16.621  0.00  0.00    +0.000 C 
ATOM      3  C   UNL     1       5.919   6.643  16.797  0.00  0.00    +0.000 C 
ATOM      4  N   UNL     1       6.628   6.204  18.002  0.00  0.00    +0.000 N 
ATOM      5  C   UNL     1       7.801   6.743  18.535  0.00  0.00    +0.000 C 
ATOM      6  O   UNL     1       8.363   6.198  19.494  0.00  0.00    +0.000 OA
ATOM      7  C   UNL     1       6.119   5.002  18.608  0.00  0.00    +0.000 C 
ATOM      8  C   UNL     1       4.665   5.203  19.041  0.00  0.00    +0.000 C 
ATOM      9  C   UNL     1       4.129   3.798  19.279  0.00  0.00    +0.000 C 
ATOM     10  N   UNL     1       2.739   3.829  18.855  0.00  0.00    +0.000 NA
ATOM     11  C   UNL     1       2.480   4.989  17.973  0.00  0.00    +0.000 C 
ENDROOT
BRANCH   5  12
ATOM     12  C   UNL     1       8.349   8.050  17.922  0.00  0.00    +0.000 C 
ATOM     13  C   UNL     1       7.286   9.138  17.575  0.00  0.00    +0.000 C 
ATOM     14  C   UNL     1       8.285  10.197  18.055  0.00  0.00    +0.000 C 
ATOM     15  C   UNL     1       8.977   9.095  18.876  0.00  0.00    +0.000 C 
ENDBRANCH   5  12
BRANCH  10  16
ATOM     16  S   UNL     1       1.583   3.277  19.942  0.00  0.00    +0.000 S 
ATOM     17  C   UNL     1       0.563   2.207  18.943  0.00  0.00    +0.000 C 
ATOM     18  O   UNL     1       2.253   2.470  20.944  0.00  0.00    +0.000 OA
ATOM     19  O   UNL     1       0.770   4.418  20.321  0.00  0.00    +0.000 OA
ENDBRANCH  10  16
BRANCH   1  20
ATOM     20  C   UNL     1       3.331   7.339  18.233  0.00  0.00    +0.000 C 
BRANCH  20  22
ATOM     21  C   UNL     1       1.758   9.039  17.826  0.00  0.00    +0.000 C 
ATOM     22  O   UNL     1       1.991   7.628  17.842  0.00  0.00    +0.000 OA
ENDBRANCH  20  22
ENDBRANCH   1  20
TORSDOF 4
ENDMDL
MODEL 4
REMARK VINA RESULT:      -6.3      3.160      6.168
REMARK  Name = 
REMARK  6 active torsions:
REMARK  status: ('A' for Active; 'I' for Inactive)
REMARK    1  A    between atoms: C_1  and  O_2
REMARK    2  A    between atoms: O_2  and  C_3
REMARK    3  A    between atoms: C_3  and  C_4
REMARK    4  A    between atoms: C_8  and  C_10
REMARK    5  A    between atoms: N_17  and  S_18
REMARK    6  A    between atoms: S_18  and  C_19
REMARK                            x       y       z     vdW  Elec       q    Type
REMARK                         _______ _______ _______ _____ _____    ______ ____
ROOT
ATOM      1  C   UNL     1       4.296   4.985  18.402  0.00  0.00    +0.000 C 
ATOM      2  C   UNL     1       2.865   4.500  18.786  0.00  0.00    +0.000 C 
ATOM      3  C   UNL     1       2.117   5.570  19.641  0.00  0.00    +0.000 C 
ATOM      4  N   UNL     1       2.267   6.921  19.092  0.00  0.00    +0.000 N 
ATOM      5  C   UNL     1       1.851   8.120  19.675  0.00  0.00    +0.000 C 
ATOM      6  O   UNL     1       1.932   9.184  19.047  0.00  0.00    +0.000 OA
ATOM      7  C   UNL     1       2.776   6.982  17.747  0.00  0.00    +0.000 C 
ATOM      8  C   UNL     1       4.172   6.358  17.681  0.00  0.00    +0.000 C 
ATOM      9  C   UNL     1       4.424   6.114  16.200  0.00  0.00    +0.000 C 
ATOM     10  N   UNL     1       5.190   4.881  16.127  0.00  0.00    +0.000 NA
ATOM     11  C   UNL     1       5.064   4.105  17.380  0.00  0.00    +0.000 C 
ENDROOT
BRANCH   5  12
ATOM     12  C   UNL     1       1.331   8.085  21.128  0.00  0.00    +0.000 C 
ATOM     13  C   UNL     1       1.570   9.378  21.969  0.00  0.00    +0.000 C 
ATOM     14  C   UNL     1       0.186   9.167  22.595  0.00  0.00    +0.000 C 
ATOM     15  C   UNL     1      -0.181   8.317  21.366  0.00  0.00    +0.000 C 
ENDBRANCH   5  12
BRANCH  10  16
ATOM     16  S   UNL     1       6.622   4.908  15.249  0.00  0.00    +0.000 S 
ATOM     17  C   UNL     1       6.310   3.752  13.926  0.00  0.00    +0.000 C 
ATOM     18  O   UNL     1       6.777   6.232  14.677  0.00  0.00    +0.000 OA
ATOM     19  O   UNL     1       7.652   4.331  16.093  0.00  0.00    +0.000 OA
ENDBRANCH  10  16
BRANCH   1  20
ATOM     20  C   UNL     1       5.096   4.974  19.738  0.00  0.00    +0.000 C 
BRANCH  20  22
ATOM     21  C   UNL     1       7.298   5.760  19.484  0.00  0.00    +0.000 C 
ATOM     22  O   UNL     1       6.464   4.602  19.585  0.00  0.00    +0.000 OA
ENDBRANCH  20  22
ENDBRANCH   1  20
TORSDOF 4
ENDMDL
MODEL 5
REMARK VINA RESULT:      -6.3      3.007      4.784
REMARK  Name = 
REMARK  6 active torsions:
REMARK  status: ('A' for Active; 'I' for Inactive)
REMARK    1  A    between atoms: C_1  and  O_2
REMARK    2  A    between atoms: O_2  and  C_3
REMARK    3  A    between atoms: C_3  and  C_4
REMARK    4  A    between atoms: C_8  and  C_10
REMARK    5  A    between atoms: N_17  and  S_18
REMARK    6  A    between atoms: S_18  and  C_19
REMARK                            x       y       z     vdW  Elec       q    Type
REMARK                         _______ _______ _______ _____ _____    ______ ____
ROOT
ATOM      1  C   UNL     1       2.541   5.799  19.350  0.00  0.00    +0.000 C 
ATOM      2  C   UNL     1       3.949   5.191  19.634  0.00  0.00    +0.000 C 
ATOM      3  C   UNL     1       4.704   4.874  18.305  0.00  0.00    +0.000 C 
ATOM      4  N   UNL     1       4.603   5.969  17.336  0.00  0.00    +0.000 N 
ATOM      5  C   UNL     1       5.036   5.963  16.008  0.00  0.00    +0.000 C 
ATOM      6  O   UNL     1       4.999   7.000  15.332  0.00  0.00    +0.000 OA
ATOM      7  C   UNL     1       4.129   7.218  17.871  0.00  0.00    +0.000 C 
ATOM      8  C   UNL     1       2.719   7.048  18.441  0.00  0.00    +0.000 C 
ATOM      9  C   UNL     1       2.497   8.275  19.312  0.00  0.00    +0.000 C 
ATOM     10  N   UNL     1       1.701   7.821  20.440  0.00  0.00    +0.000 NA
ATOM     11  C   UNL     1       1.775   6.350  20.582  0.00  0.00    +0.000 C 
ENDROOT
BRANCH   5  12
ATOM     12  C   UNL     1       5.520   4.628  15.402  0.00  0.00    +0.000 C 
ATOM     13  C   UNL     1       5.010   4.309  13.962  0.00  0.00    +0.000 C 
ATOM     14  C   UNL     1       6.393   3.723  13.656  0.00  0.00    +0.000 C 
ATOM     15  C   UNL     1       6.950   4.572  14.812  0.00  0.00    +0.000 C 
ENDBRANCH   5  12
BRANCH  10  16
ATOM     16  S   UNL     1       0.292   8.668  20.786  0.00  0.00    +0.000 S 
ATOM     17  C   UNL     1       0.799   9.792  22.077  0.00  0.00    +0.000 C 
ATOM     18  O   UNL     1      -0.070   9.444  19.616  0.00  0.00    +0.000 OA
ATOM     19  O   UNL     1      -0.640   7.725  21.377  0.00  0.00    +0.000 OA
ENDBRANCH  10  16
BRANCH   1  20
ATOM     20  C   UNL     1       1.708   4.624  18.757  0.00  0.00    +0.000 C 
BRANCH  20  22
ATOM     21  C   UNL     1       1.542   2.300  19.073  0.00  0.00    +0.000 C 
ATOM     22  O   UNL     1       1.434   3.584  19.693  0.00  0.00    +0.000 OA
ENDBRANCH  20  22
ENDBRANCH   1  20
TORSDOF 4
ENDMDL
MODEL 6
REMARK VINA RESULT:      -6.2      3.218      6.227
REMARK  Name = 
REMARK  6 active torsions:
REMARK  status: ('A' for Active; 'I' for Inactive)
REMARK    1  A    between atoms: C_1  and  O_2
REMARK    2  A    between atoms: O_2  and  C_3
REMARK    3  A    between atoms: C_3  and  C_4
REMARK    4  A    between atoms: C_8  and  C_10
REMARK    5  A    between atoms: N_17  and  S_18
REMARK    6  A    between atoms: S_18  and  C_19
REMARK                            x       y       z     vdW  Elec       q    Type
REMARK                         _______ _______ _______ _____ _____    ______ ____
ROOT
ATOM      1  C   UNL     1       3.839   5.171  18.200  0.00  0.00    +0.000 C 
ATOM      2  C   UNL     1       2.295   4.991  18.075  0.00  0.00    +0.000 C 
ATOM      3  C   UNL     1       1.533   6.035  18.949  0.00  0.00    +0.000 C 
ATOM      4  N   UNL     1       2.087   7.385  18.808  0.00  0.00    +0.000 N 
ATOM      5  C   UNL     1       1.742   8.520  19.545  0.00  0.00    +0.000 C 
ATOM      6  O   UNL     1       2.202   9.629  19.242  0.00  0.00    +0.000 OA
ATOM      7  C   UNL     1       2.982   7.566  17.696  0.00  0.00    +0.000 C 
ATOM      8  C   UNL     1       4.192   6.641  17.834  0.00  0.00    +0.000 C 
ATOM      9  C   UNL     1       4.831   6.622  16.453  0.00  0.00    +0.000 C 
ATOM     10  N   UNL     1       5.344   5.274  16.274  0.00  0.00    +0.000 NA
ATOM     11  C   UNL     1       4.705   4.334  17.221  0.00  0.00    +0.000 C 
ENDROOT
BRANCH   5  12
ATOM     12  C   UNL     1       0.809   8.346  20.763  0.00  0.00    +0.000 C 
ATOM     13  C   UNL     1       1.363   8.866  22.126  0.00  0.00    +0.000 C 
ATOM     14  C   UNL     1      -0.051   9.357  22.457  0.00  0.00    +0.000 C 
ATOM     15  C   UNL     1      -0.346   9.361  20.947  0.00  0.00    +0.000 C 
ENDBRANCH   5  12
BRANCH  10  16
ATOM     16  S   UNL     1       6.954   5.109  15.824  0.00  0.00    +0.000 S 
ATOM     17  C   UNL     1       7.696   4.327  17.246  0.00  0.00    +0.000 C 
ATOM     18  O   UNL     1       7.020   4.188  14.706  0.00  0.00    +0.000 OA
ATOM     19  O   UNL     1       7.511   6.446  15.727  0.00  0.00    +0.000 OA
ENDBRANCH  10  16
BRANCH   1  20
ATOM     20  C   UNL     1       4.181   4.717  19.650  0.00  0.00    +0.000 C 
BRANCH  20  22
ATOM     21  C   UNL     1       4.206   2.422  20.161  0.00  0.00    +0.000 C 
ATOM     22  O   UNL     1       4.979   3.537  19.708  0.00  0.00    +0.000 OA
ENDBRANCH  20  22
ENDBRANCH   1  20
TORSDOF 4
ENDMDL
MODEL 7
REMARK VINA RESULT:      -6.1      3.922      6.347
REMARK  Name = 
REMARK  6 active torsions:
REMARK  status: ('A' for Active; 'I' for Inactive)
REMARK    1  A    between atoms: C_1  and  O_2
REMARK    2  A    between atoms: O_2  and  C_3
REMARK    3  A    between atoms: C_3  and  C_4
REMARK    4  A    between atoms: C_8  and  C_10
REMARK    5  A    between atoms: N_17  and  S_18
REMARK    6  A    between atoms: S_18  and  C_19
REMARK                            x       y       z     vdW  Elec       q    Type
REMARK                         _______ _______ _______ _____ _____    ______ ____
ROOT
ATOM      1  C   UNL     1       6.254   5.081  16.111  0.00  0.00    +0.000 C 
ATOM      2  C   UNL     1       6.525   4.547  17.551  0.00  0.00    +0.000 C 
ATOM      3  C   UNL     1       5.365   4.930  18.522  0.00  0.00    +0.000 C 
ATOM      4  N   UNL     1       4.046   4.690  17.930  0.00  0.00    +0.000 N 
ATOM      5  C   UNL     1       2.805   5.050  18.461  0.00  0.00    +0.000 C 
ATOM      6  O   UNL     1       1.757   4.679  17.914  0.00  0.00    +0.000 OA
ATOM      7  C   UNL     1       4.046   3.877  16.742  0.00  0.00    +0.000 C 
ATOM      8  C   UNL     1       4.871   4.549  15.642  0.00  0.00    +0.000 C 
ATOM      9  C   UNL     1       5.132   3.450  14.622  0.00  0.00    +0.000 C 
ATOM     10  N   UNL     1       6.464   3.704  14.100  0.00  0.00    +0.000 NA
ATOM     11  C   UNL     1       7.228   4.590  15.007  0.00  0.00    +0.000 C 
ENDROOT
BRANCH   5  12
ATOM     12  C   UNL     1       2.778   5.947  19.717  0.00  0.00    +0.000 C 
ATOM     13  C   UNL     1       2.292   7.414  19.495  0.00  0.00    +0.000 C 
ATOM     14  C   UNL     1       1.573   7.327  20.846  0.00  0.00    +0.000 C 
ATOM     15  C   UNL     1       1.589   5.795  20.696  0.00  0.00    +0.000 C 
ENDBRANCH   5  12
BRANCH  10  16
ATOM     16  S   UNL     1       6.641   3.791  12.432  0.00  0.00    +0.000 S 
ATOM     17  C   UNL     1       4.958   3.903  11.849  0.00  0.00    +0.000 C 
ATOM     18  O   UNL     1       7.323   5.030  12.113  0.00  0.00    +0.000 OA
ATOM     19  O   UNL     1       7.166   2.512  11.990  0.00  0.00    +0.000 OA
ENDBRANCH  10  16
BRANCH   1  20
ATOM     20  C   UNL     1       6.400   6.628  16.222  0.00  0.00    +0.000 C 
BRANCH  20  22
ATOM     21  C   UNL     1       7.656   8.128  17.527  0.00  0.00    +0.000 C 
ATOM     22  O   UNL     1       7.711   7.058  16.579  0.00  0.00    +0.000 OA
ENDBRANCH  20  22
ENDBRANCH   1  20
TORSDOF 4
ENDMDL
MODEL 8
REMARK VINA RESULT:      -5.9      3.075      6.131
REMARK  Name = 
REMARK  6 active torsions:
REMARK  status: ('A' for Active; 'I' for Inactive)
REMARK    1  A    between atoms: C_1  and  O_2
REMARK    2  A    between atoms: O_2  and  C_3
REMARK    3  A    between atoms: C_3  and  C_4
REMARK    4  A    between atoms: C_8  and  C_10
REMARK    5  A    between atoms: N_17  and  S_18
REMARK    6  A    between atoms: S_18  and  C_19
REMARK                            x       y       z     vdW  Elec       q    Type
REMARK                         _______ _______ _______ _____ _____    ______ ____
ROOT
ATOM      1  C   UNL     1       3.632   5.689  18.133  0.00  0.00    +0.000 C 
ATOM      2  C   UNL     1       2.096   5.601  17.879  0.00  0.00    +0.000 C 
ATOM      3  C   UNL     1       1.358   6.855  18.443  0.00  0.00    +0.000 C 
ATOM      4  N   UNL     1       2.047   8.103  18.100  0.00  0.00    +0.000 N 
ATOM      5  C   UNL     1       1.743   9.387  18.558  0.00  0.00    +0.000 C 
ATOM      6  O   UNL     1       2.331  10.374  18.094  0.00  0.00    +0.000 OA
ATOM      7  C   UNL     1       3.053   7.986  17.078  0.00  0.00    +0.000 C 
ATOM      8  C   UNL     1       4.154   7.023  17.526  0.00  0.00    +0.000 C 
ATOM      9  C   UNL     1       4.912   6.674  16.254  0.00  0.00    +0.000 C 
ATOM     10  N   UNL     1       5.311   5.284  16.399  0.00  0.00    +0.000 NA
ATOM     11  C   UNL     1       4.502   4.608  17.438  0.00  0.00    +0.000 C 
ENDROOT
BRANCH   5  12
ATOM     12  C   UNL     1       0.690   9.535  19.677  0.00  0.00    +0.000 C 
ATOM     13  C   UNL     1       0.852  10.781  20.604  0.00  0.00    +0.000 C 
ATOM     14  C   UNL     1      -0.675  10.911  20.613  0.00  0.00    +0.000 C 
ATOM     15  C   UNL     1      -0.698  10.108  19.300  0.00  0.00    +0.000 C 
ENDBRANCH   5  12
BRANCH  10  16
ATOM     16  S   UNL     1       6.933   4.913  16.168  0.00  0.00    +0.000 S 
ATOM     17  C   UNL     1       7.503   4.538  17.817  0.00  0.00    +0.000 C 
ATOM     18  O   UNL     1       7.012   3.707  15.368  0.00  0.00    +0.000 OA
ATOM     19  O   UNL     1       7.596   6.134  15.750  0.00  0.00    +0.000 OA
ENDBRANCH  10  16
BRANCH   1  20
ATOM     20  C   UNL     1       3.796   5.518  19.672  0.00  0.00    +0.000 C 
BRANCH  20  22
ATOM     21  C   UNL     1       2.359   4.398  21.158  0.00  0.00    +0.000 C 
ATOM     22  O   UNL     1       3.370   4.247  20.157  0.00  0.00    +0.000 OA
ENDBRANCH  20  22
ENDBRANCH   1  20
TORSDOF 4
ENDMDL
MODEL 9
REMARK VINA RESULT:      -5.8      3.471      6.654
REMARK  Name = 
REMARK  6 active torsions:
REMARK  status: ('A' for Active; 'I' for Inactive)
REMARK    1  A    between atoms: C_1  and  O_2
REMARK    2  A    between atoms: O_2  and  C_3
REMARK    3  A    between atoms: C_3  and  C_4
REMARK    4  A    between atoms: C_8  and  C_10
REMARK    5  A    between atoms: N_17  and  S_18
REMARK    6  A    between atoms: S_18  and  C_19
REMARK                            x       y       z     vdW  Elec       q    Type
REMARK                         _______ _______ _______ _____ _____    ______ ____
ROOT
ATOM      1  C   UNL     1       6.106   5.302  17.043  0.00  0.00    +0.000 C 
ATOM      2  C   UNL     1       6.411   4.586  18.394  0.00  0.00    +0.000 C 
ATOM      3  C   UNL     1       5.095   4.161  19.117  0.00  0.00    +0.000 C 
ATOM      4  N   UNL     1       4.139   3.534  18.201  0.00  0.00    +0.000 N 
ATOM      5  C   UNL     1       2.820   3.166  18.479  0.00  0.00    +0.000 C 
ATOM      6  O   UNL     1       2.156   2.533  17.648  0.00  0.00    +0.000 OA
ATOM      7  C   UNL     1       4.679   3.140  16.926  0.00  0.00    +0.000 C 
ATOM      8  C   UNL     1       5.217   4.362  16.180  0.00  0.00    +0.000 C 
ATOM      9  C   UNL     1       6.099   3.792  15.078  0.00  0.00    +0.000 C 
ATOM     10  N   UNL     1       7.204   4.725  14.934  0.00  0.00    +0.000 NA
ATOM     11  C   UNL     1       7.329   5.587  16.130  0.00  0.00    +0.000 C 
ENDROOT
BRANCH   5  12
ATOM     12  C   UNL     1       2.208   3.604  19.827  0.00  0.00    +0.000 C 
ATOM     13  C   UNL     1       0.760   3.096  20.114  0.00  0.00    +0.000 C 
ATOM     14  C   UNL     1       1.171   2.905  21.579  0.00  0.00    +0.000 C 
ATOM     15  C   UNL     1       2.633   2.840  21.104  0.00  0.00    +0.000 C 
ENDBRANCH   5  12
BRANCH  10  16
ATOM     16  S   UNL     1       7.531   5.308  13.393  0.00  0.00    +0.000 S 
ATOM     17  C   UNL     1       7.295   3.875  12.356  0.00  0.00    +0.000 C 
ATOM     18  O   UNL     1       6.519   6.291  13.056  0.00  0.00    +0.000 OA
ATOM     19  O   UNL     1       8.943   5.643  13.351  0.00  0.00    +0.000 OA
ENDBRANCH  10  16
BRANCH   1  20
ATOM     20  C   UNL     1       5.481   6.670  17.445  0.00  0.00    +0.000 C 
BRANCH  20  22
ATOM     21  C   UNL     1       3.244   7.135  18.001  0.00  0.00    +0.000 C 
ATOM     22  O   UNL     1       4.164   6.871  16.938  0.00  0.00    +0.000 OA
ENDBRANCH  20  22
ENDBRANCH   1  20
TORSDOF 4
ENDMDL
