MODEL 1
REMARK VINA RESULT:      -7.9      0.000      0.000
REMARK  Name = 
REMARK  6 active torsions:
REMARK  status: ('A' for Active; 'I' for Inactive)
REMARK    1  A    between atoms: C_3  and  N_4
REMARK    2  A    between atoms: N_4  and  S_5
REMARK    3  A    between atoms: S_5  and  C_8
REMARK    4  A    between atoms: C_11  and  C_12
REMARK    5  A    between atoms: N_21  and  C_22
REMARK    6  A    between atoms: C_22  and  C_23
REMARK                            x       y       z     vdW  Elec       q    Type
REMARK                         _______ _______ _______ _____ _____    ______ ____
ROOT
ATOM      1  O   UNL     1       2.168   7.803  18.482  0.00  0.00    +0.000 OA
ATOM      2  C   UNL     1       1.650   8.053  19.556  0.00  0.00    +0.000 C 
ATOM      3  C   UNL     1       1.331   7.084  20.675  0.00  0.00    +0.000 C 
ATOM      4  C   UNL     1       1.136   8.040  21.863  0.00  0.00    +0.000 C 
ATOM      5  C   UNL     1       0.576   9.305  21.226  0.00  0.00    +0.000 C 
ATOM      6  N   UNL     1       1.167   9.296  19.917  0.00  0.00    +0.000 N 
ENDROOT
BRANCH   3   7
ATOM      7  N   UNL     1       2.313   6.039  21.016  0.00  0.00    +0.000 NA
ATOM      8  H   UNL     1       2.620   6.059  21.990  0.00  0.00    +0.000 HD
BRANCH   7   9
ATOM      9  S   UNL     1       1.884   4.438  20.649  0.00  0.00    +0.000 S 
ATOM     10  O   UNL     1       2.449   3.632  21.710  0.00  0.00    +0.000 OA
ATOM     11  O   UNL     1       0.466   4.404  20.372  0.00  0.00    +0.000 OA
BRANCH   9  12
ATOM     12  C   UNL     1       2.720   3.932  19.168  0.00  0.00    +0.000 A 
ATOM     13  C   UNL     1       2.376   3.074  18.141  0.00  0.00    +0.000 A 
ATOM     14  C   UNL     1       3.310   3.116  17.063  0.00  0.00    +0.000 A 
ATOM     15  C   UNL     1       4.380   3.947  17.329  0.00  0.00    +0.000 A 
ATOM     16  S   UNL     1       4.234   4.668  18.880  0.00  0.00    +0.000 S 
BRANCH  15  17
ATOM     17  C   UNL     1       5.493   4.265  16.470  0.00  0.00    +0.000 A 
ATOM     18  C   UNL     1       6.781   4.609  16.846  0.00  0.00    +0.000 A 
ATOM     19  C   UNL     1       7.611   4.932  15.730  0.00  0.00    +0.000 A 
ATOM     20  C   UNL     1       6.920   4.812  14.555  0.00  0.00    +0.000 A 
ATOM     21 CL   UNL     1       7.516   5.132  12.977  0.00  0.00    +0.000 Cl
ATOM     22  S   UNL     1       5.324   4.294  14.760  0.00  0.00    +0.000 S 
ENDBRANCH  15  17
ENDBRANCH   9  12
ENDBRANCH   7   9
ENDBRANCH   3   7
BRANCH   6  23
ATOM     23  C   UNL     1       1.084  10.400  18.984  0.00  0.00    +0.000 C 
BRANCH  23  24
ATOM     24  C   UNL     1      -0.336  10.621  18.562  0.00  0.00    +0.000 A 
ATOM     25  C   UNL     1      -1.205  11.469  19.158  0.00  0.00    +0.000 A 
ATOM     26  C   UNL     1      -2.368  11.440  18.339  0.00  0.00    +0.000 A 
ATOM     27  C   UNL     1      -3.559  12.034  18.318  0.00  0.00    +0.000 A 
ATOM     28  N   UNL     1      -4.458  11.776  17.305  0.00  0.00    +0.000 N 
ATOM     29  C   UNL     1      -4.158  10.910  16.275  0.00  0.00    +0.000 A 
ATOM     30  C   UNL     1      -2.998  10.242  16.178  0.00  0.00    +0.000 A 
ATOM     31  C   UNL     1      -2.018  10.494  17.251  0.00  0.00    +0.000 A 
ATOM     32  N   UNL     1      -0.817  10.005  17.398  0.00  0.00    +0.000 NA
ATOM     33  H   UNL     1      -5.347  12.268  17.299  0.00  0.00    +0.000 HD
ENDBRANCH  23  24
ENDBRANCH   6  23
TORSDOF 6
ENDMDL
MODEL 2
REMARK VINA RESULT:      -7.6      0.820      1.276
REMARK  Name = 
REMARK  6 active torsions:
REMARK  status: ('A' for Active; 'I' for Inactive)
REMARK    1  A    between atoms: C_3  and  N_4
REMARK    2  A    between atoms: N_4  and  S_5
REMARK    3  A    between atoms: S_5  and  C_8
REMARK    4  A    between atoms: C_11  and  C_12
REMARK    5  A    between atoms: N_21  and  C_22
REMARK    6  A    between atoms: C_22  and  C_23
REMARK                            x       y       z     vdW  Elec       q    Type
REMARK                         _______ _______ _______ _____ _____    ______ ____
ROOT
ATOM      1  O   UNL     1       2.145   8.017  18.490  0.00  0.00    +0.000 OA
ATOM      2  C   UNL     1       1.562   8.184  19.547  0.00  0.00    +0.000 C 
ATOM      3  C   UNL     1       1.253   7.146  20.605  0.00  0.00    +0.000 C 
ATOM      4  C   UNL     1       0.944   8.031  21.823  0.00  0.00    +0.000 C 
ATOM      5  C   UNL     1       0.335   9.288  21.216  0.00  0.00    +0.000 C 
ATOM      6  N   UNL     1       0.986   9.377  19.939  0.00  0.00    +0.000 N 
ENDROOT
BRANCH   3   7
ATOM      7  N   UNL     1       2.283   6.147  20.947  0.00  0.00    +0.000 NA
ATOM      8  H   UNL     1       2.635   6.225  21.903  0.00  0.00    +0.000 HD
BRANCH   7   9
ATOM      9  S   UNL     1       1.885   4.518  20.681  0.00  0.00    +0.000 S 
ATOM     10  O   UNL     1       2.207   3.834  21.915  0.00  0.00    +0.000 OA
ATOM     11  O   UNL     1       0.550   4.464  20.133  0.00  0.00    +0.000 OA
BRANCH   9  12
ATOM     12  C   UNL     1       2.981   3.841  19.460  0.00  0.00    +0.000 A 
ATOM     13  C   UNL     1       3.069   2.598  18.863  0.00  0.00    +0.000 A 
ATOM     14  C   UNL     1       4.018   2.573  17.798  0.00  0.00    +0.000 A 
ATOM     15  C   UNL     1       4.683   3.777  17.661  0.00  0.00    +0.000 A 
ATOM     16  S   UNL     1       4.143   4.919  18.823  0.00  0.00    +0.000 S 
BRANCH  15  17
ATOM     17  C   UNL     1       5.678   4.135  16.682  0.00  0.00    +0.000 A 
ATOM     18  C   UNL     1       7.005   4.464  16.905  0.00  0.00    +0.000 A 
ATOM     19  C   UNL     1       7.686   4.840  15.707  0.00  0.00    +0.000 A 
ATOM     20  C   UNL     1       6.849   4.773  14.626  0.00  0.00    +0.000 A 
ATOM     21 CL   UNL     1       7.239   5.165  13.001  0.00  0.00    +0.000 Cl
ATOM     22  S   UNL     1       5.291   4.243  15.010  0.00  0.00    +0.000 S 
ENDBRANCH  15  17
ENDBRANCH   9  12
ENDBRANCH   7   9
ENDBRANCH   3   7
BRANCH   6  23
ATOM     23  C   UNL     1       0.877  10.517  19.052  0.00  0.00    +0.000 C 
BRANCH  23  24
ATOM     24  C   UNL     1      -0.560  10.804  18.746  0.00  0.00    +0.000 A 
ATOM     25  C   UNL     1      -1.302  10.168  17.810  0.00  0.00    +0.000 A 
ATOM     26  C   UNL     1      -2.620  10.678  17.975  0.00  0.00    +0.000 A 
ATOM     27  C   UNL     1      -3.816  10.480  17.426  0.00  0.00    +0.000 A 
ATOM     28  N   UNL     1      -4.924  11.159  17.886  0.00  0.00    +0.000 N 
ATOM     29  C   UNL     1      -4.841  12.054  18.932  0.00  0.00    +0.000 A 
ATOM     30  C   UNL     1      -3.698  12.351  19.569  0.00  0.00    +0.000 A 
ATOM     31  C   UNL     1      -2.494  11.643  19.095  0.00  0.00    +0.000 A 
ATOM     32  N   UNL     1      -1.269  11.719  19.537  0.00  0.00    +0.000 NA
ATOM     33  H   UNL     1      -5.830  10.964  17.469  0.00  0.00    +0.000 HD
ENDBRANCH  23  24
ENDBRANCH   6  23
TORSDOF 6
ENDMDL
MODEL 3
REMARK VINA RESULT:      -7.4      6.197     11.136
REMARK  Name = 
REMARK  6 active torsions:
REMARK  status: ('A' for Active; 'I' for Inactive)
REMARK    1  A    between atoms: C_3  and  N_4
REMARK    2  A    between atoms: N_4  and  S_5
REMARK    3  A    between atoms: S_5  and  C_8
REMARK    4  A    between atoms: C_11  and  C_12
REMARK    5  A    between atoms: N_21  and  C_22
REMARK    6  A    between atoms: C_22  and  C_23
REMARK                            x       y       z     vdW  Elec       q    Type
REMARK                         _______ _______ _______ _____ _____    ______ ____
ROOT
ATOM      1  O   UNL     1       1.501  10.011  17.595  0.00  0.00    +0.000 OA
ATOM      2  C   UNL     1       1.498   9.397  18.647  0.00  0.00    +0.000 C 
ATOM      3  C   UNL     1       0.891   9.828  19.966  0.00  0.00    +0.000 C 
ATOM      4  C   UNL     1       0.816   8.491  20.721  0.00  0.00    +0.000 C 
ATOM      5  C   UNL     1       2.008   7.706  20.193  0.00  0.00    +0.000 C 
ATOM      6  N   UNL     1       2.147   8.195  18.850  0.00  0.00    +0.000 N 
ENDROOT
BRANCH   3   7
ATOM      7  N   UNL     1      -0.428  10.488  19.963  0.00  0.00    +0.000 NA
ATOM      8  H   UNL     1      -1.166   9.944  20.415  0.00  0.00    +0.000 HD
BRANCH   7   9
ATOM      9  S   UNL     1      -0.496  12.062  20.594  0.00  0.00    +0.000 S 
ATOM     10  O   UNL     1       0.737  12.238  21.332  0.00  0.00    +0.000 OA
ATOM     11  O   UNL     1      -0.849  12.964  19.522  0.00  0.00    +0.000 OA
BRANCH   9  12
ATOM     12  C   UNL     1      -1.793  12.152  21.804  0.00  0.00    +0.000 A 
ATOM     13  C   UNL     1      -1.913  11.663  23.090  0.00  0.00    +0.000 A 
ATOM     14  C   UNL     1      -3.088  12.140  23.744  0.00  0.00    +0.000 A 
ATOM     15  C   UNL     1      -3.870  12.920  22.914  0.00  0.00    +0.000 A 
ATOM     16  S   UNL     1      -3.166  13.064  21.355  0.00  0.00    +0.000 S 
BRANCH  15  17
ATOM     17  C   UNL     1      -5.102  13.597  23.232  0.00  0.00    +0.000 A 
ATOM     18  C   UNL     1      -6.228  13.065  23.838  0.00  0.00    +0.000 A 
ATOM     19  C   UNL     1      -7.297  14.007  23.933  0.00  0.00    +0.000 A 
ATOM     20  C   UNL     1      -6.934  15.215  23.402  0.00  0.00    +0.000 A 
ATOM     21 CL   UNL     1      -7.915  16.619  23.278  0.00  0.00    +0.000 Cl
ATOM     22  S   UNL     1      -5.344  15.251  22.829  0.00  0.00    +0.000 S 
ENDBRANCH  15  17
ENDBRANCH   9  12
ENDBRANCH   7   9
ENDBRANCH   3   7
BRANCH   6  23
ATOM     23  C   UNL     1       3.039   7.617  17.866  0.00  0.00    +0.000 C 
BRANCH  23  24
ATOM     24  C   UNL     1       3.168   6.142  18.082  0.00  0.00    +0.000 A 
ATOM     25  C   UNL     1       4.252   5.520  18.602  0.00  0.00    +0.000 A 
ATOM     26  C   UNL     1       3.865   4.158  18.740  0.00  0.00    +0.000 A 
ATOM     27  C   UNL     1       4.410   3.033  19.195  0.00  0.00    +0.000 A 
ATOM     28  N   UNL     1       3.693   1.855  19.206  0.00  0.00    +0.000 N 
ATOM     29  C   UNL     1       2.388   1.799  18.761  0.00  0.00    +0.000 A 
ATOM     30  C   UNL     1       1.722   2.857  18.272  0.00  0.00    +0.000 A 
ATOM     31  C   UNL     1       2.467   4.129  18.243  0.00  0.00    +0.000 A 
ATOM     32  N   UNL     1       2.067   5.306  17.846  0.00  0.00    +0.000 NA
ATOM     33  H   UNL     1       4.124   1.019  19.588  0.00  0.00    +0.000 HD
ENDBRANCH  23  24
ENDBRANCH   6  23
TORSDOF 6
ENDMDL
MODEL 4
REMARK VINA RESULT:      -7.3      0.819      1.001
REMARK  Name = 
REMARK  6 active torsions:
REMARK  status: ('A' for Active; 'I' for Inactive)
REMARK    1  A    between atoms: C_3  and  N_4
REMARK    2  A    between atoms: N_4  and  S_5
REMARK    3  A    between atoms: S_5  and  C_8
REMARK    4  A    between atoms: C_11  and  C_12
REMARK    5  A    between atoms: N_21  and  C_22
REMARK    6  A    between atoms: C_22  and  C_23
REMARK                            x       y       z     vdW  Elec       q    Type
REMARK                         _______ _______ _______ _____ _____    ______ ____
ROOT
ATOM      1  O   UNL     1       2.075   7.973  18.185  0.00  0.00    +0.000 OA
ATOM      2  C   UNL     1       1.616   8.193  19.291  0.00  0.00    +0.000 C 
ATOM      3  C   UNL     1       1.435   7.209  20.428  0.00  0.00    +0.000 C 
ATOM      4  C   UNL     1       1.262   8.154  21.628  0.00  0.00    +0.000 C 
ATOM      5  C   UNL     1       0.582   9.379  21.033  0.00  0.00    +0.000 C 
ATOM      6  N   UNL     1       1.082   9.404  19.687  0.00  0.00    +0.000 N 
ENDROOT
BRANCH   3   7
ATOM      7  N   UNL     1       2.502   6.228  20.700  0.00  0.00    +0.000 NA
ATOM      8  H   UNL     1       2.951   6.345  21.610  0.00  0.00    +0.000 HD
BRANCH   7   9
ATOM      9  S   UNL     1       2.091   4.589  20.541  0.00  0.00    +0.000 S 
ATOM     10  O   UNL     1       2.528   3.958  21.768  0.00  0.00    +0.000 OA
ATOM     11  O   UNL     1       0.711   4.509  20.121  0.00  0.00    +0.000 OA
BRANCH   9  12
ATOM     12  C   UNL     1       3.073   3.861  19.255  0.00  0.00    +0.000 A 
ATOM     13  C   UNL     1       3.263   2.556  18.841  0.00  0.00    +0.000 A 
ATOM     14  C   UNL     1       4.023   2.474  17.637  0.00  0.00    +0.000 A 
ATOM     15  C   UNL     1       4.458   3.712  17.205  0.00  0.00    +0.000 A 
ATOM     16  S   UNL     1       3.933   4.956  18.265  0.00  0.00    +0.000 S 
BRANCH  15  17
ATOM     17  C   UNL     1       5.215   4.025  16.020  0.00  0.00    +0.000 A 
ATOM     18  C   UNL     1       5.061   3.489  14.751  0.00  0.00    +0.000 A 
ATOM     19  C   UNL     1       6.036   3.975  13.828  0.00  0.00    +0.000 A 
ATOM     20  C   UNL     1       6.883   4.865  14.434  0.00  0.00    +0.000 A 
ATOM     21 CL   UNL     1       8.216   5.667  13.709  0.00  0.00    +0.000 Cl
ATOM     22  S   UNL     1       6.515   5.149  16.059  0.00  0.00    +0.000 S 
ENDBRANCH  15  17
ENDBRANCH   9  12
ENDBRANCH   7   9
ENDBRANCH   3   7
BRANCH   6  23
ATOM     23  C   UNL     1       0.867  10.498  18.763  0.00  0.00    +0.000 C 
BRANCH  23  24
ATOM     24  C   UNL     1      -0.596  10.780  18.620  0.00  0.00    +0.000 A 
ATOM     25  C   UNL     1      -1.327  11.557  19.453  0.00  0.00    +0.000 A 
ATOM     26  C   UNL     1      -2.612  11.638  18.848  0.00  0.00    +0.000 A 
ATOM     27  C   UNL     1      -3.771  12.240  19.102  0.00  0.00    +0.000 A 
ATOM     28  N   UNL     1      -4.836  12.115  18.236  0.00  0.00    +0.000 N 
ATOM     29  C   UNL     1      -4.740  11.378  17.074  0.00  0.00    +0.000 A 
ATOM     30  C   UNL     1      -3.633  10.717  16.700  0.00  0.00    +0.000 A 
ATOM     31  C   UNL     1      -2.479  10.828  17.611  0.00  0.00    +0.000 A 
ATOM     32  N   UNL     1      -1.285  10.315  17.491  0.00  0.00    +0.000 NA
ATOM     33  H   UNL     1      -5.699  12.611  18.440  0.00  0.00    +0.000 HD
ENDBRANCH  23  24
ENDBRANCH   6  23
TORSDOF 6
ENDMDL
MODEL 5
REMARK VINA RESULT:      -7.3      5.869     11.143
REMARK  Name = 
REMARK  6 active torsions:
REMARK  status: ('A' for Active; 'I' for Inactive)
REMARK    1  A    between atoms: C_3  and  N_4
REMARK    2  A    between atoms: N_4  and  S_5
REMARK    3  A    between atoms: S_5  and  C_8
REMARK    4  A    between atoms: C_11  and  C_12
REMARK    5  A    between atoms: N_21  and  C_22
REMARK    6  A    between atoms: C_22  and  C_23
REMARK                            x       y       z     vdW  Elec       q    Type
REMARK                         _______ _______ _______ _____ _____    ______ ____
ROOT
ATOM      1  O   UNL     1       1.199   8.177  21.405  0.00  0.00    +0.000 OA
ATOM      2  C   UNL     1       1.446   8.348  20.224  0.00  0.00    +0.000 C 
ATOM      3  C   UNL     1       1.053   9.528  19.359  0.00  0.00    +0.000 C 
ATOM      4  C   UNL     1       2.014   9.370  18.170  0.00  0.00    +0.000 C 
ATOM      5  C   UNL     1       2.215   7.865  18.060  0.00  0.00    +0.000 C 
ATOM      6  N   UNL     1       2.078   7.421  19.419  0.00  0.00    +0.000 N 
ENDROOT
BRANCH   3   7
ATOM      7  N   UNL     1       1.152  10.888  19.920  0.00  0.00    +0.000 NA
ATOM      8  H   UNL     1       2.059  11.333  19.771  0.00  0.00    +0.000 HD
BRANCH   7   9
ATOM      9  S   UNL     1      -0.044  11.997  19.448  0.00  0.00    +0.000 S 
ATOM     10  O   UNL     1       0.668  13.095  18.828  0.00  0.00    +0.000 OA
ATOM     11  O   UNL     1      -1.066  11.277  18.723  0.00  0.00    +0.000 OA
BRANCH   9  12
ATOM     12  C   UNL     1      -0.811  12.682  20.895  0.00  0.00    +0.000 A 
ATOM     13  C   UNL     1      -0.303  13.209  22.067  0.00  0.00    +0.000 A 
ATOM     14  C   UNL     1      -1.315  13.802  22.878  0.00  0.00    +0.000 A 
ATOM     15  C   UNL     1      -2.578  13.645  22.339  0.00  0.00    +0.000 A 
ATOM     16  S   UNL     1      -2.515  12.784  20.855  0.00  0.00    +0.000 S 
BRANCH  15  17
ATOM     17  C   UNL     1      -3.831  14.136  22.854  0.00  0.00    +0.000 A 
ATOM     18  C   UNL     1      -4.113  15.408  23.325  0.00  0.00    +0.000 A 
ATOM     19  C   UNL     1      -5.443  15.525  23.830  0.00  0.00    +0.000 A 
ATOM     20  C   UNL     1      -6.117  14.339  23.714  0.00  0.00    +0.000 A 
ATOM     21 CL   UNL     1      -7.725  14.019  24.221  0.00  0.00    +0.000 Cl
ATOM     22  S   UNL     1      -5.206  13.113  22.990  0.00  0.00    +0.000 S 
ENDBRANCH  15  17
ENDBRANCH   9  12
ENDBRANCH   7   9
ENDBRANCH   3   7
BRANCH   6  23
ATOM     23  C   UNL     1       2.370   6.074  19.864  0.00  0.00    +0.000 C 
BRANCH  23  24
ATOM     24  C   UNL     1       3.468   5.479  19.038  0.00  0.00    +0.000 A 
ATOM     25  C   UNL     1       3.290   4.711  17.939  0.00  0.00    +0.000 A 
ATOM     26  C   UNL     1       4.599   4.496  17.424  0.00  0.00    +0.000 A 
ATOM     27  C   UNL     1       5.145   3.874  16.382  0.00  0.00    +0.000 A 
ATOM     28  N   UNL     1       6.507   3.909  16.174  0.00  0.00    +0.000 N 
ATOM     29  C   UNL     1       7.351   4.594  17.022  0.00  0.00    +0.000 A 
ATOM     30  C   UNL     1       6.933   5.258  18.112  0.00  0.00    +0.000 A 
ATOM     31  C   UNL     1       5.480   5.233  18.363  0.00  0.00    +0.000 A 
ATOM     32  N   UNL     1       4.802   5.802  19.322  0.00  0.00    +0.000 NA
ATOM     33  H   UNL     1       6.892   3.451  15.353  0.00  0.00    +0.000 HD
ENDBRANCH  23  24
ENDBRANCH   6  23
TORSDOF 6
ENDMDL
MODEL 6
REMARK VINA RESULT:      -7.3      1.220      1.682
REMARK  Name = 
REMARK  6 active torsions:
REMARK  status: ('A' for Active; 'I' for Inactive)
REMARK    1  A    between atoms: C_3  and  N_4
REMARK    2  A    between atoms: N_4  and  S_5
REMARK    3  A    between atoms: S_5  and  C_8
REMARK    4  A    between atoms: C_11  and  C_12
REMARK    5  A    between atoms: N_21  and  C_22
REMARK    6  A    between atoms: C_22  and  C_23
REMARK                            x       y       z     vdW  Elec       q    Type
REMARK                         _______ _______ _______ _____ _____    ______ ____
ROOT
ATOM      1  O   UNL     1       2.151   8.885  18.462  0.00  0.00    +0.000 OA
ATOM      2  C   UNL     1       1.484   8.838  19.481  0.00  0.00    +0.000 C 
ATOM      3  C   UNL     1       1.254   7.642  20.379  0.00  0.00    +0.000 C 
ATOM      4  C   UNL     1       0.747   8.316  21.665  0.00  0.00    +0.000 C 
ATOM      5  C   UNL     1       0.011   9.550  21.164  0.00  0.00    +0.000 C 
ATOM      6  N   UNL     1       0.724   9.886  19.963  0.00  0.00    +0.000 N 
ENDROOT
BRANCH   3   7
ATOM      7  N   UNL     1       2.387   6.749  20.684  0.00  0.00    +0.000 NA
ATOM      8  H   UNL     1       2.721   6.815  21.647  0.00  0.00    +0.000 HD
BRANCH   7   9
ATOM      9  S   UNL     1       2.179   5.102  20.328  0.00  0.00    +0.000 S 
ATOM     10  O   UNL     1       2.324   4.411  21.592  0.00  0.00    +0.000 OA
ATOM     11  O   UNL     1       0.975   4.959  19.542  0.00  0.00    +0.000 OA
BRANCH   9  12
ATOM     12  C   UNL     1       3.531   4.544  19.322  0.00  0.00    +0.000 A 
ATOM     13  C   UNL     1       4.459   3.531  19.473  0.00  0.00    +0.000 A 
ATOM     14  C   UNL     1       5.259   3.351  18.306  0.00  0.00    +0.000 A 
ATOM     15  C   UNL     1       4.972   4.280  17.324  0.00  0.00    +0.000 A 
ATOM     16  S   UNL     1       3.733   5.354  17.832  0.00  0.00    +0.000 S 
BRANCH  15  17
ATOM     17  C   UNL     1       5.548   4.388  16.007  0.00  0.00    +0.000 A 
ATOM     18  C   UNL     1       5.169   3.711  14.860  0.00  0.00    +0.000 A 
ATOM     19  C   UNL     1       6.010   4.009  13.744  0.00  0.00    +0.000 A 
ATOM     20  C   UNL     1       6.984   4.905  14.091  0.00  0.00    +0.000 A 
ATOM     21 CL   UNL     1       8.225   5.516  13.074  0.00  0.00    +0.000 Cl
ATOM     22  S   UNL     1       6.892   5.415  15.700  0.00  0.00    +0.000 S 
ENDBRANCH  15  17
ENDBRANCH   9  12
ENDBRANCH   7   9
ENDBRANCH   3   7
BRANCH   6  23
ATOM     23  C   UNL     1       0.516  11.107  19.212  0.00  0.00    +0.000 C 
BRANCH  23  24
ATOM     24  C   UNL     1      -0.893  11.178  18.714  0.00  0.00    +0.000 A 
ATOM     25  C   UNL     1      -1.398  10.450  17.691  0.00  0.00    +0.000 A 
ATOM     26  C   UNL     1      -2.789  10.755  17.673  0.00  0.00    +0.000 A 
ATOM     27  C   UNL     1      -3.856  10.386  16.971  0.00  0.00    +0.000 A 
ATOM     28  N   UNL     1      -5.106  10.884  17.272  0.00  0.00    +0.000 N 
ATOM     29  C   UNL     1      -5.300  11.768  18.313  0.00  0.00    +0.000 A 
ATOM     30  C   UNL     1      -4.310  12.226  19.095  0.00  0.00    +0.000 A 
ATOM     31  C   UNL     1      -2.961  11.713  18.793  0.00  0.00    +0.000 A 
ATOM     32  N   UNL     1      -1.831  11.967  19.395  0.00  0.00    +0.000 NA
ATOM     33  H   UNL     1      -5.907  10.561  16.739  0.00  0.00    +0.000 HD
ENDBRANCH  23  24
ENDBRANCH   6  23
TORSDOF 6
ENDMDL
MODEL 7
REMARK VINA RESULT:      -7.2      4.392      6.200
REMARK  Name = 
REMARK  6 active torsions:
REMARK  status: ('A' for Active; 'I' for Inactive)
REMARK    1  A    between atoms: C_3  and  N_4
REMARK    2  A    between atoms: N_4  and  S_5
REMARK    3  A    between atoms: S_5  and  C_8
REMARK    4  A    between atoms: C_11  and  C_12
REMARK    5  A    between atoms: N_21  and  C_22
REMARK    6  A    between atoms: C_22  and  C_23
REMARK                            x       y       z     vdW  Elec       q    Type
REMARK                         _______ _______ _______ _____ _____    ______ ____
ROOT
ATOM      1  O   UNL     1       4.794   5.787  19.723  0.00  0.00    +0.000 OA
ATOM      2  C   UNL     1       3.986   5.316  18.942  0.00  0.00    +0.000 C 
ATOM      3  C   UNL     1       4.229   4.879  17.513  0.00  0.00    +0.000 C 
ATOM      4  C   UNL     1       3.000   3.993  17.250  0.00  0.00    +0.000 C 
ATOM      5  C   UNL     1       1.907   4.622  18.102  0.00  0.00    +0.000 C 
ATOM      6  N   UNL     1       2.638   5.175  19.208  0.00  0.00    +0.000 N 
ENDROOT
BRANCH   3   7
ATOM      7  N   UNL     1       5.466   4.145  17.191  0.00  0.00    +0.000 NA
ATOM      8  H   UNL     1       5.314   3.288  16.658  0.00  0.00    +0.000 HD
BRANCH   7   9
ATOM      9  S   UNL     1       6.692   5.021  16.408  0.00  0.00    +0.000 S 
ATOM     10  O   UNL     1       7.756   4.070  16.169  0.00  0.00    +0.000 OA
ATOM     11  O   UNL     1       6.095   5.752  15.314  0.00  0.00    +0.000 OA
BRANCH   9  12
ATOM     12  C   UNL     1       7.366   6.218  17.532  0.00  0.00    +0.000 A 
ATOM     13  C   UNL     1       8.002   6.106  18.754  0.00  0.00    +0.000 A 
ATOM     14  C   UNL     1       8.526   7.352  19.209  0.00  0.00    +0.000 A 
ATOM     15  C   UNL     1       8.211   8.395  18.359  0.00  0.00    +0.000 A 
ATOM     16  S   UNL     1       7.287   7.846  17.021  0.00  0.00    +0.000 S 
BRANCH  15  17
ATOM     17  C   UNL     1       8.594   9.780  18.472  0.00  0.00    +0.000 A 
ATOM     18  C   UNL     1       8.376  10.796  17.556  0.00  0.00    +0.000 A 
ATOM     19  C   UNL     1       8.958  12.035  17.962  0.00  0.00    +0.000 A 
ATOM     20  C   UNL     1       9.586  11.908  19.172  0.00  0.00    +0.000 A 
ATOM     21 CL   UNL     1      10.442  13.133  20.017  0.00  0.00    +0.000 Cl
ATOM     22  S   UNL     1       9.464  10.359  19.837  0.00  0.00    +0.000 S 
ENDBRANCH  15  17
ENDBRANCH   9  12
ENDBRANCH   7   9
ENDBRANCH   3   7
BRANCH   6  23
ATOM     23  C   UNL     1       2.017   5.724  20.395  0.00  0.00    +0.000 C 
BRANCH  23  24
ATOM     24  C   UNL     1       1.725   7.180  20.205  0.00  0.00    +0.000 A 
ATOM     25  C   UNL     1       1.980   7.887  19.080  0.00  0.00    +0.000 A 
ATOM     26  C   UNL     1       1.417   9.173  19.317  0.00  0.00    +0.000 A 
ATOM     27  C   UNL     1       1.282  10.314  18.648  0.00  0.00    +0.000 A 
ATOM     28  N   UNL     1       0.618  11.386  19.207  0.00  0.00    +0.000 N 
ATOM     29  C   UNL     1       0.060  11.313  20.466  0.00  0.00    +0.000 A 
ATOM     30  C   UNL     1       0.128  10.226  21.250  0.00  0.00    +0.000 A 
ATOM     31  C   UNL     1       0.838   9.065  20.679  0.00  0.00    +0.000 A 
ATOM     32  N   UNL     1       1.035   7.885  21.201  0.00  0.00    +0.000 NA
ATOM     33  H   UNL     1       0.503  12.234  18.661  0.00  0.00    +0.000 HD
ENDBRANCH  23  24
ENDBRANCH   6  23
TORSDOF 6
ENDMDL
MODEL 8
REMARK VINA RESULT:      -7.2      5.680     10.768
REMARK  Name = 
REMARK  6 active torsions:
REMARK  status: ('A' for Active; 'I' for Inactive)
REMARK    1  A    between atoms: C_3  and  N_4
REMARK    2  A    between atoms: N_4  and  S_5
REMARK    3  A    between atoms: S_5  and  C_8
REMARK    4  A    between atoms: C_11  and  C_12
REMARK    5  A    between atoms: N_21  and  C_22
REMARK    6  A    between atoms: C_22  and  C_23
REMARK                            x       y       z     vdW  Elec       q    Type
REMARK                         _______ _______ _______ _____ _____    ______ ____
ROOT
ATOM      1  O   UNL     1       1.385   7.250  21.384  0.00  0.00    +0.000 OA
ATOM      2  C   UNL     1       1.587   7.773  20.302  0.00  0.00    +0.000 C 
ATOM      3  C   UNL     1       1.135   9.143  19.840  0.00  0.00    +0.000 C 
ATOM      4  C   UNL     1       2.056   9.379  18.633  0.00  0.00    +0.000 C 
ATOM      5  C   UNL     1       2.290   7.983  18.073  0.00  0.00    +0.000 C 
ATOM      6  N   UNL     1       2.212   7.150  19.240  0.00  0.00    +0.000 N 
ENDROOT
BRANCH   3   7
ATOM      7  N   UNL     1       1.221  10.277  20.778  0.00  0.00    +0.000 NA
ATOM      8  H   UNL     1       2.096  10.316  21.304  0.00  0.00    +0.000 HD
BRANCH   7   9
ATOM      9  S   UNL     1       0.943  11.823  20.135  0.00  0.00    +0.000 S 
ATOM     10  O   UNL     1       1.741  12.726  20.936  0.00  0.00    +0.000 OA
ATOM     11  O   UNL     1       1.121  11.754  18.702  0.00  0.00    +0.000 OA
BRANCH   9  12
ATOM     12  C   UNL     1      -0.745  12.287  20.432  0.00  0.00    +0.000 A 
ATOM     13  C   UNL     1      -1.806  12.561  19.590  0.00  0.00    +0.000 A 
ATOM     14  C   UNL     1      -3.032  12.724  20.299  0.00  0.00    +0.000 A 
ATOM     15  C   UNL     1      -2.862  12.643  21.668  0.00  0.00    +0.000 A 
ATOM     16  S   UNL     1      -1.216  12.368  22.071  0.00  0.00    +0.000 S 
BRANCH  15  17
ATOM     17  C   UNL     1      -3.869  12.724  22.695  0.00  0.00    +0.000 A 
ATOM     18  C   UNL     1      -3.756  12.346  24.023  0.00  0.00    +0.000 A 
ATOM     19  C   UNL     1      -4.980  12.497  24.743  0.00  0.00    +0.000 A 
ATOM     20  C   UNL     1      -5.967  12.990  23.933  0.00  0.00    +0.000 A 
ATOM     21 CL   UNL     1      -7.598  13.296  24.373  0.00  0.00    +0.000 Cl
ATOM     22  S   UNL     1      -5.452  13.302  22.354  0.00  0.00    +0.000 S 
ENDBRANCH  15  17
ENDBRANCH   9  12
ENDBRANCH   7   9
ENDBRANCH   3   7
BRANCH   6  23
ATOM     23  C   UNL     1       2.552   5.742  19.254  0.00  0.00    +0.000 C 
BRANCH  23  24
ATOM     24  C   UNL     1       3.846   5.511  18.540  0.00  0.00    +0.000 A 
ATOM     25  C   UNL     1       5.068   5.500  19.120  0.00  0.00    +0.000 A 
ATOM     26  C   UNL     1       5.965   5.112  18.085  0.00  0.00    +0.000 A 
ATOM     27  C   UNL     1       7.269   4.880  17.964  0.00  0.00    +0.000 A 
ATOM     28  N   UNL     1       7.804   4.467  16.762  0.00  0.00    +0.000 N 
ATOM     29  C   UNL     1       7.013   4.268  15.650  0.00  0.00    +0.000 A 
ATOM     30  C   UNL     1       5.686   4.471  15.633  0.00  0.00    +0.000 A 
ATOM     31  C   UNL     1       5.087   4.918  16.904  0.00  0.00    +0.000 A 
ATOM     32  N   UNL     1       3.837   5.167  17.180  0.00  0.00    +0.000 NA
ATOM     33  H   UNL     1       8.798   4.268  16.707  0.00  0.00    +0.000 HD
ENDBRANCH  23  24
ENDBRANCH   6  23
TORSDOF 6
ENDMDL
MODEL 9
REMARK VINA RESULT:      -7.2      1.469      2.033
REMARK  Name = 
REMARK  6 active torsions:
REMARK  status: ('A' for Active; 'I' for Inactive)
REMARK    1  A    between atoms: C_3  and  N_4
REMARK    2  A    between atoms: N_4  and  S_5
REMARK    3  A    between atoms: S_5  and  C_8
REMARK    4  A    between atoms: C_11  and  C_12
REMARK    5  A    between atoms: N_21  and  C_22
REMARK    6  A    between atoms: C_22  and  C_23
REMARK                            x       y       z     vdW  Elec       q    Type
REMARK                         _______ _______ _______ _____ _____    ______ ____
ROOT
ATOM      1  O   UNL     1       3.042   6.800  18.612  0.00  0.00    +0.000 OA
ATOM      2  C   UNL     1       2.244   7.107  19.480  0.00  0.00    +0.000 C 
ATOM      3  C   UNL     1       1.627   6.204  20.527  0.00  0.00    +0.000 C 
ATOM      4  C   UNL     1       1.108   7.229  21.549  0.00  0.00    +0.000 C 
ATOM      5  C   UNL     1       0.747   8.440  20.700  0.00  0.00    +0.000 C 
ATOM      6  N   UNL     1       1.679   8.360  19.611  0.00  0.00    +0.000 N 
ENDROOT
BRANCH   3   7
ATOM      7  N   UNL     1       2.477   5.201  21.196  0.00  0.00    +0.000 NA
ATOM      8  H   UNL     1       2.398   5.204  22.215  0.00  0.00    +0.000 HD
BRANCH   7   9
ATOM      9  S   UNL     1       2.313   3.593  20.676  0.00  0.00    +0.000 S 
ATOM     10  O   UNL     1       3.217   2.824  21.504  0.00  0.00    +0.000 OA
ATOM     11  O   UNL     1       0.905   3.275  20.629  0.00  0.00    +0.000 OA
BRANCH   9  12
ATOM     12  C   UNL     1       2.940   3.446  19.022  0.00  0.00    +0.000 A 
ATOM     13  C   UNL     1       2.372   3.022  17.836  0.00  0.00    +0.000 A 
ATOM     14  C   UNL     1       3.226   3.245  16.716  0.00  0.00    +0.000 A 
ATOM     15  C   UNL     1       4.452   3.764  17.085  0.00  0.00    +0.000 A 
ATOM     16  S   UNL     1       4.546   3.977  18.786  0.00  0.00    +0.000 S 
BRANCH  15  17
ATOM     17  C   UNL     1       5.548   4.147  16.232  0.00  0.00    +0.000 A 
ATOM     18  C   UNL     1       6.786   4.637  16.613  0.00  0.00    +0.000 A 
ATOM     19  C   UNL     1       7.607   4.985  15.497  0.00  0.00    +0.000 A 
ATOM     20  C   UNL     1       6.959   4.736  14.317  0.00  0.00    +0.000 A 
ATOM     21 CL   UNL     1       7.558   5.033  12.736  0.00  0.00    +0.000 Cl
ATOM     22  S   UNL     1       5.418   4.072  14.519  0.00  0.00    +0.000 S 
ENDBRANCH  15  17
ENDBRANCH   9  12
ENDBRANCH   7   9
ENDBRANCH   3   7
BRANCH   6  23
ATOM     23  C   UNL     1       1.858   9.402  18.621  0.00  0.00    +0.000 C 
BRANCH  23  24
ATOM     24  C   UNL     1       0.845  10.486  18.816  0.00  0.00    +0.000 A 
ATOM     25  C   UNL     1      -0.443  10.435  18.404  0.00  0.00    +0.000 A 
ATOM     26  C   UNL     1      -1.043  11.617  18.924  0.00  0.00    +0.000 A 
ATOM     27  C   UNL     1      -2.251  12.174  18.926  0.00  0.00    +0.000 A 
ATOM     28  N   UNL     1      -2.480  13.359  19.592  0.00  0.00    +0.000 N 
ATOM     29  C   UNL     1      -1.478  14.003  20.287  0.00  0.00    +0.000 A 
ATOM     30  C   UNL     1      -0.215  13.553  20.361  0.00  0.00    +0.000 A 
ATOM     31  C   UNL     1       0.060  12.289  19.653  0.00  0.00    +0.000 A 
ATOM     32  N   UNL     1       1.177  11.618  19.574  0.00  0.00    +0.000 NA
ATOM     33  H   UNL     1      -3.419  13.745  19.603  0.00  0.00    +0.000 HD
ENDBRANCH  23  24
ENDBRANCH   6  23
TORSDOF 6
ENDMDL
