MODEL 1
REMARK VINA RESULT:      -8.0      0.000      0.000
REMARK  Name = 
REMARK  4 active torsions:
REMARK  status: ('A' for Active; 'I' for Inactive)
REMARK    1  A    between atoms: C_2  and  O_3
REMARK    2  A    between atoms: C_2  and  C_4
REMARK    3  A    between atoms: C_9  and  C_10
REMARK    4  A    between atoms: C_15  and  C_16
REMARK                            x       y       z     vdW  Elec       q    Type
REMARK                         _______ _______ _______ _____ _____    ______ ____
ROOT
ATOM      1  C   UNL     1       5.934   3.192  12.389  0.00  0.00    +0.000 A 
ATOM      2  C   UNL     1       7.160   3.830  12.198  0.00  0.00    +0.000 A 
ATOM      3  C   UNL     1       7.609   4.759  13.136  0.00  0.00    +0.000 A 
ATOM      4  C   UNL     1       6.865   5.057  14.270  0.00  0.00    +0.000 A 
ATOM      5  N   UNL     1       7.370   5.895  15.188  0.00  0.00    +0.000 NA
ATOM      6  C   UNL     1       6.636   6.088  16.320  0.00  0.00    +0.000 A 
ATOM      7  C   UNL     1       5.351   5.542  16.477  0.00  0.00    +0.000 A 
ATOM      8  N   UNL     1       4.845   4.699  15.524  0.00  0.00    +0.000 NA
ATOM      9  C   UNL     1       5.610   4.433  14.451  0.00  0.00    +0.000 A 
ATOM     10  C   UNL     1       5.167   3.502  13.517  0.00  0.00    +0.000 A 
ENDROOT
BRANCH   7  11
ATOM     11  C   UNL     1       4.462   5.761  17.645  0.00  0.00    +0.000 A 
ATOM     12  C   UNL     1       4.363   4.836  18.702  0.00  0.00    +0.000 A 
ATOM     13  C   UNL     1       3.384   4.961  19.693  0.00  0.00    +0.000 A 
ATOM     14  C   UNL     1       2.530   6.058  19.691  0.00  0.00    +0.000 A 
ATOM     15  C   UNL     1       2.677   7.043  18.718  0.00  0.00    +0.000 A 
ATOM     16  C   UNL     1       3.633   6.895  17.708  0.00  0.00    +0.000 A 
ENDBRANCH   7  11
BRANCH   6  17
ATOM     17  C   UNL     1       7.366   6.820  17.348  0.00  0.00    +0.000 A 
ATOM     18  C   UNL     1       7.904   6.489  18.577  0.00  0.00    +0.000 A 
ATOM     19  C   UNL     1       8.521   7.661  19.080  0.00  0.00    +0.000 A 
ATOM     20  C   UNL     1       8.290   8.648  18.151  0.00  0.00    +0.000 A 
ATOM     21  O   UNL     1       7.557   8.155  17.120  0.00  0.00    +0.000 OA
ENDBRANCH   6  17
BRANCH   1  23
ATOM     22  O   UNL     1       4.451   2.177  10.840  0.00  0.00    +0.000 OA
ATOM     23  C   UNL     1       5.526   2.150  11.416  0.00  0.00    +0.000 C 
BRANCH  23  24
ATOM     24  O   UNL     1       6.428   1.163  11.255  0.00  0.00    +0.000 OA
ATOM     25  H   UNL     1       6.875   1.129  10.389  0.00  0.00    +0.000 HD
ENDBRANCH  23  24
ENDBRANCH   1  23
TORSDOF 4
ENDMDL
MODEL 2
REMARK VINA RESULT:      -7.7      2.681      4.605
REMARK  Name = 
REMARK  4 active torsions:
REMARK  status: ('A' for Active; 'I' for Inactive)
REMARK    1  A    between atoms: C_2  and  O_3
REMARK    2  A    between atoms: C_2  and  C_4
REMARK    3  A    between atoms: C_9  and  C_10
REMARK    4  A    between atoms: C_15  and  C_16
REMARK                            x       y       z     vdW  Elec       q    Type
REMARK                         _______ _______ _______ _____ _____    ______ ____
ROOT
ATOM      1  C   UNL     1       6.597   4.841  14.533  0.00  0.00    +0.000 A 
ATOM      2  C   UNL     1       6.600   3.549  15.058  0.00  0.00    +0.000 A 
ATOM      3  C   UNL     1       5.838   3.261  16.190  0.00  0.00    +0.000 A 
ATOM      4  C   UNL     1       5.061   4.235  16.804  0.00  0.00    +0.000 A 
ATOM      5  N   UNL     1       4.280   3.897  17.840  0.00  0.00    +0.000 NA
ATOM      6  C   UNL     1       3.476   4.871  18.352  0.00  0.00    +0.000 A 
ATOM      7  C   UNL     1       3.543   6.202  17.909  0.00  0.00    +0.000 A 
ATOM      8  N   UNL     1       4.356   6.533  16.857  0.00  0.00    +0.000 NA
ATOM      9  C   UNL     1       5.079   5.551  16.290  0.00  0.00    +0.000 A 
ATOM     10  C   UNL     1       5.835   5.834  15.158  0.00  0.00    +0.000 A 
ENDROOT
BRANCH   7  11
ATOM     11  C   UNL     1       2.755   7.332  18.460  0.00  0.00    +0.000 A 
ATOM     12  C   UNL     1       2.326   7.371  19.801  0.00  0.00    +0.000 A 
ATOM     13  C   UNL     1       1.425   8.340  20.252  0.00  0.00    +0.000 A 
ATOM     14  C   UNL     1       0.993   9.341  19.390  0.00  0.00    +0.000 A 
ATOM     15  C   UNL     1       1.485   9.389  18.088  0.00  0.00    +0.000 A 
ATOM     16  C   UNL     1       2.357   8.397  17.631  0.00  0.00    +0.000 A 
ENDBRANCH   7  11
BRANCH   6  17
ATOM     17  C   UNL     1       2.504   4.356  19.309  0.00  0.00    +0.000 A 
ATOM     18  C   UNL     1       1.182   3.962  19.233  0.00  0.00    +0.000 A 
ATOM     19  C   UNL     1       0.811   3.526  20.529  0.00  0.00    +0.000 A 
ATOM     20  C   UNL     1       1.913   3.717  21.330  0.00  0.00    +0.000 A 
ATOM     21  O   UNL     1       2.927   4.256  20.606  0.00  0.00    +0.000 OA
ENDBRANCH   6  17
BRANCH   1  23
ATOM     22  O   UNL     1       7.023   4.612  12.210  0.00  0.00    +0.000 OA
ATOM     23  C   UNL     1       7.352   5.093  13.282  0.00  0.00    +0.000 C 
BRANCH  23  24
ATOM     24  O   UNL     1       8.445   5.863  13.443  0.00  0.00    +0.000 OA
ATOM     25  H   UNL     1       8.488   6.666  12.892  0.00  0.00    +0.000 HD
ENDBRANCH  23  24
ENDBRANCH   1  23
TORSDOF 4
ENDMDL
MODEL 3
REMARK VINA RESULT:      -7.4      0.638      1.049
REMARK  Name = 
REMARK  4 active torsions:
REMARK  status: ('A' for Active; 'I' for Inactive)
REMARK    1  A    between atoms: C_2  and  O_3
REMARK    2  A    between atoms: C_2  and  C_4
REMARK    3  A    between atoms: C_9  and  C_10
REMARK    4  A    between atoms: C_15  and  C_16
REMARK                            x       y       z     vdW  Elec       q    Type
REMARK                         _______ _______ _______ _____ _____    ______ ____
ROOT
ATOM      1  C   UNL     1       5.766   3.249  12.380  0.00  0.00    +0.000 A 
ATOM      2  C   UNL     1       7.034   3.808  12.216  0.00  0.00    +0.000 A 
ATOM      3  C   UNL     1       7.531   4.689  13.176  0.00  0.00    +0.000 A 
ATOM      4  C   UNL     1       6.793   5.017  14.306  0.00  0.00    +0.000 A 
ATOM      5  N   UNL     1       7.340   5.803  15.245  0.00  0.00    +0.000 NA
ATOM      6  C   UNL     1       6.605   6.025  16.371  0.00  0.00    +0.000 A 
ATOM      7  C   UNL     1       5.285   5.562  16.503  0.00  0.00    +0.000 A 
ATOM      8  N   UNL     1       4.737   4.770  15.529  0.00  0.00    +0.000 NA
ATOM      9  C   UNL     1       5.497   4.473  14.461  0.00  0.00    +0.000 A 
ATOM     10  C   UNL     1       5.006   3.590  13.505  0.00  0.00    +0.000 A 
ENDROOT
BRANCH   7  11
ATOM     11  C   UNL     1       4.397   5.819  17.664  0.00  0.00    +0.000 A 
ATOM     12  C   UNL     1       4.287   4.922  18.744  0.00  0.00    +0.000 A 
ATOM     13  C   UNL     1       3.309   5.081  19.730  0.00  0.00    +0.000 A 
ATOM     14  C   UNL     1       2.467   6.186  19.700  0.00  0.00    +0.000 A 
ATOM     15  C   UNL     1       2.624   7.145  18.702  0.00  0.00    +0.000 A 
ATOM     16  C   UNL     1       3.579   6.963  17.698  0.00  0.00    +0.000 A 
ENDBRANCH   7  11
BRANCH   6  17
ATOM     17  C   UNL     1       7.368   6.689  17.421  0.00  0.00    +0.000 A 
ATOM     18  C   UNL     1       7.841   7.973  17.612  0.00  0.00    +0.000 A 
ATOM     19  C   UNL     1       8.493   7.984  18.870  0.00  0.00    +0.000 A 
ATOM     20  C   UNL     1       8.416   6.700  19.355  0.00  0.00    +0.000 A 
ATOM     21  O   UNL     1       7.772   5.903  18.465  0.00  0.00    +0.000 OA
ENDBRANCH   6  17
BRANCH   1  23
ATOM     22  O   UNL     1       5.969   1.279  11.074  0.00  0.00    +0.000 OA
ATOM     23  C   UNL     1       5.303   2.253  11.385  0.00  0.00    +0.000 C 
BRANCH  23  24
ATOM     24  O   UNL     1       4.108   2.539  10.834  0.00  0.00    +0.000 OA
ATOM     25  H   UNL     1       4.132   2.957   9.953  0.00  0.00    +0.000 HD
ENDBRANCH  23  24
ENDBRANCH   1  23
TORSDOF 4
ENDMDL
MODEL 4
REMARK VINA RESULT:      -7.4      2.701      4.796
REMARK  Name = 
REMARK  4 active torsions:
REMARK  status: ('A' for Active; 'I' for Inactive)
REMARK    1  A    between atoms: C_2  and  O_3
REMARK    2  A    between atoms: C_2  and  C_4
REMARK    3  A    between atoms: C_9  and  C_10
REMARK    4  A    between atoms: C_15  and  C_16
REMARK                            x       y       z     vdW  Elec       q    Type
REMARK                         _______ _______ _______ _____ _____    ______ ____
ROOT
ATOM      1  C   UNL     1       6.585   4.863  14.655  0.00  0.00    +0.000 A 
ATOM      2  C   UNL     1       6.650   3.585  15.210  0.00  0.00    +0.000 A 
ATOM      3  C   UNL     1       5.886   3.280  16.335  0.00  0.00    +0.000 A 
ATOM      4  C   UNL     1       5.045   4.222  16.914  0.00  0.00    +0.000 A 
ATOM      5  N   UNL     1       4.266   3.863  17.946  0.00  0.00    +0.000 NA
ATOM      6  C   UNL     1       3.400   4.802  18.422  0.00  0.00    +0.000 A 
ATOM      7  C   UNL     1       3.401   6.124  17.949  0.00  0.00    +0.000 A 
ATOM      8  N   UNL     1       4.213   6.477  16.904  0.00  0.00    +0.000 NA
ATOM      9  C   UNL     1       4.998   5.525  16.371  0.00  0.00    +0.000 A 
ATOM     10  C   UNL     1       5.758   5.826  15.244  0.00  0.00    +0.000 A 
ENDROOT
BRANCH   7  11
ATOM     11  C   UNL     1       2.541   7.220  18.461  0.00  0.00    +0.000 A 
ATOM     12  C   UNL     1       2.075   8.263  17.637  0.00  0.00    +0.000 A 
ATOM     13  C   UNL     1       1.433   9.384  18.170  0.00  0.00    +0.000 A 
ATOM     14  C   UNL     1       1.172   9.452  19.534  0.00  0.00    +0.000 A 
ATOM     15  C   UNL     1       1.527   8.386  20.357  0.00  0.00    +0.000 A 
ATOM     16  C   UNL     1       2.201   7.283  19.825  0.00  0.00    +0.000 A 
ENDBRANCH   7  11
BRANCH   6  17
ATOM     17  C   UNL     1       2.442   4.254  19.375  0.00  0.00    +0.000 A 
ATOM     18  C   UNL     1       2.401   4.139  20.751  0.00  0.00    +0.000 A 
ATOM     19  C   UNL     1       1.163   3.529  21.071  0.00  0.00    +0.000 A 
ATOM     20  C   UNL     1       0.539   3.269  19.874  0.00  0.00    +0.000 A 
ATOM     21  O   UNL     1       1.326   3.669  18.842  0.00  0.00    +0.000 OA
ENDBRANCH   6  17
BRANCH   1  23
ATOM     22  O   UNL     1       8.306   5.881  13.378  0.00  0.00    +0.000 OA
ATOM     23  C   UNL     1       7.346   5.129  13.411  0.00  0.00    +0.000 C 
BRANCH  23  24
ATOM     24  O   UNL     1       6.863   4.498  12.324  0.00  0.00    +0.000 OA
ATOM     25  H   UNL     1       6.142   4.951  11.850  0.00  0.00    +0.000 HD
ENDBRANCH  23  24
ENDBRANCH   1  23
TORSDOF 4
ENDMDL
MODEL 5
REMARK VINA RESULT:      -7.3      0.662      1.292
REMARK  Name = 
REMARK  4 active torsions:
REMARK  status: ('A' for Active; 'I' for Inactive)
REMARK    1  A    between atoms: C_2  and  O_3
REMARK    2  A    between atoms: C_2  and  C_4
REMARK    3  A    between atoms: C_9  and  C_10
REMARK    4  A    between atoms: C_15  and  C_16
REMARK                            x       y       z     vdW  Elec       q    Type
REMARK                         _______ _______ _______ _____ _____    ______ ____
ROOT
ATOM      1  C   UNL     1       5.876   3.102  12.237  0.00  0.00    +0.000 A 
ATOM      2  C   UNL     1       7.107   3.739  12.079  0.00  0.00    +0.000 A 
ATOM      3  C   UNL     1       7.552   4.636  13.049  0.00  0.00    +0.000 A 
ATOM      4  C   UNL     1       6.799   4.903  14.185  0.00  0.00    +0.000 A 
ATOM      5  N   UNL     1       7.300   5.709  15.133  0.00  0.00    +0.000 NA
ATOM      6  C   UNL     1       6.556   5.870  16.263  0.00  0.00    +0.000 A 
ATOM      7  C   UNL     1       5.267   5.327  16.391  0.00  0.00    +0.000 A 
ATOM      8  N   UNL     1       4.765   4.517  15.408  0.00  0.00    +0.000 NA
ATOM      9  C   UNL     1       5.539   4.280  14.335  0.00  0.00    +0.000 A 
ATOM     10  C   UNL     1       5.100   3.381  13.367  0.00  0.00    +0.000 A 
ENDROOT
BRANCH   7  11
ATOM     11  C   UNL     1       4.367   5.514  17.557  0.00  0.00    +0.000 A 
ATOM     12  C   UNL     1       3.611   6.687  17.747  0.00  0.00    +0.000 A 
ATOM     13  C   UNL     1       2.924   6.928  18.940  0.00  0.00    +0.000 A 
ATOM     14  C   UNL     1       2.912   5.964  19.942  0.00  0.00    +0.000 A 
ATOM     15  C   UNL     1       3.563   4.751  19.736  0.00  0.00    +0.000 A 
ATOM     16  C   UNL     1       4.280   4.529  18.557  0.00  0.00    +0.000 A 
ENDBRANCH   7  11
BRANCH   6  17
ATOM     17  C   UNL     1       7.279   6.565  17.321  0.00  0.00    +0.000 A 
ATOM     18  C   UNL     1       7.709   7.865  17.511  0.00  0.00    +0.000 A 
ATOM     19  C   UNL     1       8.339   7.905  18.779  0.00  0.00    +0.000 A 
ATOM     20  C   UNL     1       8.295   6.622  19.272  0.00  0.00    +0.000 A 
ATOM     21  O   UNL     1       7.691   5.799  18.377  0.00  0.00    +0.000 OA
ENDBRANCH   6  17
BRANCH   1  23
ATOM     22  O   UNL     1       4.414   2.158  10.625  0.00  0.00    +0.000 OA
ATOM     23  C   UNL     1       5.472   2.094  11.229  0.00  0.00    +0.000 C 
BRANCH  23  24
ATOM     24  O   UNL     1       6.356   1.090  11.068  0.00  0.00    +0.000 OA
ATOM     25  H   UNL     1       7.289   1.354  10.971  0.00  0.00    +0.000 HD
ENDBRANCH  23  24
ENDBRANCH   1  23
TORSDOF 4
ENDMDL
MODEL 6
REMARK VINA RESULT:      -6.9      3.887      7.721
REMARK  Name = 
REMARK  4 active torsions:
REMARK  status: ('A' for Active; 'I' for Inactive)
REMARK    1  A    between atoms: C_2  and  O_3
REMARK    2  A    between atoms: C_2  and  C_4
REMARK    3  A    between atoms: C_9  and  C_10
REMARK    4  A    between atoms: C_15  and  C_16
REMARK                            x       y       z     vdW  Elec       q    Type
REMARK                         _______ _______ _______ _____ _____    ______ ____
ROOT
ATOM      1  C   UNL     1       1.620  10.273  18.695  0.00  0.00    +0.000 A 
ATOM      2  C   UNL     1       0.913   9.650  19.724  0.00  0.00    +0.000 A 
ATOM      3  C   UNL     1       1.128   8.299  19.992  0.00  0.00    +0.000 A 
ATOM      4  C   UNL     1       2.046   7.555  19.261  0.00  0.00    +0.000 A 
ATOM      5  N   UNL     1       2.282   6.280  19.605  0.00  0.00    +0.000 NA
ATOM      6  C   UNL     1       3.251   5.622  18.909  0.00  0.00    +0.000 A 
ATOM      7  C   UNL     1       3.892   6.197  17.799  0.00  0.00    +0.000 A 
ATOM      8  N   UNL     1       3.630   7.496  17.454  0.00  0.00    +0.000 NA
ATOM      9  C   UNL     1       2.743   8.176  18.201  0.00  0.00    +0.000 A 
ATOM     10  C   UNL     1       2.531   9.526  17.939  0.00  0.00    +0.000 A 
ENDROOT
BRANCH   7  11
ATOM     11  C   UNL     1       4.905   5.523  16.948  0.00  0.00    +0.000 A 
ATOM     12  C   UNL     1       6.280   5.815  17.036  0.00  0.00    +0.000 A 
ATOM     13  C   UNL     1       7.193   5.319  16.101  0.00  0.00    +0.000 A 
ATOM     14  C   UNL     1       6.763   4.455  15.101  0.00  0.00    +0.000 A 
ATOM     15  C   UNL     1       5.427   4.066  15.055  0.00  0.00    +0.000 A 
ATOM     16  C   UNL     1       4.511   4.592  15.970  0.00  0.00    +0.000 A 
ENDBRANCH   7  11
BRANCH   6  17
ATOM     17  C   UNL     1       3.596   4.335  19.501  0.00  0.00    +0.000 A 
ATOM     18  C   UNL     1       4.666   3.469  19.384  0.00  0.00    +0.000 A 
ATOM     19  C   UNL     1       4.410   2.385  20.259  0.00  0.00    +0.000 A 
ATOM     20  C   UNL     1       3.183   2.630  20.828  0.00  0.00    +0.000 A 
ATOM     21  O   UNL     1       2.667   3.788  20.343  0.00  0.00    +0.000 OA
ENDBRANCH   6  17
BRANCH   1  23
ATOM     22  O   UNL     1       0.556  12.361  19.062  0.00  0.00    +0.000 OA
ATOM     23  C   UNL     1       1.429  11.728  18.491  0.00  0.00    +0.000 C 
BRANCH  23  24
ATOM     24  O   UNL     1       2.276  12.276  17.598  0.00  0.00    +0.000 OA
ATOM     25  H   UNL     1       2.691  11.659  16.968  0.00  0.00    +0.000 HD
ENDBRANCH  23  24
ENDBRANCH   1  23
TORSDOF 4
ENDMDL
MODEL 7
REMARK VINA RESULT:      -6.8      3.898      7.779
REMARK  Name = 
REMARK  4 active torsions:
REMARK  status: ('A' for Active; 'I' for Inactive)
REMARK    1  A    between atoms: C_2  and  O_3
REMARK    2  A    between atoms: C_2  and  C_4
REMARK    3  A    between atoms: C_9  and  C_10
REMARK    4  A    between atoms: C_15  and  C_16
REMARK                            x       y       z     vdW  Elec       q    Type
REMARK                         _______ _______ _______ _____ _____    ______ ____
ROOT
ATOM      1  C   UNL     1       1.430  10.339  18.834  0.00  0.00    +0.000 A 
ATOM      2  C   UNL     1       0.788   9.667  19.875  0.00  0.00    +0.000 A 
ATOM      3  C   UNL     1       1.061   8.318  20.100  0.00  0.00    +0.000 A 
ATOM      4  C   UNL     1       1.972   7.625  19.313  0.00  0.00    +0.000 A 
ATOM      5  N   UNL     1       2.266   6.351  19.613  0.00  0.00    +0.000 NA
ATOM      6  C   UNL     1       3.227   5.745  18.861  0.00  0.00    +0.000 A 
ATOM      7  C   UNL     1       3.802   6.369  17.742  0.00  0.00    +0.000 A 
ATOM      8  N   UNL     1       3.480   7.666  17.441  0.00  0.00    +0.000 NA
ATOM      9  C   UNL     1       2.602   8.296  18.241  0.00  0.00    +0.000 A 
ATOM     10  C   UNL     1       2.333   9.643  18.023  0.00  0.00    +0.000 A 
ENDROOT
BRANCH   7  11
ATOM     11  C   UNL     1       4.801   5.753  16.833  0.00  0.00    +0.000 A 
ATOM     12  C   UNL     1       4.488   4.668  15.991  0.00  0.00    +0.000 A 
ATOM     13  C   UNL     1       5.481   3.978  15.289  0.00  0.00    +0.000 A 
ATOM     14  C   UNL     1       6.801   4.408  15.352  0.00  0.00    +0.000 A 
ATOM     15  C   UNL     1       7.122   5.543  16.092  0.00  0.00    +0.000 A 
ATOM     16  C   UNL     1       6.132   6.208  16.822  0.00  0.00    +0.000 A 
ENDBRANCH   7  11
BRANCH   6  17
ATOM     17  C   UNL     1       3.641   4.457  19.405  0.00  0.00    +0.000 A 
ATOM     18  C   UNL     1       4.821   3.738  19.405  0.00  0.00    +0.000 A 
ATOM     19  C   UNL     1       4.575   2.553  20.142  0.00  0.00    +0.000 A 
ATOM     20  C   UNL     1       3.252   2.597  20.514  0.00  0.00    +0.000 A 
ATOM     21  O   UNL     1       2.672   3.728  20.037  0.00  0.00    +0.000 OA
ENDBRANCH   6  17
BRANCH   1  23
ATOM     22  O   UNL     1       0.303  12.376  19.291  0.00  0.00    +0.000 OA
ATOM     23  C   UNL     1       1.180  11.791  18.676  0.00  0.00    +0.000 C 
BRANCH  23  24
ATOM     24  O   UNL     1       1.978  12.393  17.774  0.00  0.00    +0.000 OA
ATOM     25  H   UNL     1       1.610  13.183  17.336  0.00  0.00    +0.000 HD
ENDBRANCH  23  24
ENDBRANCH   1  23
TORSDOF 4
ENDMDL
MODEL 8
REMARK VINA RESULT:      -6.7      4.618      8.356
REMARK  Name = 
REMARK  4 active torsions:
REMARK  status: ('A' for Active; 'I' for Inactive)
REMARK    1  A    between atoms: C_2  and  O_3
REMARK    2  A    between atoms: C_2  and  C_4
REMARK    3  A    between atoms: C_9  and  C_10
REMARK    4  A    between atoms: C_15  and  C_16
REMARK                            x       y       z     vdW  Elec       q    Type
REMARK                         _______ _______ _______ _____ _____    ______ ____
ROOT
ATOM      1  C   UNL     1       1.430  11.205  18.944  0.00  0.00    +0.000 A 
ATOM      2  C   UNL     1       0.678  10.888  20.076  0.00  0.00    +0.000 A 
ATOM      3  C   UNL     1       0.592   9.562  20.500  0.00  0.00    +0.000 A 
ATOM      4  C   UNL     1       1.252   8.544  19.824  0.00  0.00    +0.000 A 
ATOM      5  N   UNL     1       1.210   7.295  20.312  0.00  0.00    +0.000 NA
ATOM      6  C   UNL     1       1.943   6.351  19.657  0.00  0.00    +0.000 A 
ATOM      7  C   UNL     1       2.613   6.630  18.454  0.00  0.00    +0.000 A 
ATOM      8  N   UNL     1       2.635   7.908  17.963  0.00  0.00    +0.000 NA
ATOM      9  C   UNL     1       1.991   8.859  18.661  0.00  0.00    +0.000 A 
ATOM     10  C   UNL     1       2.080  10.183  18.244  0.00  0.00    +0.000 A 
ENDROOT
BRANCH   7  11
ATOM     11  C   UNL     1       3.373   5.644  17.646  0.00  0.00    +0.000 A 
ATOM     12  C   UNL     1       2.954   4.307  17.495  0.00  0.00    +0.000 A 
ATOM     13  C   UNL     1       3.775   3.347  16.896  0.00  0.00    +0.000 A 
ATOM     14  C   UNL     1       5.003   3.719  16.363  0.00  0.00    +0.000 A 
ATOM     15  C   UNL     1       5.395   5.055  16.403  0.00  0.00    +0.000 A 
ATOM     16  C   UNL     1       4.587   6.005  17.035  0.00  0.00    +0.000 A 
ENDBRANCH   7  11
BRANCH   6  17
ATOM     17  C   UNL     1       2.023   5.092  20.387  0.00  0.00    +0.000 A 
ATOM     18  C   UNL     1       3.002   4.462  21.131  0.00  0.00    +0.000 A 
ATOM     19  C   UNL     1       2.437   3.255  21.609  0.00  0.00    +0.000 A 
ATOM     20  C   UNL     1       1.162   3.196  21.098  0.00  0.00    +0.000 A 
ATOM     21  O   UNL     1       0.920   4.285  20.324  0.00  0.00    +0.000 OA
ENDBRANCH   6  17
BRANCH   1  23
ATOM     22  O   UNL     1       1.079  13.534  19.232  0.00  0.00    +0.000 OA
ATOM     23  C   UNL     1       1.567  12.633  18.570  0.00  0.00    +0.000 C 
BRANCH  23  24
ATOM     24  O   UNL     1       2.244  12.840  17.424  0.00  0.00    +0.000 OA
ATOM     25  H   UNL     1       2.805  13.637  17.395  0.00  0.00    +0.000 HD
ENDBRANCH  23  24
ENDBRANCH   1  23
TORSDOF 4
ENDMDL
MODEL 9
REMARK VINA RESULT:      -6.7      3.402      6.451
REMARK  Name = 
REMARK  4 active torsions:
REMARK  status: ('A' for Active; 'I' for Inactive)
REMARK    1  A    between atoms: C_2  and  O_3
REMARK    2  A    between atoms: C_2  and  C_4
REMARK    3  A    between atoms: C_9  and  C_10
REMARK    4  A    between atoms: C_15  and  C_16
REMARK                            x       y       z     vdW  Elec       q    Type
REMARK                         _______ _______ _______ _____ _____    ______ ____
ROOT
ATOM      1  C   UNL     1       2.410   2.835  20.207  0.00  0.00    +0.000 A 
ATOM      2  C   UNL     1       2.078   2.124  19.054  0.00  0.00    +0.000 A 
ATOM      3  C   UNL     1       2.694   2.441  17.844  0.00  0.00    +0.000 A 
ATOM      4  C   UNL     1       3.648   3.448  17.762  0.00  0.00    +0.000 A 
ATOM      5  N   UNL     1       4.277   3.666  16.597  0.00  0.00    +0.000 NA
ATOM      6  C   UNL     1       5.261   4.608  16.593  0.00  0.00    +0.000 A 
ATOM      7  C   UNL     1       5.531   5.409  17.715  0.00  0.00    +0.000 A 
ATOM      8  N   UNL     1       4.871   5.182  18.893  0.00  0.00    +0.000 NA
ATOM      9  C   UNL     1       3.966   4.188  18.923  0.00  0.00    +0.000 A 
ATOM     10  C   UNL     1       3.353   3.866  20.130  0.00  0.00    +0.000 A 
ENDROOT
BRANCH   7  11
ATOM     11  C   UNL     1       6.536   6.500  17.770  0.00  0.00    +0.000 A 
ATOM     12  C   UNL     1       7.725   6.394  18.517  0.00  0.00    +0.000 A 
ATOM     13  C   UNL     1       8.564   7.495  18.715  0.00  0.00    +0.000 A 
ATOM     14  C   UNL     1       8.271   8.710  18.105  0.00  0.00    +0.000 A 
ATOM     15  C   UNL     1       7.158   8.812  17.275  0.00  0.00    +0.000 A 
ATOM     16  C   UNL     1       6.303   7.719  17.109  0.00  0.00    +0.000 A 
ENDBRANCH   7  11
BRANCH   6  17
ATOM     17  C   UNL     1       6.037   4.608  15.359  0.00  0.00    +0.000 A 
ATOM     18  C   UNL     1       7.296   5.053  15.004  0.00  0.00    +0.000 A 
ATOM     19  C   UNL     1       7.473   4.727  13.637  0.00  0.00    +0.000 A 
ATOM     20  C   UNL     1       6.300   4.140  13.225  0.00  0.00    +0.000 A 
ATOM     21  O   UNL     1       5.413   4.102  14.252  0.00  0.00    +0.000 OA
ENDBRANCH   6  17
BRANCH   1  23
ATOM     22  O   UNL     1       2.438   1.882  22.380  0.00  0.00    +0.000 OA
ATOM     23  C   UNL     1       1.797   2.418  21.491  0.00  0.00    +0.000 C 
BRANCH  23  24
ATOM     24  O   UNL     1       0.472   2.650  21.570  0.00  0.00    +0.000 OA
ATOM     25  H   UNL     1       0.167   3.117  22.370  0.00  0.00    +0.000 HD
ENDBRANCH  23  24
ENDBRANCH   1  23
TORSDOF 4
ENDMDL
