MODEL 1
REMARK VINA RESULT:      -7.2      0.000      0.000
REMARK  Name = 
REMARK  17 active torsions:
REMARK  status: ('A' for Active; 'I' for Inactive)
REMARK    1  A    between atoms: C_1  and  C_2
REMARK    2  A    between atoms: C_2  and  C_3
REMARK    3  A    between atoms: C_3  and  C_4
REMARK    4  A    between atoms: C_4  and  C_5
REMARK    5  A    between atoms: C_5  and  C_6
REMARK    6  A    between atoms: C_6  and  C_7
REMARK    7  A    between atoms: C_8  and  C_9
REMARK    8  A    between atoms: C_8  and  C_16
REMARK    9  A    between atoms: C_12  and  O_13
REMARK   10  A    between atoms: C_19  and  O_20
REMARK   11  A    between atoms: O_20  and  C_21
REMARK   12  A    between atoms: C_21  and  C_22
REMARK   13  A    between atoms: C_22  and  N_23
REMARK   14  A    between atoms: N_23  and  C_24
REMARK   15  A    between atoms: N_23  and  C_26
REMARK   16  A    between atoms: C_24  and  C_25
REMARK   17  A    between atoms: C_26  and  C_27
REMARK                            x       y       z     vdW  Elec       q    Type
REMARK                         _______ _______ _______ _____ _____    ______ ____
ROOT
ATOM      1  C   UNL     1       1.928   5.524  20.557  0.00  0.00    +0.000 C 
ATOM      2  C   UNL     1       2.536   6.215  19.570  0.00  0.00    +0.000 C 
ENDROOT
BRANCH   2   3
ATOM      3  C   UNL     1       3.677   5.636  18.833  0.00  0.00    +0.000 A 
ATOM      4  C   UNL     1       4.901   5.460  19.477  0.00  0.00    +0.000 A 
ATOM      5  C   UNL     1       6.010   4.976  18.774  0.00  0.00    +0.000 A 
ATOM      6  C   UNL     1       5.874   4.658  17.425  0.00  0.00    +0.000 A 
ATOM      7  C   UNL     1       4.655   4.806  16.776  0.00  0.00    +0.000 A 
ATOM      8  C   UNL     1       3.552   5.302  17.479  0.00  0.00    +0.000 A 
BRANCH   6   9
ATOM      9  O   UNL     1       6.930   4.199  16.697  0.00  0.00    +0.000 OA
ATOM     10  H   UNL     1       7.725   4.694  16.958  0.00  0.00    +0.000 HD
ENDBRANCH   6   9
ENDBRANCH   2   3
BRANCH   2  11
ATOM     11  C   UNL     1       2.053   7.592  19.324  0.00  0.00    +0.000 A 
ATOM     12  C   UNL     1       2.280   8.195  18.083  0.00  0.00    +0.000 A 
ATOM     13  C   UNL     1       1.860   9.504  17.848  0.00  0.00    +0.000 A 
ATOM     14  C   UNL     1       1.191  10.229  18.839  0.00  0.00    +0.000 A 
ATOM     15  C   UNL     1       0.959   9.627  20.079  0.00  0.00    +0.000 A 
ATOM     16  C   UNL     1       1.382   8.315  20.317  0.00  0.00    +0.000 A 
BRANCH  14  17
ATOM     17  O   UNL     1       0.767  11.531  18.692  0.00  0.00    +0.000 OA
BRANCH  17  18
ATOM     18  C   UNL     1      -0.595  11.724  19.094  0.00  0.00    +0.000 C 
BRANCH  18  19
ATOM     19  C   UNL     1      -1.577  11.597  17.917  0.00  0.00    +0.000 C 
BRANCH  19  20
ATOM     20  N   UNL     1      -2.826  10.878  18.279  0.00  0.00    +0.000 NA
BRANCH  20  21
ATOM     21  C   UNL     1      -3.999  11.759  18.404  0.00  0.00    +0.000 C 
ATOM     22  C   UNL     1      -4.196  12.427  19.761  0.00  0.00    +0.000 C 
ENDBRANCH  20  21
BRANCH  20  23
ATOM     23  C   UNL     1      -3.032   9.731  17.381  0.00  0.00    +0.000 C 
ATOM     24  C   UNL     1      -2.701  10.003  15.914  0.00  0.00    +0.000 C 
ENDBRANCH  20  23
ENDBRANCH  19  20
ENDBRANCH  18  19
ENDBRANCH  17  18
ENDBRANCH  14  17
ENDBRANCH   2  11
BRANCH   1  25
ATOM     25  C   UNL     1       2.299   4.138  21.023  0.00  0.00    +0.000 C 
BRANCH  25  26
ATOM     26  C   UNL     1       1.128   3.153  21.021  0.00  0.00    +0.000 C 
BRANCH  26  27
ATOM     27  C   UNL     1       1.352   2.081  19.948  0.00  0.00    +0.000 C 
BRANCH  27  28
ATOM     28  C   UNL     1       1.376   2.669  18.540  0.00  0.00    +0.000 C 
BRANCH  28  30
ATOM     29  C   UNL     1       3.642   1.575  18.495  0.00  0.00    +0.000 C 
ATOM     30  C   UNL     1       2.430   1.977  17.673  0.00  0.00    +0.000 C 
ENDBRANCH  28  30
ENDBRANCH  27  28
ENDBRANCH  26  27
ENDBRANCH  25  26
ENDBRANCH   1  25
TORSDOF 14
ENDMDL
MODEL 2
REMARK VINA RESULT:      -7.2      1.111      2.623
REMARK  Name = 
REMARK  17 active torsions:
REMARK  status: ('A' for Active; 'I' for Inactive)
REMARK    1  A    between atoms: C_1  and  C_2
REMARK    2  A    between atoms: C_2  and  C_3
REMARK    3  A    between atoms: C_3  and  C_4
REMARK    4  A    between atoms: C_4  and  C_5
REMARK    5  A    between atoms: C_5  and  C_6
REMARK    6  A    between atoms: C_6  and  C_7
REMARK    7  A    between atoms: C_8  and  C_9
REMARK    8  A    between atoms: C_8  and  C_16
REMARK    9  A    between atoms: C_12  and  O_13
REMARK   10  A    between atoms: C_19  and  O_20
REMARK   11  A    between atoms: O_20  and  C_21
REMARK   12  A    between atoms: C_21  and  C_22
REMARK   13  A    between atoms: C_22  and  N_23
REMARK   14  A    between atoms: N_23  and  C_24
REMARK   15  A    between atoms: N_23  and  C_26
REMARK   16  A    between atoms: C_24  and  C_25
REMARK   17  A    between atoms: C_26  and  C_27
REMARK                            x       y       z     vdW  Elec       q    Type
REMARK                         _______ _______ _______ _____ _____    ______ ____
ROOT
ATOM      1  C   UNL     1       1.870   4.703  17.757  0.00  0.00    +0.000 C 
ATOM      2  C   UNL     1       2.821   5.628  18.005  0.00  0.00    +0.000 C 
ENDROOT
BRANCH   2   3
ATOM      3  C   UNL     1       4.252   5.305  17.839  0.00  0.00    +0.000 A 
ATOM      4  C   UNL     1       4.740   4.942  16.584  0.00  0.00    +0.000 A 
ATOM      5  C   UNL     1       6.078   4.567  16.424  0.00  0.00    +0.000 A 
ATOM      6  C   UNL     1       6.923   4.574  17.531  0.00  0.00    +0.000 A 
ATOM      7  C   UNL     1       6.457   4.955  18.783  0.00  0.00    +0.000 A 
ATOM      8  C   UNL     1       5.116   5.317  18.941  0.00  0.00    +0.000 A 
BRANCH   6   9
ATOM      9  O   UNL     1       8.230   4.202  17.425  0.00  0.00    +0.000 OA
ATOM     10  H   UNL     1       8.774   4.842  17.912  0.00  0.00    +0.000 HD
ENDBRANCH   6   9
ENDBRANCH   2   3
BRANCH   2  11
ATOM     11  C   UNL     1       2.359   6.939  18.516  0.00  0.00    +0.000 A 
ATOM     12  C   UNL     1       2.040   7.081  19.870  0.00  0.00    +0.000 A 
ATOM     13  C   UNL     1       1.572   8.300  20.359  0.00  0.00    +0.000 A 
ATOM     14  C   UNL     1       1.430   9.403  19.511  0.00  0.00    +0.000 A 
ATOM     15  C   UNL     1       1.752   9.264  18.159  0.00  0.00    +0.000 A 
ATOM     16  C   UNL     1       2.219   8.041  17.666  0.00  0.00    +0.000 A 
BRANCH  14  17
ATOM     17  O   UNL     1       0.952  10.631  19.913  0.00  0.00    +0.000 OA
BRANCH  17  18
ATOM     18  C   UNL     1      -0.446  10.801  19.646  0.00  0.00    +0.000 C 
BRANCH  18  19
ATOM     19  C   UNL     1      -0.744  12.103  18.884  0.00  0.00    +0.000 C 
BRANCH  19  20
ATOM     20  N   UNL     1      -2.157  12.201  18.432  0.00  0.00    +0.000 NA
BRANCH  20  21
ATOM     21  C   UNL     1      -2.490  11.277  17.335  0.00  0.00    +0.000 C 
ATOM     22  C   UNL     1      -3.934  11.306  16.846  0.00  0.00    +0.000 C 
ENDBRANCH  20  21
BRANCH  20  23
ATOM     23  C   UNL     1      -3.067  12.117  19.584  0.00  0.00    +0.000 C 
ATOM     24  C   UNL     1      -3.033  13.330  20.512  0.00  0.00    +0.000 C 
ENDBRANCH  20  23
ENDBRANCH  19  20
ENDBRANCH  18  19
ENDBRANCH  17  18
ENDBRANCH  14  17
ENDBRANCH   2  11
BRANCH   1  25
ATOM     25  C   UNL     1       2.115   3.287  17.297  0.00  0.00    +0.000 C 
BRANCH  25  26
ATOM     26  C   UNL     1       2.009   2.249  18.415  0.00  0.00    +0.000 C 
BRANCH  26  27
ATOM     27  C   UNL     1       3.412   1.845  18.885  0.00  0.00    +0.000 C 
BRANCH  27  28
ATOM     28  C   UNL     1       3.747   2.414  20.261  0.00  0.00    +0.000 C 
BRANCH  28  30
ATOM     29  C   UNL     1       2.235   4.009  21.487  0.00  0.00    +0.000 C 
ATOM     30  C   UNL     1       2.487   2.559  21.117  0.00  0.00    +0.000 C 
ENDBRANCH  28  30
ENDBRANCH  27  28
ENDBRANCH  26  27
ENDBRANCH  25  26
ENDBRANCH   1  25
TORSDOF 14
ENDMDL
MODEL 3
REMARK VINA RESULT:      -7.1      1.069      2.484
REMARK  Name = 
REMARK  17 active torsions:
REMARK  status: ('A' for Active; 'I' for Inactive)
REMARK    1  A    between atoms: C_1  and  C_2
REMARK    2  A    between atoms: C_2  and  C_3
REMARK    3  A    between atoms: C_3  and  C_4
REMARK    4  A    between atoms: C_4  and  C_5
REMARK    5  A    between atoms: C_5  and  C_6
REMARK    6  A    between atoms: C_6  and  C_7
REMARK    7  A    between atoms: C_8  and  C_9
REMARK    8  A    between atoms: C_8  and  C_16
REMARK    9  A    between atoms: C_12  and  O_13
REMARK   10  A    between atoms: C_19  and  O_20
REMARK   11  A    between atoms: O_20  and  C_21
REMARK   12  A    between atoms: C_21  and  C_22
REMARK   13  A    between atoms: C_22  and  N_23
REMARK   14  A    between atoms: N_23  and  C_24
REMARK   15  A    between atoms: N_23  and  C_26
REMARK   16  A    between atoms: C_24  and  C_25
REMARK   17  A    between atoms: C_26  and  C_27
REMARK                            x       y       z     vdW  Elec       q    Type
REMARK                         _______ _______ _______ _____ _____    ______ ____
ROOT
ATOM      1  C   UNL     1       1.917   4.712  17.703  0.00  0.00    +0.000 C 
ATOM      2  C   UNL     1       2.862   5.643  17.949  0.00  0.00    +0.000 C 
ENDROOT
BRANCH   2   3
ATOM      3  C   UNL     1       4.296   5.316  17.824  0.00  0.00    +0.000 A 
ATOM      4  C   UNL     1       4.812   4.913  16.593  0.00  0.00    +0.000 A 
ATOM      5  C   UNL     1       6.153   4.534  16.474  0.00  0.00    +0.000 A 
ATOM      6  C   UNL     1       6.974   4.576  17.599  0.00  0.00    +0.000 A 
ATOM      7  C   UNL     1       6.480   4.997  18.827  0.00  0.00    +0.000 A 
ATOM      8  C   UNL     1       5.136   5.363  18.944  0.00  0.00    +0.000 A 
BRANCH   6   9
ATOM      9  O   UNL     1       8.282   4.201  17.534  0.00  0.00    +0.000 OA
ATOM     10  H   UNL     1       8.353   3.424  16.955  0.00  0.00    +0.000 HD
ENDBRANCH   6   9
ENDBRANCH   2   3
BRANCH   2  11
ATOM     11  C   UNL     1       2.390   6.967  18.415  0.00  0.00    +0.000 A 
ATOM     12  C   UNL     1       2.396   8.053  17.536  0.00  0.00    +0.000 A 
ATOM     13  C   UNL     1       1.986   9.314  17.970  0.00  0.00    +0.000 A 
ATOM     14  C   UNL     1       1.547   9.509  19.284  0.00  0.00    +0.000 A 
ATOM     15  C   UNL     1       1.537   8.423  20.163  0.00  0.00    +0.000 A 
ATOM     16  C   UNL     1       1.950   7.158  19.729  0.00  0.00    +0.000 A 
BRANCH  14  17
ATOM     17  O   UNL     1       1.150  10.725  19.794  0.00  0.00    +0.000 OA
BRANCH  17  18
ATOM     18  C   UNL     1      -0.275  10.864  19.862  0.00  0.00    +0.000 C 
BRANCH  18  19
ATOM     19  C   UNL     1      -0.882  11.337  18.531  0.00  0.00    +0.000 C 
BRANCH  19  20
ATOM     20  N   UNL     1      -2.197  12.008  18.698  0.00  0.00    +0.000 NA
BRANCH  20  21
ATOM     21  C   UNL     1      -3.290  11.358  17.957  0.00  0.00    +0.000 C 
ATOM     22  C   UNL     1      -3.097   9.879  17.633  0.00  0.00    +0.000 C 
ENDBRANCH  20  21
BRANCH  20  23
ATOM     23  C   UNL     1      -2.483  12.218  20.126  0.00  0.00    +0.000 C 
ATOM     24  C   UNL     1      -3.717  13.073  20.409  0.00  0.00    +0.000 C 
ENDBRANCH  20  23
ENDBRANCH  19  20
ENDBRANCH  18  19
ENDBRANCH  17  18
ENDBRANCH  14  17
ENDBRANCH   2  11
BRANCH   1  25
ATOM     25  C   UNL     1       2.171   3.284  17.286  0.00  0.00    +0.000 C 
BRANCH  25  26
ATOM     26  C   UNL     1       2.057   2.278  18.433  0.00  0.00    +0.000 C 
BRANCH  26  27
ATOM     27  C   UNL     1       3.455   1.922  18.952  0.00  0.00    +0.000 C 
BRANCH  27  28
ATOM     28  C   UNL     1       3.696   2.443  20.367  0.00  0.00    +0.000 C 
BRANCH  28  30
ATOM     29  C   UNL     1       1.650   2.574  21.825  0.00  0.00    +0.000 C 
ATOM     30  C   UNL     1       2.531   3.316  20.836  0.00  0.00    +0.000 C 
ENDBRANCH  28  30
ENDBRANCH  27  28
ENDBRANCH  26  27
ENDBRANCH  25  26
ENDBRANCH   1  25
TORSDOF 14
ENDMDL
MODEL 4
REMARK VINA RESULT:      -7.0      2.298      3.317
REMARK  Name = 
REMARK  17 active torsions:
REMARK  status: ('A' for Active; 'I' for Inactive)
REMARK    1  A    between atoms: C_1  and  C_2
REMARK    2  A    between atoms: C_2  and  C_3
REMARK    3  A    between atoms: C_3  and  C_4
REMARK    4  A    between atoms: C_4  and  C_5
REMARK    5  A    between atoms: C_5  and  C_6
REMARK    6  A    between atoms: C_6  and  C_7
REMARK    7  A    between atoms: C_8  and  C_9
REMARK    8  A    between atoms: C_8  and  C_16
REMARK    9  A    between atoms: C_12  and  O_13
REMARK   10  A    between atoms: C_19  and  O_20
REMARK   11  A    between atoms: O_20  and  C_21
REMARK   12  A    between atoms: C_21  and  C_22
REMARK   13  A    between atoms: C_22  and  N_23
REMARK   14  A    between atoms: N_23  and  C_24
REMARK   15  A    between atoms: N_23  and  C_26
REMARK   16  A    between atoms: C_24  and  C_25
REMARK   17  A    between atoms: C_26  and  C_27
REMARK                            x       y       z     vdW  Elec       q    Type
REMARK                         _______ _______ _______ _____ _____    ______ ____
ROOT
ATOM      1  C   UNL     1       1.918   5.042  17.695  0.00  0.00    +0.000 C 
ATOM      2  C   UNL     1       2.857   5.969  17.981  0.00  0.00    +0.000 C 
ENDROOT
BRANCH   2   3
ATOM      3  C   UNL     1       4.292   5.623  17.962  0.00  0.00    +0.000 A 
ATOM      4  C   UNL     1       4.928   5.369  16.748  0.00  0.00    +0.000 A 
ATOM      5  C   UNL     1       6.270   4.973  16.718  0.00  0.00    +0.000 A 
ATOM      6  C   UNL     1       6.969   4.848  17.916  0.00  0.00    +0.000 A 
ATOM      7  C   UNL     1       6.355   5.119  19.132  0.00  0.00    +0.000 A 
ATOM      8  C   UNL     1       5.010   5.503  19.158  0.00  0.00    +0.000 A 
BRANCH   6   9
ATOM      9  O   UNL     1       8.272   4.451  17.936  0.00  0.00    +0.000 OA
ATOM     10  H   UNL     1       8.833   5.219  17.740  0.00  0.00    +0.000 HD
ENDBRANCH   6   9
ENDBRANCH   2   3
BRANCH   2  11
ATOM     11  C   UNL     1       2.371   7.309  18.381  0.00  0.00    +0.000 A 
ATOM     12  C   UNL     1       1.916   7.520  19.686  0.00  0.00    +0.000 A 
ATOM     13  C   UNL     1       1.424   8.769  20.067  0.00  0.00    +0.000 A 
ATOM     14  C   UNL     1       1.393   9.832  19.160  0.00  0.00    +0.000 A 
ATOM     15  C   UNL     1       1.851   9.624  17.856  0.00  0.00    +0.000 A 
ATOM     16  C   UNL     1       2.343   8.371  17.471  0.00  0.00    +0.000 A 
BRANCH  14  17
ATOM     17  O   UNL     1       0.901  11.084  19.452  0.00  0.00    +0.000 OA
BRANCH  17  18
ATOM     18  C   UNL     1       1.165  11.488  20.802  0.00  0.00    +0.000 C 
BRANCH  18  19
ATOM     19  C   UNL     1       0.041  12.361  21.384  0.00  0.00    +0.000 C 
BRANCH  19  20
ATOM     20  N   UNL     1      -0.462  11.864  22.692  0.00  0.00    +0.000 NA
BRANCH  20  21
ATOM     21  C   UNL     1      -1.456  12.752  23.317  0.00  0.00    +0.000 C 
ATOM     22  C   UNL     1      -2.891  12.236  23.354  0.00  0.00    +0.000 C 
ENDBRANCH  20  21
BRANCH  20  23
ATOM     23  C   UNL     1      -0.899  10.465  22.571  0.00  0.00    +0.000 C 
ATOM     24  C   UNL     1      -0.078   9.468  23.386  0.00  0.00    +0.000 C 
ENDBRANCH  20  23
ENDBRANCH  19  20
ENDBRANCH  18  19
ENDBRANCH  17  18
ENDBRANCH  14  17
ENDBRANCH   2  11
BRANCH   1  25
ATOM     25  C   UNL     1       2.182   3.601  17.333  0.00  0.00    +0.000 C 
BRANCH  25  26
ATOM     26  C   UNL     1       2.725   2.763  18.492  0.00  0.00    +0.000 C 
BRANCH  26  27
ATOM     27  C   UNL     1       1.578   2.000  19.164  0.00  0.00    +0.000 C 
BRANCH  27  28
ATOM     28  C   UNL     1       1.464   2.322  20.652  0.00  0.00    +0.000 C 
BRANCH  28  30
ATOM     29  C   UNL     1       2.411   4.508  21.463  0.00  0.00    +0.000 C 
ATOM     30  C   UNL     1       1.198   3.812  20.873  0.00  0.00    +0.000 C 
ENDBRANCH  28  30
ENDBRANCH  27  28
ENDBRANCH  26  27
ENDBRANCH  25  26
ENDBRANCH   1  25
TORSDOF 14
ENDMDL
MODEL 5
REMARK VINA RESULT:      -7.0      1.786      2.857
REMARK  Name = 
REMARK  17 active torsions:
REMARK  status: ('A' for Active; 'I' for Inactive)
REMARK    1  A    between atoms: C_1  and  C_2
REMARK    2  A    between atoms: C_2  and  C_3
REMARK    3  A    between atoms: C_3  and  C_4
REMARK    4  A    between atoms: C_4  and  C_5
REMARK    5  A    between atoms: C_5  and  C_6
REMARK    6  A    between atoms: C_6  and  C_7
REMARK    7  A    between atoms: C_8  and  C_9
REMARK    8  A    between atoms: C_8  and  C_16
REMARK    9  A    between atoms: C_12  and  O_13
REMARK   10  A    between atoms: C_19  and  O_20
REMARK   11  A    between atoms: O_20  and  C_21
REMARK   12  A    between atoms: C_21  and  C_22
REMARK   13  A    between atoms: C_22  and  N_23
REMARK   14  A    between atoms: N_23  and  C_24
REMARK   15  A    between atoms: N_23  and  C_26
REMARK   16  A    between atoms: C_24  and  C_25
REMARK   17  A    between atoms: C_26  and  C_27
REMARK                            x       y       z     vdW  Elec       q    Type
REMARK                         _______ _______ _______ _____ _____    ______ ____
ROOT
ATOM      1  C   UNL     1       1.814   4.856  17.935  0.00  0.00    +0.000 C 
ATOM      2  C   UNL     1       2.787   5.783  18.051  0.00  0.00    +0.000 C 
ENDROOT
BRANCH   2   3
ATOM      3  C   UNL     1       4.203   5.423  17.843  0.00  0.00    +0.000 A 
ATOM      4  C   UNL     1       4.678   5.188  16.553  0.00  0.00    +0.000 A 
ATOM      5  C   UNL     1       5.999   4.779  16.345  0.00  0.00    +0.000 A 
ATOM      6  C   UNL     1       6.843   4.622  17.442  0.00  0.00    +0.000 A 
ATOM      7  C   UNL     1       6.392   4.874  18.732  0.00  0.00    +0.000 A 
ATOM      8  C   UNL     1       5.066   5.271  18.936  0.00  0.00    +0.000 A 
BRANCH   6   9
ATOM      9  O   UNL     1       8.133   4.210  17.289  0.00  0.00    +0.000 OA
ATOM     10  H   UNL     1       8.131   3.341  16.855  0.00  0.00    +0.000 HD
ENDBRANCH   6   9
ENDBRANCH   2   3
BRANCH   2  11
ATOM     11  C   UNL     1       2.369   7.142  18.464  0.00  0.00    +0.000 A 
ATOM     12  C   UNL     1       1.954   7.369  19.779  0.00  0.00    +0.000 A 
ATOM     13  C   UNL     1       1.526   8.637  20.174  0.00  0.00    +0.000 A 
ATOM     14  C   UNL     1       1.518   9.702  19.269  0.00  0.00    +0.000 A 
ATOM     15  C   UNL     1       1.935   9.478  17.954  0.00  0.00    +0.000 A 
ATOM     16  C   UNL     1       2.364   8.207  17.557  0.00  0.00    +0.000 A 
BRANCH  14  17
ATOM     17  O   UNL     1       1.087  10.974  19.575  0.00  0.00    +0.000 OA
BRANCH  17  18
ATOM     18  C   UNL     1       0.750  11.132  20.959  0.00  0.00    +0.000 C 
BRANCH  18  19
ATOM     19  C   UNL     1      -0.150  12.354  21.208  0.00  0.00    +0.000 C 
BRANCH  19  20
ATOM     20  N   UNL     1      -1.508  11.987  21.687  0.00  0.00    +0.000 NA
BRANCH  20  21
ATOM     21  C   UNL     1      -1.774  12.399  23.075  0.00  0.00    +0.000 C 
ATOM     22  C   UNL     1      -1.296  13.793  23.468  0.00  0.00    +0.000 C 
ENDBRANCH  20  21
BRANCH  20  23
ATOM     23  C   UNL     1      -2.526  12.433  20.724  0.00  0.00    +0.000 C 
ATOM     24  C   UNL     1      -2.084  12.384  19.262  0.00  0.00    +0.000 C 
ENDBRANCH  20  23
ENDBRANCH  19  20
ENDBRANCH  18  19
ENDBRANCH  17  18
ENDBRANCH  14  17
ENDBRANCH   2  11
BRANCH   1  25
ATOM     25  C   UNL     1       2.017   3.400  17.594  0.00  0.00    +0.000 C 
BRANCH  25  26
ATOM     26  C   UNL     1       1.299   2.438  18.543  0.00  0.00    +0.000 C 
BRANCH  26  27
ATOM     27  C   UNL     1       0.693   3.220  19.715  0.00  0.00    +0.000 C 
BRANCH  27  28
ATOM     28  C   UNL     1       1.245   2.760  21.062  0.00  0.00    +0.000 C 
BRANCH  28  30
ATOM     29  C   UNL     1       3.740   2.515  20.847  0.00  0.00    +0.000 C 
ATOM     30  C   UNL     1       2.607   3.396  21.343  0.00  0.00    +0.000 C 
ENDBRANCH  28  30
ENDBRANCH  27  28
ENDBRANCH  26  27
ENDBRANCH  25  26
ENDBRANCH   1  25
TORSDOF 14
ENDMDL
MODEL 6
REMARK VINA RESULT:      -6.9      1.245      2.087
REMARK  Name = 
REMARK  17 active torsions:
REMARK  status: ('A' for Active; 'I' for Inactive)
REMARK    1  A    between atoms: C_1  and  C_2
REMARK    2  A    between atoms: C_2  and  C_3
REMARK    3  A    between atoms: C_3  and  C_4
REMARK    4  A    between atoms: C_4  and  C_5
REMARK    5  A    between atoms: C_5  and  C_6
REMARK    6  A    between atoms: C_6  and  C_7
REMARK    7  A    between atoms: C_8  and  C_9
REMARK    8  A    between atoms: C_8  and  C_16
REMARK    9  A    between atoms: C_12  and  O_13
REMARK   10  A    between atoms: C_19  and  O_20
REMARK   11  A    between atoms: O_20  and  C_21
REMARK   12  A    between atoms: C_21  and  C_22
REMARK   13  A    between atoms: C_22  and  N_23
REMARK   14  A    between atoms: N_23  and  C_24
REMARK   15  A    between atoms: N_23  and  C_26
REMARK   16  A    between atoms: C_24  and  C_25
REMARK   17  A    between atoms: C_26  and  C_27
REMARK                            x       y       z     vdW  Elec       q    Type
REMARK                         _______ _______ _______ _____ _____    ______ ____
ROOT
ATOM      1  C   UNL     1       3.552   4.852  19.522  0.00  0.00    +0.000 C 
ATOM      2  C   UNL     1       3.775   5.830  18.620  0.00  0.00    +0.000 C 
ENDROOT
BRANCH   2   3
ATOM      3  C   UNL     1       4.844   5.699  17.610  0.00  0.00    +0.000 A 
ATOM      4  C   UNL     1       6.117   6.200  17.877  0.00  0.00    +0.000 A 
ATOM      5  C   UNL     1       7.121   6.145  16.905  0.00  0.00    +0.000 A 
ATOM      6  C   UNL     1       6.840   5.569  15.669  0.00  0.00    +0.000 A 
ATOM      7  C   UNL     1       5.583   5.044  15.395  0.00  0.00    +0.000 A 
ATOM      8  C   UNL     1       4.578   5.113  16.366  0.00  0.00    +0.000 A 
BRANCH   6   9
ATOM      9  O   UNL     1       7.782   5.507  14.686  0.00  0.00    +0.000 OA
ATOM     10  H   UNL     1       8.661   5.533  15.099  0.00  0.00    +0.000 HD
ENDBRANCH   6   9
ENDBRANCH   2   3
BRANCH   2  11
ATOM     11  C   UNL     1       2.952   7.055  18.746  0.00  0.00    +0.000 A 
ATOM     12  C   UNL     1       2.229   7.286  19.919  0.00  0.00    +0.000 A 
ATOM     13  C   UNL     1       1.423   8.418  20.039  0.00  0.00    +0.000 A 
ATOM     14  C   UNL     1       1.337   9.347  18.998  0.00  0.00    +0.000 A 
ATOM     15  C   UNL     1       2.062   9.120  17.825  0.00  0.00    +0.000 A 
ATOM     16  C   UNL     1       2.870   7.984  17.703  0.00  0.00    +0.000 A 
BRANCH  14  17
ATOM     17  O   UNL     1       0.546  10.474  19.030  0.00  0.00    +0.000 OA
BRANCH  17  18
ATOM     18  C   UNL     1      -0.853  10.173  19.101  0.00  0.00    +0.000 C 
BRANCH  18  19
ATOM     19  C   UNL     1      -1.638  10.754  17.913  0.00  0.00    +0.000 C 
BRANCH  19  20
ATOM     20  N   UNL     1      -2.773   9.891  17.489  0.00  0.00    +0.000 NA
BRANCH  20  21
ATOM     21  C   UNL     1      -4.087  10.391  17.924  0.00  0.00    +0.000 C 
ATOM     22  C   UNL     1      -4.107  11.787  18.538  0.00  0.00    +0.000 C 
ENDBRANCH  20  21
BRANCH  20  23
ATOM     23  C   UNL     1      -2.685   9.607  16.049  0.00  0.00    +0.000 C 
ATOM     24  C   UNL     1      -3.127  10.756  15.145  0.00  0.00    +0.000 C 
ENDBRANCH  20  23
ENDBRANCH  19  20
ENDBRANCH  18  19
ENDBRANCH  17  18
ENDBRANCH  14  17
ENDBRANCH   2  11
BRANCH   1  25
ATOM     25  C   UNL     1       4.314   3.553  19.623  0.00  0.00    +0.000 C 
BRANCH  25  26
ATOM     26  C   UNL     1       3.776   2.450  18.710  0.00  0.00    +0.000 C 
BRANCH  26  27
ATOM     27  C   UNL     1       2.594   1.746  19.386  0.00  0.00    +0.000 C 
BRANCH  27  28
ATOM     28  C   UNL     1       1.251   2.335  18.961  0.00  0.00    +0.000 C 
BRANCH  28  30
ATOM     29  C   UNL     1       1.230   2.817  21.431  0.00  0.00    +0.000 C 
ATOM     30  C   UNL     1       0.647   3.187  20.079  0.00  0.00    +0.000 C 
ENDBRANCH  28  30
ENDBRANCH  27  28
ENDBRANCH  26  27
ENDBRANCH  25  26
ENDBRANCH   1  25
TORSDOF 14
ENDMDL
MODEL 7
REMARK VINA RESULT:      -6.9      1.327      2.462
REMARK  Name = 
REMARK  17 active torsions:
REMARK  status: ('A' for Active; 'I' for Inactive)
REMARK    1  A    between atoms: C_1  and  C_2
REMARK    2  A    between atoms: C_2  and  C_3
REMARK    3  A    between atoms: C_3  and  C_4
REMARK    4  A    between atoms: C_4  and  C_5
REMARK    5  A    between atoms: C_5  and  C_6
REMARK    6  A    between atoms: C_6  and  C_7
REMARK    7  A    between atoms: C_8  and  C_9
REMARK    8  A    between atoms: C_8  and  C_16
REMARK    9  A    between atoms: C_12  and  O_13
REMARK   10  A    between atoms: C_19  and  O_20
REMARK   11  A    between atoms: O_20  and  C_21
REMARK   12  A    between atoms: C_21  and  C_22
REMARK   13  A    between atoms: C_22  and  N_23
REMARK   14  A    between atoms: N_23  and  C_24
REMARK   15  A    between atoms: N_23  and  C_26
REMARK   16  A    between atoms: C_24  and  C_25
REMARK   17  A    between atoms: C_26  and  C_27
REMARK                            x       y       z     vdW  Elec       q    Type
REMARK                         _______ _______ _______ _____ _____    ______ ____
ROOT
ATOM      1  C   UNL     1       3.859   4.673  19.682  0.00  0.00    +0.000 C 
ATOM      2  C   UNL     1       3.951   5.636  18.741  0.00  0.00    +0.000 C 
ENDROOT
BRANCH   2   3
ATOM      3  C   UNL     1       4.959   5.549  17.666  0.00  0.00    +0.000 A 
ATOM      4  C   UNL     1       6.181   6.208  17.806  0.00  0.00    +0.000 A 
ATOM      5  C   UNL     1       7.119   6.192  16.768  0.00  0.00    +0.000 A 
ATOM      6  C   UNL     1       6.826   5.498  15.597  0.00  0.00    +0.000 A 
ATOM      7  C   UNL     1       5.623   4.818  15.452  0.00  0.00    +0.000 A 
ATOM      8  C   UNL     1       4.683   4.847  16.487  0.00  0.00    +0.000 A 
BRANCH   6   9
ATOM      9  O   UNL     1       7.702   5.468  14.554  0.00  0.00    +0.000 OA
ATOM     10  H   UNL     1       7.892   4.541  14.336  0.00  0.00    +0.000 HD
ENDBRANCH   6   9
ENDBRANCH   2   3
BRANCH   2  11
ATOM     11  C   UNL     1       3.050   6.801  18.887  0.00  0.00    +0.000 A 
ATOM     12  C   UNL     1       2.388   7.017  20.100  0.00  0.00    +0.000 A 
ATOM     13  C   UNL     1       1.510   8.092  20.242  0.00  0.00    +0.000 A 
ATOM     14  C   UNL     1       1.288   8.978  19.183  0.00  0.00    +0.000 A 
ATOM     15  C   UNL     1       1.951   8.766  17.971  0.00  0.00    +0.000 A 
ATOM     16  C   UNL     1       2.831   7.687  17.827  0.00  0.00    +0.000 A 
BRANCH  14  17
ATOM     17  O   UNL     1       0.420  10.046  19.237  0.00  0.00    +0.000 OA
BRANCH  17  18
ATOM     18  C   UNL     1      -0.230  10.301  17.985  0.00  0.00    +0.000 C 
BRANCH  18  19
ATOM     19  C   UNL     1      -1.356  11.340  18.111  0.00  0.00    +0.000 C 
BRANCH  19  20
ATOM     20  N   UNL     1      -2.512  11.055  17.220  0.00  0.00    +0.000 NA
BRANCH  20  21
ATOM     21  C   UNL     1      -2.272   9.947  16.281  0.00  0.00    +0.000 C 
ATOM     22  C   UNL     1      -2.964  10.052  14.925  0.00  0.00    +0.000 C 
ENDBRANCH  20  21
BRANCH  20  23
ATOM     23  C   UNL     1      -3.742  10.914  18.012  0.00  0.00    +0.000 C 
ATOM     24  C   UNL     1      -4.882  11.839  17.589  0.00  0.00    +0.000 C 
ENDBRANCH  20  23
ENDBRANCH  19  20
ENDBRANCH  18  19
ENDBRANCH  17  18
ENDBRANCH  14  17
ENDBRANCH   2  11
BRANCH   1  25
ATOM     25  C   UNL     1       4.720   3.437  19.768  0.00  0.00    +0.000 C 
BRANCH  25  26
ATOM     26  C   UNL     1       3.925   2.130  19.762  0.00  0.00    +0.000 C 
BRANCH  26  27
ATOM     27  C   UNL     1       3.117   2.020  18.464  0.00  0.00    +0.000 C 
BRANCH  27  28
ATOM     28  C   UNL     1       1.628   1.810  18.726  0.00  0.00    +0.000 C 
BRANCH  28  30
ATOM     29  C   UNL     1       1.185   3.966  17.507  0.00  0.00    +0.000 C 
ATOM     30  C   UNL     1       0.880   3.144  18.746  0.00  0.00    +0.000 C 
ENDBRANCH  28  30
ENDBRANCH  27  28
ENDBRANCH  26  27
ENDBRANCH  25  26
ENDBRANCH   1  25
TORSDOF 14
ENDMDL
MODEL 8
REMARK VINA RESULT:      -6.9      2.135      3.723
REMARK  Name = 
REMARK  17 active torsions:
REMARK  status: ('A' for Active; 'I' for Inactive)
REMARK    1  A    between atoms: C_1  and  C_2
REMARK    2  A    between atoms: C_2  and  C_3
REMARK    3  A    between atoms: C_3  and  C_4
REMARK    4  A    between atoms: C_4  and  C_5
REMARK    5  A    between atoms: C_5  and  C_6
REMARK    6  A    between atoms: C_6  and  C_7
REMARK    7  A    between atoms: C_8  and  C_9
REMARK    8  A    between atoms: C_8  and  C_16
REMARK    9  A    between atoms: C_12  and  O_13
REMARK   10  A    between atoms: C_19  and  O_20
REMARK   11  A    between atoms: O_20  and  C_21
REMARK   12  A    between atoms: C_21  and  C_22
REMARK   13  A    between atoms: C_22  and  N_23
REMARK   14  A    between atoms: N_23  and  C_24
REMARK   15  A    between atoms: N_23  and  C_26
REMARK   16  A    between atoms: C_24  and  C_25
REMARK   17  A    between atoms: C_26  and  C_27
REMARK                            x       y       z     vdW  Elec       q    Type
REMARK                         _______ _______ _______ _____ _____    ______ ____
ROOT
ATOM      1  C   UNL     1       4.306   6.918  17.392  0.00  0.00    +0.000 C 
ATOM      2  C   UNL     1       3.206   6.675  18.135  0.00  0.00    +0.000 C 
ENDROOT
BRANCH   2   3
ATOM      3  C   UNL     1       2.805   5.293  18.462  0.00  0.00    +0.000 A 
ATOM      4  C   UNL     1       3.405   4.631  19.532  0.00  0.00    +0.000 A 
ATOM      5  C   UNL     1       3.086   3.298  19.812  0.00  0.00    +0.000 A 
ATOM      6  C   UNL     1       2.149   2.642  19.019  0.00  0.00    +0.000 A 
ATOM      7  C   UNL     1       1.524   3.295  17.963  0.00  0.00    +0.000 A 
ATOM      8  C   UNL     1       1.856   4.624  17.679  0.00  0.00    +0.000 A 
BRANCH   6   9
ATOM      9  O   UNL     1       1.818   1.340  19.245  0.00  0.00    +0.000 OA
ATOM     10  H   UNL     1       2.633   0.838  19.409  0.00  0.00    +0.000 HD
ENDBRANCH   6   9
ENDBRANCH   2   3
BRANCH   2  11
ATOM     11  C   UNL     1       2.397   7.850  18.533  0.00  0.00    +0.000 A 
ATOM     12  C   UNL     1       2.187   8.888  17.622  0.00  0.00    +0.000 A 
ATOM     13  C   UNL     1       1.455  10.016  17.994  0.00  0.00    +0.000 A 
ATOM     14  C   UNL     1       0.907  10.120  19.276  0.00  0.00    +0.000 A 
ATOM     15  C   UNL     1       1.113   9.082  20.188  0.00  0.00    +0.000 A 
ATOM     16  C   UNL     1       1.849   7.951  19.817  0.00  0.00    +0.000 A 
BRANCH  14  17
ATOM     17  O   UNL     1       0.196  11.210  19.727  0.00  0.00    +0.000 OA
BRANCH  17  18
ATOM     18  C   UNL     1      -0.965  11.487  18.931  0.00  0.00    +0.000 C 
BRANCH  18  19
ATOM     19  C   UNL     1      -2.046  10.403  19.074  0.00  0.00    +0.000 C 
BRANCH  19  20
ATOM     20  N   UNL     1      -2.948  10.324  17.896  0.00  0.00    +0.000 NA
BRANCH  20  21
ATOM     21  C   UNL     1      -3.788  11.519  17.715  0.00  0.00    +0.000 C 
ATOM     22  C   UNL     1      -4.732  11.859  18.865  0.00  0.00    +0.000 C 
ENDBRANCH  20  21
BRANCH  20  23
ATOM     23  C   UNL     1      -2.188   9.938  16.698  0.00  0.00    +0.000 C 
ATOM     24  C   UNL     1      -2.680  10.574  15.399  0.00  0.00    +0.000 C 
ENDBRANCH  20  23
ENDBRANCH  19  20
ENDBRANCH  18  19
ENDBRANCH  17  18
ENDBRANCH  14  17
ENDBRANCH   2  11
BRANCH   1  25
ATOM     25  C   UNL     1       5.235   5.874  16.821  0.00  0.00    +0.000 C 
BRANCH  25  26
ATOM     26  C   UNL     1       5.330   5.902  15.295  0.00  0.00    +0.000 C 
BRANCH  26  27
ATOM     27  C   UNL     1       5.413   4.470  14.753  0.00  0.00    +0.000 C 
BRANCH  27  28
ATOM     28  C   UNL     1       6.685   4.231  13.944  0.00  0.00    +0.000 C 
BRANCH  28  30
ATOM     29  C   UNL     1       4.872   3.516  12.353  0.00  0.00    +0.000 C 
ATOM     30  C   UNL     1       6.368   3.556  12.609  0.00  0.00    +0.000 C 
ENDBRANCH  28  30
ENDBRANCH  27  28
ENDBRANCH  26  27
ENDBRANCH  25  26
ENDBRANCH   1  25
TORSDOF 14
ENDMDL
MODEL 9
REMARK VINA RESULT:      -6.8      2.308      3.577
REMARK  Name = 
REMARK  17 active torsions:
REMARK  status: ('A' for Active; 'I' for Inactive)
REMARK    1  A    between atoms: C_1  and  C_2
REMARK    2  A    between atoms: C_2  and  C_3
REMARK    3  A    between atoms: C_3  and  C_4
REMARK    4  A    between atoms: C_4  and  C_5
REMARK    5  A    between atoms: C_5  and  C_6
REMARK    6  A    between atoms: C_6  and  C_7
REMARK    7  A    between atoms: C_8  and  C_9
REMARK    8  A    between atoms: C_8  and  C_16
REMARK    9  A    between atoms: C_12  and  O_13
REMARK   10  A    between atoms: C_19  and  O_20
REMARK   11  A    between atoms: O_20  and  C_21
REMARK   12  A    between atoms: C_21  and  C_22
REMARK   13  A    between atoms: C_22  and  N_23
REMARK   14  A    between atoms: N_23  and  C_24
REMARK   15  A    between atoms: N_23  and  C_26
REMARK   16  A    between atoms: C_24  and  C_25
REMARK   17  A    between atoms: C_26  and  C_27
REMARK                            x       y       z     vdW  Elec       q    Type
REMARK                         _______ _______ _______ _____ _____    ______ ____
ROOT
ATOM      1  C   UNL     1       1.891   4.680  17.748  0.00  0.00    +0.000 C 
ATOM      2  C   UNL     1       2.840   5.606  17.996  0.00  0.00    +0.000 C 
ENDROOT
BRANCH   2   3
ATOM      3  C   UNL     1       4.271   5.286  17.830  0.00  0.00    +0.000 A 
ATOM      4  C   UNL     1       4.756   4.901  16.580  0.00  0.00    +0.000 A 
ATOM      5  C   UNL     1       6.095   4.528  16.422  0.00  0.00    +0.000 A 
ATOM      6  C   UNL     1       6.944   4.558  17.525  0.00  0.00    +0.000 A 
ATOM      7  C   UNL     1       6.482   4.960  18.772  0.00  0.00    +0.000 A 
ATOM      8  C   UNL     1       5.139   5.320  18.928  0.00  0.00    +0.000 A 
BRANCH   6   9
ATOM      9  O   UNL     1       8.252   4.188  17.421  0.00  0.00    +0.000 OA
ATOM     10  H   UNL     1       8.368   3.335  17.871  0.00  0.00    +0.000 HD
ENDBRANCH   6   9
ENDBRANCH   2   3
BRANCH   2  11
ATOM     11  C   UNL     1       2.376   6.916  18.507  0.00  0.00    +0.000 A 
ATOM     12  C   UNL     1       2.071   7.063  19.862  0.00  0.00    +0.000 A 
ATOM     13  C   UNL     1       1.601   8.282  20.352  0.00  0.00    +0.000 A 
ATOM     14  C   UNL     1       1.444   9.380  19.501  0.00  0.00    +0.000 A 
ATOM     15  C   UNL     1       1.752   9.237  18.145  0.00  0.00    +0.000 A 
ATOM     16  C   UNL     1       2.222   8.014  17.653  0.00  0.00    +0.000 A 
BRANCH  14  17
ATOM     17  O   UNL     1       0.963  10.607  19.902  0.00  0.00    +0.000 OA
BRANCH  17  18
ATOM     18  C   UNL     1       0.977  11.583  18.852  0.00  0.00    +0.000 C 
BRANCH  18  19
ATOM     19  C   UNL     1       1.919  12.759  19.158  0.00  0.00    +0.000 C 
BRANCH  19  20
ATOM     20  N   UNL     1       1.213  14.065  19.232  0.00  0.00    +0.000 NA
BRANCH  20  21
ATOM     21  C   UNL     1       0.317  14.185  20.394  0.00  0.00    +0.000 C 
ATOM     22  C   UNL     1       0.978  14.557  21.718  0.00  0.00    +0.000 C 
ENDBRANCH  20  21
BRANCH  20  23
ATOM     23  C   UNL     1       2.173  15.171  19.098  0.00  0.00    +0.000 C 
ATOM     24  C   UNL     1       3.156  15.024  17.938  0.00  0.00    +0.000 C 
ENDBRANCH  20  23
ENDBRANCH  19  20
ENDBRANCH  18  19
ENDBRANCH  17  18
ENDBRANCH  14  17
ENDBRANCH   2  11
BRANCH   1  25
ATOM     25  C   UNL     1       2.137   3.264  17.289  0.00  0.00    +0.000 C 
BRANCH  25  26
ATOM     26  C   UNL     1       2.123   2.237  18.423  0.00  0.00    +0.000 C 
BRANCH  26  27
ATOM     27  C   UNL     1       3.550   2.007  18.934  0.00  0.00    +0.000 C 
BRANCH  27  28
ATOM     28  C   UNL     1       3.687   2.315  20.423  0.00  0.00    +0.000 C 
BRANCH  28  30
ATOM     29  C   UNL     1       1.643   2.626  21.858  0.00  0.00    +0.000 C 
ATOM     30  C   UNL     1       2.601   3.289  20.884  0.00  0.00    +0.000 C 
ENDBRANCH  28  30
ENDBRANCH  27  28
ENDBRANCH  26  27
ENDBRANCH  25  26
ENDBRANCH   1  25
TORSDOF 14
ENDMDL
