MODEL 1
REMARK VINA RESULT:      -7.8      0.000      0.000
REMARK  Name = 
REMARK  10 active torsions:
REMARK  status: ('A' for Active; 'I' for Inactive)
REMARK    1  A    between atoms: C_1  and  O_2
REMARK    2  A    between atoms: O_2  and  C_3
REMARK    3  A    between atoms: C_7  and  N_8
REMARK    4  A    between atoms: C_9  and  C_11
REMARK    5  A    between atoms: C_11  and  N_12
REMARK    6  A    between atoms: C_15  and  C_16
REMARK    7  A    between atoms: N_18  and  C_19
REMARK    8  A    between atoms: C_25  and  O_26
REMARK    9  A    between atoms: O_26  and  C_27
REMARK   10  A    between atoms: C_28  and  N_29
REMARK                            x       y       z     vdW  Elec       q    Type
REMARK                         _______ _______ _______ _____ _____    ______ ____
ROOT
ATOM      1  N   UNL     1       1.186   9.306  19.360  0.00  0.00    +0.000 N 
ATOM      2  N   UNL     1       1.459   9.791  18.134  0.00  0.00    +0.000 NA
ATOM      3  N   UNL     1       2.264   8.930  17.532  0.00  0.00    +0.000 NA
ATOM      4  C   UNL     1       2.494   7.880  18.393  0.00  0.00    +0.000 A 
ATOM      5  C   UNL     1       1.871   8.143  19.607  0.00  0.00    +0.000 A 
ENDROOT
BRANCH   4   6
ATOM      6  C   UNL     1       3.285   6.713  18.028  0.00  0.00    +0.000 C 
ATOM      7  O   UNL     1       2.975   5.575  18.372  0.00  0.00    +0.000 OA
ATOM      8  N   UNL     1       4.428   7.036  17.314  0.00  0.00    +0.000 N 
ATOM      9  H   UNL     1       4.735   8.000  17.356  0.00  0.00    +0.000 HD
BRANCH   8  10
ATOM     10  C   UNL     1       5.323   6.072  16.812  0.00  0.00    +0.000 A 
ATOM     11  C   UNL     1       5.035   5.458  15.582  0.00  0.00    +0.000 A 
ATOM     12  C   UNL     1       5.941   4.568  15.010  0.00  0.00    +0.000 A 
ATOM     13 CL   UNL     1       5.609   3.886  13.464  0.00  0.00    +0.000 Cl
ATOM     14  C   UNL     1       7.127   4.253  15.664  0.00  0.00    +0.000 A 
ATOM     15  C   UNL     1       7.421   4.864  16.884  0.00  0.00    +0.000 A 
ATOM     16  C   UNL     1       6.533   5.782  17.462  0.00  0.00    +0.000 A 
BRANCH  16  17
ATOM     17  O   UNL     1       6.979   6.336  18.632  0.00  0.00    +0.000 OA
ATOM     18  C   UNL     1       7.852   5.537  19.424  0.00  0.00    +0.000 C 
ENDBRANCH  16  17
ENDBRANCH   8  10
ENDBRANCH   4   6
BRANCH   5  19
ATOM     19  N   UNL     1       1.830   7.491  20.794  0.00  0.00    +0.000 N 
ATOM     20  H   UNL     1       2.514   6.749  20.980  0.00  0.00    +0.000 HD
ATOM     21  H   UNL     1       1.441   7.885  21.647  0.00  0.00    +0.000 HD
ENDBRANCH   5  19
BRANCH   1  22
ATOM     22  C   UNL     1       0.225   9.984  20.194  0.00  0.00    +0.000 C 
BRANCH  22  24
ATOM     23  N   UNL     1      -1.431   9.942  18.423  0.00  0.00    +0.000 N 
ATOM     24  C   UNL     1      -0.784  10.734  19.357  0.00  0.00    +0.000 C 
ATOM     25  O   UNL     1      -0.997  11.922  19.583  0.00  0.00    +0.000 OA
ATOM     26  H   UNL     1      -1.162   8.963  18.382  0.00  0.00    +0.000 HD
BRANCH  23  31
ATOM     27  C   UNL     1      -4.719  11.172  17.251  0.00  0.00    +0.000 A 
ATOM     28  C   UNL     1      -4.533  11.199  15.872  0.00  0.00    +0.000 A 
ATOM     29  C   UNL     1      -3.322  10.795  15.314  0.00  0.00    +0.000 A 
ATOM     30  C   UNL     1      -2.279  10.374  16.143  0.00  0.00    +0.000 A 
ATOM     31  C   UNL     1      -2.443  10.343  17.526  0.00  0.00    +0.000 A 
ATOM     32  C   UNL     1      -3.676  10.733  18.077  0.00  0.00    +0.000 A 
BRANCH  27  34
ATOM     33  C   UNL     1      -6.232  12.989  17.534  0.00  0.00    +0.000 C 
ATOM     34  O   UNL     1      -5.950  11.601  17.665  0.00  0.00    +0.000 OA
ENDBRANCH  27  34
ENDBRANCH  23  31
ENDBRANCH  22  24
ENDBRANCH   1  22
TORSDOF 8
ENDMDL
MODEL 2
REMARK VINA RESULT:      -7.7      1.097      1.658
REMARK  Name = 
REMARK  10 active torsions:
REMARK  status: ('A' for Active; 'I' for Inactive)
REMARK    1  A    between atoms: C_1  and  O_2
REMARK    2  A    between atoms: O_2  and  C_3
REMARK    3  A    between atoms: C_7  and  N_8
REMARK    4  A    between atoms: C_9  and  C_11
REMARK    5  A    between atoms: C_11  and  N_12
REMARK    6  A    between atoms: C_15  and  C_16
REMARK    7  A    between atoms: N_18  and  C_19
REMARK    8  A    between atoms: C_25  and  O_26
REMARK    9  A    between atoms: O_26  and  C_27
REMARK   10  A    between atoms: C_28  and  N_29
REMARK                            x       y       z     vdW  Elec       q    Type
REMARK                         _______ _______ _______ _____ _____    ______ ____
ROOT
ATOM      1  N   UNL     1       1.261   9.418  19.575  0.00  0.00    +0.000 N 
ATOM      2  N   UNL     1       1.522   9.932  18.358  0.00  0.00    +0.000 NA
ATOM      3  N   UNL     1       2.247   9.045  17.695  0.00  0.00    +0.000 NA
ATOM      4  C   UNL     1       2.438   7.950  18.508  0.00  0.00    +0.000 A 
ATOM      5  C   UNL     1       1.876   8.205  19.754  0.00  0.00    +0.000 A 
ENDROOT
BRANCH   4   6
ATOM      6  C   UNL     1       3.136   6.749  18.072  0.00  0.00    +0.000 C 
ATOM      7  O   UNL     1       2.647   5.628  18.178  0.00  0.00    +0.000 OA
ATOM      8  N   UNL     1       4.409   7.009  17.589  0.00  0.00    +0.000 N 
ATOM      9  H   UNL     1       4.814   7.906  17.830  0.00  0.00    +0.000 HD
BRANCH   8  10
ATOM     10  C   UNL     1       5.256   6.014  17.066  0.00  0.00    +0.000 A 
ATOM     11  C   UNL     1       5.143   5.675  15.708  0.00  0.00    +0.000 A 
ATOM     12  C   UNL     1       6.023   4.761  15.134  0.00  0.00    +0.000 A 
ATOM     13 CL   UNL     1       5.923   4.417  13.451  0.00  0.00    +0.000 Cl
ATOM     14  C   UNL     1       7.005   4.150  15.907  0.00  0.00    +0.000 A 
ATOM     15  C   UNL     1       7.125   4.485  17.256  0.00  0.00    +0.000 A 
ATOM     16  C   UNL     1       6.264   5.423  17.843  0.00  0.00    +0.000 A 
BRANCH  16  17
ATOM     17  O   UNL     1       6.535   5.689  19.160  0.00  0.00    +0.000 OA
ATOM     18  C   UNL     1       7.909   5.768  19.524  0.00  0.00    +0.000 C 
ENDBRANCH  16  17
ENDBRANCH   8  10
ENDBRANCH   4   6
BRANCH   5  19
ATOM     19  N   UNL     1       1.834   7.512  20.917  0.00  0.00    +0.000 N 
ATOM     20  H   UNL     1       0.932   7.158  21.256  0.00  0.00    +0.000 HD
ATOM     21  H   UNL     1       2.623   6.999  21.302  0.00  0.00    +0.000 HD
ENDBRANCH   5  19
BRANCH   1  22
ATOM     22  C   UNL     1       0.377  10.124  20.468  0.00  0.00    +0.000 C 
BRANCH  22  24
ATOM     23  N   UNL     1      -1.126  10.059  18.566  0.00  0.00    +0.000 N 
ATOM     24  C   UNL     1      -0.770  10.752  19.711  0.00  0.00    +0.000 C 
ATOM     25  O   UNL     1      -1.322  11.751  20.164  0.00  0.00    +0.000 OA
ATOM     26  H   UNL     1      -0.588   9.226  18.344  0.00  0.00    +0.000 HD
BRANCH  23  31
ATOM     27  C   UNL     1      -3.019  10.256  15.391  0.00  0.00    +0.000 A 
ATOM     28  C   UNL     1      -4.185  10.896  15.800  0.00  0.00    +0.000 A 
ATOM     29  C   UNL     1      -4.351  11.283  17.128  0.00  0.00    +0.000 A 
ATOM     30  C   UNL     1      -3.347  11.016  18.062  0.00  0.00    +0.000 A 
ATOM     31  C   UNL     1      -2.174  10.373  17.676  0.00  0.00    +0.000 A 
ATOM     32  C   UNL     1      -2.008  10.004  16.328  0.00  0.00    +0.000 A 
BRANCH  27  34
ATOM     33  C   UNL     1      -4.218   9.989  13.351  0.00  0.00    +0.000 C 
ATOM     34  O   UNL     1      -2.989   9.924  14.065  0.00  0.00    +0.000 OA
ENDBRANCH  27  34
ENDBRANCH  23  31
ENDBRANCH  22  24
ENDBRANCH   1  22
TORSDOF 8
ENDMDL
MODEL 3
REMARK VINA RESULT:      -7.4      3.046      4.172
REMARK  Name = 
REMARK  10 active torsions:
REMARK  status: ('A' for Active; 'I' for Inactive)
REMARK    1  A    between atoms: C_1  and  O_2
REMARK    2  A    between atoms: O_2  and  C_3
REMARK    3  A    between atoms: C_7  and  N_8
REMARK    4  A    between atoms: C_9  and  C_11
REMARK    5  A    between atoms: C_11  and  N_12
REMARK    6  A    between atoms: C_15  and  C_16
REMARK    7  A    between atoms: N_18  and  C_19
REMARK    8  A    between atoms: C_25  and  O_26
REMARK    9  A    between atoms: O_26  and  C_27
REMARK   10  A    between atoms: C_28  and  N_29
REMARK                            x       y       z     vdW  Elec       q    Type
REMARK                         _______ _______ _______ _____ _____    ______ ____
ROOT
ATOM      1  N   UNL     1       1.148   9.221  19.291  0.00  0.00    +0.000 N 
ATOM      2  N   UNL     1       1.366   9.646  18.032  0.00  0.00    +0.000 NA
ATOM      3  N   UNL     1       2.213   8.803  17.465  0.00  0.00    +0.000 NA
ATOM      4  C   UNL     1       2.528   7.826  18.382  0.00  0.00    +0.000 A 
ATOM      5  C   UNL     1       1.912   8.123  19.592  0.00  0.00    +0.000 A 
ENDROOT
BRANCH   4   6
ATOM      6  C   UNL     1       3.386   6.691  18.071  0.00  0.00    +0.000 C 
ATOM      7  O   UNL     1       3.254   5.597  18.615  0.00  0.00    +0.000 OA
ATOM      8  N   UNL     1       4.379   6.999  17.154  0.00  0.00    +0.000 N 
ATOM      9  H   UNL     1       4.579   7.982  17.012  0.00  0.00    +0.000 HD
BRANCH   8  10
ATOM     10  C   UNL     1       5.298   6.053  16.663  0.00  0.00    +0.000 A 
ATOM     11  C   UNL     1       5.016   5.401  15.452  0.00  0.00    +0.000 A 
ATOM     12  C   UNL     1       5.943   4.527  14.889  0.00  0.00    +0.000 A 
ATOM     13 CL   UNL     1       5.616   3.799  13.364  0.00  0.00    +0.000 Cl
ATOM     14  C   UNL     1       7.145   4.265  15.536  0.00  0.00    +0.000 A 
ATOM     15  C   UNL     1       7.434   4.913  16.739  0.00  0.00    +0.000 A 
ATOM     16  C   UNL     1       6.524   5.815  17.305  0.00  0.00    +0.000 A 
BRANCH  16  17
ATOM     17  O   UNL     1       6.964   6.411  18.458  0.00  0.00    +0.000 OA
ATOM     18  C   UNL     1       7.392   5.541  19.501  0.00  0.00    +0.000 C 
ENDBRANCH  16  17
ENDBRANCH   8  10
ENDBRANCH   4   6
BRANCH   5  19
ATOM     19  N   UNL     1       1.937   7.544  20.817  0.00  0.00    +0.000 N 
ATOM     20  H   UNL     1       2.779   7.039  21.114  0.00  0.00    +0.000 HD
ATOM     21  H   UNL     1       1.369   7.851  21.603  0.00  0.00    +0.000 HD
ENDBRANCH   5  19
BRANCH   1  22
ATOM     22  C   UNL     1       0.161   9.887  20.104  0.00  0.00    +0.000 C 
BRANCH  22  24
ATOM     23  N   UNL     1       0.381  12.125  19.196  0.00  0.00    +0.000 N 
ATOM     24  C   UNL     1       0.529  11.336  20.325  0.00  0.00    +0.000 C 
ATOM     25  O   UNL     1       0.862  11.714  21.444  0.00  0.00    +0.000 OA
ATOM     26  H   UNL     1       0.062  11.664  18.349  0.00  0.00    +0.000 HD
BRANCH  23  31
ATOM     27  C   UNL     1       2.248  15.306  18.887  0.00  0.00    +0.000 A 
ATOM     28  C   UNL     1       1.213  16.236  18.854  0.00  0.00    +0.000 A 
ATOM     29  C   UNL     1      -0.114  15.821  18.950  0.00  0.00    +0.000 A 
ATOM     30  C   UNL     1      -0.411  14.461  19.065  0.00  0.00    +0.000 A 
ATOM     31  C   UNL     1       0.609  13.513  19.096  0.00  0.00    +0.000 A 
ATOM     32  C   UNL     1       1.945  13.944  19.018  0.00  0.00    +0.000 A 
BRANCH  27  34
ATOM     33  C   UNL     1       4.285  15.442  17.660  0.00  0.00    +0.000 C 
ATOM     34  O   UNL     1       3.499  15.846  18.775  0.00  0.00    +0.000 OA
ENDBRANCH  27  34
ENDBRANCH  23  31
ENDBRANCH  22  24
ENDBRANCH   1  22
TORSDOF 8
ENDMDL
MODEL 4
REMARK VINA RESULT:      -7.4      2.994      3.696
REMARK  Name = 
REMARK  10 active torsions:
REMARK  status: ('A' for Active; 'I' for Inactive)
REMARK    1  A    between atoms: C_1  and  O_2
REMARK    2  A    between atoms: O_2  and  C_3
REMARK    3  A    between atoms: C_7  and  N_8
REMARK    4  A    between atoms: C_9  and  C_11
REMARK    5  A    between atoms: C_11  and  N_12
REMARK    6  A    between atoms: C_15  and  C_16
REMARK    7  A    between atoms: N_18  and  C_19
REMARK    8  A    between atoms: C_25  and  O_26
REMARK    9  A    between atoms: O_26  and  C_27
REMARK   10  A    between atoms: C_28  and  N_29
REMARK                            x       y       z     vdW  Elec       q    Type
REMARK                         _______ _______ _______ _____ _____    ______ ____
ROOT
ATOM      1  N   UNL     1       1.164   9.368  19.216  0.00  0.00    +0.000 N 
ATOM      2  N   UNL     1       1.399   9.763  17.950  0.00  0.00    +0.000 NA
ATOM      3  N   UNL     1       2.233   8.892  17.406  0.00  0.00    +0.000 NA
ATOM      4  C   UNL     1       2.522   7.927  18.345  0.00  0.00    +0.000 A 
ATOM      5  C   UNL     1       1.904   8.260  19.544  0.00  0.00    +0.000 A 
ENDROOT
BRANCH   4   6
ATOM      6  C   UNL     1       3.360   6.770  18.063  0.00  0.00    +0.000 C 
ATOM      7  O   UNL     1       3.177   5.679  18.596  0.00  0.00    +0.000 OA
ATOM      8  N   UNL     1       4.396   7.053  17.186  0.00  0.00    +0.000 N 
ATOM      9  H   UNL     1       4.629   8.030  17.056  0.00  0.00    +0.000 HD
BRANCH   8  10
ATOM     10  C   UNL     1       5.307   6.083  16.728  0.00  0.00    +0.000 A 
ATOM     11  C   UNL     1       5.049   5.436  15.508  0.00  0.00    +0.000 A 
ATOM     12  C   UNL     1       5.972   4.538  14.978  0.00  0.00    +0.000 A 
ATOM     13 CL   UNL     1       5.678   3.815  13.444  0.00  0.00    +0.000 Cl
ATOM     14  C   UNL     1       7.146   4.247  15.666  0.00  0.00    +0.000 A 
ATOM     15  C   UNL     1       7.410   4.890  16.876  0.00  0.00    +0.000 A 
ATOM     16  C   UNL     1       6.504   5.817  17.411  0.00  0.00    +0.000 A 
BRANCH  16  17
ATOM     17  O   UNL     1       6.921   6.404  18.576  0.00  0.00    +0.000 OA
ATOM     18  C   UNL     1       7.564   5.555  19.523  0.00  0.00    +0.000 C 
ENDBRANCH  16  17
ENDBRANCH   8  10
ENDBRANCH   4   6
BRANCH   5  19
ATOM     19  N   UNL     1       1.908   7.706  20.780  0.00  0.00    +0.000 N 
ATOM     20  H   UNL     1       2.475   6.867  20.950  0.00  0.00    +0.000 HD
ATOM     21  H   UNL     1       1.707   8.220  21.635  0.00  0.00    +0.000 HD
ENDBRANCH   5  19
BRANCH   1  22
ATOM     22  C   UNL     1       0.184  10.069  20.008  0.00  0.00    +0.000 C 
BRANCH  22  24
ATOM     23  N   UNL     1       0.552  12.282  19.087  0.00  0.00    +0.000 N 
ATOM     24  C   UNL     1       0.596  11.505  20.233  0.00  0.00    +0.000 C 
ATOM     25  O   UNL     1       0.875  11.886  21.366  0.00  0.00    +0.000 OA
ATOM     26  H   UNL     1       0.267  11.822  18.227  0.00  0.00    +0.000 HD
BRANCH  23  31
ATOM     27  C   UNL     1      -0.036  15.919  18.731  0.00  0.00    +0.000 A 
ATOM     28  C   UNL     1       1.261  16.420  18.801  0.00  0.00    +0.000 A 
ATOM     29  C   UNL     1       2.345  15.558  18.952  0.00  0.00    +0.000 A 
ATOM     30  C   UNL     1       2.131  14.181  19.048  0.00  0.00    +0.000 A 
ATOM     31  C   UNL     1       0.842  13.658  18.984  0.00  0.00    +0.000 A 
ATOM     32  C   UNL     1      -0.244  14.535  18.812  0.00  0.00    +0.000 A 
BRANCH  27  34
ATOM     33  C   UNL     1      -0.586  18.173  18.195  0.00  0.00    +0.000 C 
ATOM     34  O   UNL     1      -1.006  16.873  18.591  0.00  0.00    +0.000 OA
ENDBRANCH  27  34
ENDBRANCH  23  31
ENDBRANCH  22  24
ENDBRANCH   1  22
TORSDOF 8
ENDMDL
MODEL 5
REMARK VINA RESULT:      -7.3      2.348      3.145
REMARK  Name = 
REMARK  10 active torsions:
REMARK  status: ('A' for Active; 'I' for Inactive)
REMARK    1  A    between atoms: C_1  and  O_2
REMARK    2  A    between atoms: O_2  and  C_3
REMARK    3  A    between atoms: C_7  and  N_8
REMARK    4  A    between atoms: C_9  and  C_11
REMARK    5  A    between atoms: C_11  and  N_12
REMARK    6  A    between atoms: C_15  and  C_16
REMARK    7  A    between atoms: N_18  and  C_19
REMARK    8  A    between atoms: C_25  and  O_26
REMARK    9  A    between atoms: O_26  and  C_27
REMARK   10  A    between atoms: C_28  and  N_29
REMARK                            x       y       z     vdW  Elec       q    Type
REMARK                         _______ _______ _______ _____ _____    ______ ____
ROOT
ATOM      1  N   UNL     1       0.946  10.872  19.972  0.00  0.00    +0.000 N 
ATOM      2  N   UNL     1       1.340  10.859  18.685  0.00  0.00    +0.000 NA
ATOM      3  N   UNL     1       1.774   9.640  18.410  0.00  0.00    +0.000 NA
ATOM      4  C   UNL     1       1.643   8.870  19.544  0.00  0.00    +0.000 A 
ATOM      5  C   UNL     1       1.184   9.668  20.585  0.00  0.00    +0.000 A 
ENDROOT
BRANCH   4   6
ATOM      6  C   UNL     1       1.963   7.450  19.581  0.00  0.00    +0.000 C 
ATOM      7  O   UNL     1       1.984   6.806  20.627  0.00  0.00    +0.000 OA
ATOM      8  N   UNL     1       2.288   6.935  18.335  0.00  0.00    +0.000 N 
ATOM      9  H   UNL     1       2.534   7.605  17.616  0.00  0.00    +0.000 HD
BRANCH   8  10
ATOM     10  C   UNL     1       2.586   5.578  18.113  0.00  0.00    +0.000 A 
ATOM     11  C   UNL     1       1.659   4.607  18.523  0.00  0.00    +0.000 A 
ATOM     12  C   UNL     1       1.877   3.261  18.239  0.00  0.00    +0.000 A 
ATOM     13 CL   UNL     1       0.692   2.091  18.677  0.00  0.00    +0.000 Cl
ATOM     14  C   UNL     1       3.030   2.859  17.574  0.00  0.00    +0.000 A 
ATOM     15  C   UNL     1       3.954   3.821  17.160  0.00  0.00    +0.000 A 
ATOM     16  C   UNL     1       3.737   5.182  17.414  0.00  0.00    +0.000 A 
BRANCH  16  17
ATOM     17  O   UNL     1       4.702   6.010  16.905  0.00  0.00    +0.000 OA
ATOM     18  C   UNL     1       5.995   5.922  17.497  0.00  0.00    +0.000 C 
ENDBRANCH  16  17
ENDBRANCH   8  10
ENDBRANCH   4   6
BRANCH   5  19
ATOM     19  N   UNL     1       0.948   9.440  21.900  0.00  0.00    +0.000 N 
ATOM     20  H   UNL     1       1.666   9.693  22.588  0.00  0.00    +0.000 HD
ATOM     21  H   UNL     1       0.019   9.383  22.309  0.00  0.00    +0.000 HD
ENDBRANCH   5  19
BRANCH   1  22
ATOM     22  C   UNL     1       0.307  12.048  20.508  0.00  0.00    +0.000 C 
BRANCH  22  24
ATOM     23  N   UNL     1      -1.717  11.421  19.329  0.00  0.00    +0.000 N 
ATOM     24  C   UNL     1      -0.866  12.464  19.652  0.00  0.00    +0.000 C 
ATOM     25  O   UNL     1      -1.014  13.648  19.359  0.00  0.00    +0.000 OA
ATOM     26  H   UNL     1      -1.471  10.499  19.678  0.00  0.00    +0.000 HD
BRANCH  23  31
ATOM     27  C   UNL     1      -4.034  11.009  16.472  0.00  0.00    +0.000 A 
ATOM     28  C   UNL     1      -5.209  11.550  16.984  0.00  0.00    +0.000 A 
ATOM     29  C   UNL     1      -5.243  12.072  18.276  0.00  0.00    +0.000 A 
ATOM     30  C   UNL     1      -4.095  12.039  19.070  0.00  0.00    +0.000 A 
ATOM     31  C   UNL     1      -2.909  11.498  18.579  0.00  0.00    +0.000 A 
ATOM     32  C   UNL     1      -2.880  10.993  17.267  0.00  0.00    +0.000 A 
BRANCH  27  34
ATOM     33  C   UNL     1      -2.932  10.184  14.528  0.00  0.00    +0.000 C 
ATOM     34  O   UNL     1      -4.141  10.526  15.197  0.00  0.00    +0.000 OA
ENDBRANCH  27  34
ENDBRANCH  23  31
ENDBRANCH  22  24
ENDBRANCH   1  22
TORSDOF 8
ENDMDL
MODEL 6
REMARK VINA RESULT:      -7.2      3.927      5.210
REMARK  Name = 
REMARK  10 active torsions:
REMARK  status: ('A' for Active; 'I' for Inactive)
REMARK    1  A    between atoms: C_1  and  O_2
REMARK    2  A    between atoms: O_2  and  C_3
REMARK    3  A    between atoms: C_7  and  N_8
REMARK    4  A    between atoms: C_9  and  C_11
REMARK    5  A    between atoms: C_11  and  N_12
REMARK    6  A    between atoms: C_15  and  C_16
REMARK    7  A    between atoms: N_18  and  C_19
REMARK    8  A    between atoms: C_25  and  O_26
REMARK    9  A    between atoms: O_26  and  C_27
REMARK   10  A    between atoms: C_28  and  N_29
REMARK                            x       y       z     vdW  Elec       q    Type
REMARK                         _______ _______ _______ _____ _____    ______ ____
ROOT
ATOM      1  N   UNL     1       0.817  10.749  20.125  0.00  0.00    +0.000 N 
ATOM      2  N   UNL     1       0.792  10.082  21.295  0.00  0.00    +0.000 NA
ATOM      3  N   UNL     1       1.219   8.852  21.064  0.00  0.00    +0.000 NA
ATOM      4  C   UNL     1       1.525   8.745  19.725  0.00  0.00    +0.000 A 
ATOM      5  C   UNL     1       1.198   9.936  19.088  0.00  0.00    +0.000 A 
ENDROOT
BRANCH   4   6
ATOM      6  C   UNL     1       2.092   7.542  19.134  0.00  0.00    +0.000 C 
ATOM      7  O   UNL     1       2.050   7.319  17.926  0.00  0.00    +0.000 OA
ATOM      8  N   UNL     1       2.620   6.672  20.075  0.00  0.00    +0.000 N 
ATOM      9  H   UNL     1       2.329   6.810  21.036  0.00  0.00    +0.000 HD
BRANCH   8  10
ATOM     10  C   UNL     1       3.264   5.467  19.739  0.00  0.00    +0.000 A 
ATOM     11  C   UNL     1       4.499   5.523  19.073  0.00  0.00    +0.000 A 
ATOM     12  C   UNL     1       5.209   4.356  18.805  0.00  0.00    +0.000 A 
ATOM     13 CL   UNL     1       6.757   4.448  18.059  0.00  0.00    +0.000 Cl
ATOM     14  C   UNL     1       4.689   3.118  19.166  0.00  0.00    +0.000 A 
ATOM     15  C   UNL     1       3.464   3.055  19.833  0.00  0.00    +0.000 A 
ATOM     16  C   UNL     1       2.749   4.222  20.134  0.00  0.00    +0.000 A 
BRANCH  16  17
ATOM     17  O   UNL     1       1.591   4.008  20.835  0.00  0.00    +0.000 OA
ATOM     18  C   UNL     1       1.521   2.807  21.597  0.00  0.00    +0.000 C 
ENDBRANCH  16  17
ENDBRANCH   8  10
ENDBRANCH   4   6
BRANCH   5  19
ATOM     19  N   UNL     1       1.233  10.342  17.796  0.00  0.00    +0.000 N 
ATOM     20  H   UNL     1       1.379   9.645  17.057  0.00  0.00    +0.000 HD
ATOM     21  H   UNL     1       0.781  11.186  17.452  0.00  0.00    +0.000 HD
ENDBRANCH   5  19
BRANCH   1  22
ATOM     22  C   UNL     1       0.520  12.160  20.106  0.00  0.00    +0.000 C 
BRANCH  22  24
ATOM     23  N   UNL     1      -0.559  12.917  22.142  0.00  0.00    +0.000 N 
ATOM     24  C   UNL     1      -0.761  12.454  20.852  0.00  0.00    +0.000 C 
ATOM     25  O   UNL     1      -1.840  12.325  20.281  0.00  0.00    +0.000 OA
ATOM     26  H   UNL     1       0.403  13.000  22.458  0.00  0.00    +0.000 HD
BRANCH  23  31
ATOM     27  C   UNL     1      -3.673  12.772  24.137  0.00  0.00    +0.000 A 
ATOM     28  C   UNL     1      -3.574  13.935  24.895  0.00  0.00    +0.000 A 
ATOM     29  C   UNL     1      -2.483  14.789  24.742  0.00  0.00    +0.000 A 
ATOM     30  C   UNL     1      -1.472  14.469  23.833  0.00  0.00    +0.000 A 
ATOM     31  C   UNL     1      -1.549  13.308  23.067  0.00  0.00    +0.000 A 
ATOM     32  C   UNL     1      -2.664  12.464  23.215  0.00  0.00    +0.000 A 
BRANCH  27  34
ATOM     33  C   UNL     1      -6.048  12.604  24.077  0.00  0.00    +0.000 C 
ATOM     34  O   UNL     1      -4.789  12.023  24.392  0.00  0.00    +0.000 OA
ENDBRANCH  27  34
ENDBRANCH  23  31
ENDBRANCH  22  24
ENDBRANCH   1  22
TORSDOF 8
ENDMDL
MODEL 7
REMARK VINA RESULT:      -7.2      3.458      9.748
REMARK  Name = 
REMARK  10 active torsions:
REMARK  status: ('A' for Active; 'I' for Inactive)
REMARK    1  A    between atoms: C_1  and  O_2
REMARK    2  A    between atoms: O_2  and  C_3
REMARK    3  A    between atoms: C_7  and  N_8
REMARK    4  A    between atoms: C_9  and  C_11
REMARK    5  A    between atoms: C_11  and  N_12
REMARK    6  A    between atoms: C_15  and  C_16
REMARK    7  A    between atoms: N_18  and  C_19
REMARK    8  A    between atoms: C_25  and  O_26
REMARK    9  A    between atoms: O_26  and  C_27
REMARK   10  A    between atoms: C_28  and  N_29
REMARK                            x       y       z     vdW  Elec       q    Type
REMARK                         _______ _______ _______ _____ _____    ______ ____
ROOT
ATOM      1  N   UNL     1       4.233   5.874  18.422  0.00  0.00    +0.000 N 
ATOM      2  N   UNL     1       4.265   6.734  17.387  0.00  0.00    +0.000 NA
ATOM      3  N   UNL     1       3.362   7.673  17.619  0.00  0.00    +0.000 NA
ATOM      4  C   UNL     1       2.757   7.402  18.825  0.00  0.00    +0.000 A 
ATOM      5  C   UNL     1       3.251   6.201  19.322  0.00  0.00    +0.000 A 
ENDROOT
BRANCH   4   6
ATOM      6  C   UNL     1       1.757   8.273  19.426  0.00  0.00    +0.000 C 
ATOM      7  O   UNL     1       1.241   8.030  20.514  0.00  0.00    +0.000 OA
ATOM      8  N   UNL     1       1.423   9.350  18.620  0.00  0.00    +0.000 N 
ATOM      9  H   UNL     1       1.674   9.282  17.641  0.00  0.00    +0.000 HD
BRANCH   8  10
ATOM     10  C   UNL     1       0.515  10.353  19.008  0.00  0.00    +0.000 A 
ATOM     11  C   UNL     1       0.908  11.278  19.988  0.00  0.00    +0.000 A 
ATOM     12  C   UNL     1       0.073  12.338  20.332  0.00  0.00    +0.000 A 
ATOM     13 CL   UNL     1       0.603  13.509  21.478  0.00  0.00    +0.000 Cl
ATOM     14  C   UNL     1      -1.174  12.476  19.731  0.00  0.00    +0.000 A 
ATOM     15  C   UNL     1      -1.568  11.562  18.752  0.00  0.00    +0.000 A 
ATOM     16  C   UNL     1      -0.729  10.505  18.375  0.00  0.00    +0.000 A 
BRANCH  16  17
ATOM     17  O   UNL     1      -1.228   9.721  17.368  0.00  0.00    +0.000 OA
ATOM     18  C   UNL     1      -2.497  10.094  16.839  0.00  0.00    +0.000 C 
ENDBRANCH  16  17
ENDBRANCH   8  10
ENDBRANCH   4   6
BRANCH   5  19
ATOM     19  N   UNL     1       2.960   5.454  20.414  0.00  0.00    +0.000 N 
ATOM     20  H   UNL     1       2.038   5.008  20.484  0.00  0.00    +0.000 HD
ATOM     21  H   UNL     1       3.660   4.995  20.992  0.00  0.00    +0.000 HD
ENDBRANCH   5  19
BRANCH   1  22
ATOM     22  C   UNL     1       5.208   4.814  18.494  0.00  0.00    +0.000 C 
BRANCH  22  24
ATOM     23  N   UNL     1       5.477   4.422  16.116  0.00  0.00    +0.000 N 
ATOM     24  C   UNL     1       6.109   4.823  17.281  0.00  0.00    +0.000 C 
ATOM     25  O   UNL     1       7.266   5.219  17.388  0.00  0.00    +0.000 OA
ATOM     26  H   UNL     1       4.500   4.154  16.189  0.00  0.00    +0.000 HD
BRANCH  23  31
ATOM     27  C   UNL     1       5.868   3.469  12.561  0.00  0.00    +0.000 A 
ATOM     28  C   UNL     1       7.016   4.171  12.208  0.00  0.00    +0.000 A 
ATOM     29  C   UNL     1       7.683   4.955  13.147  0.00  0.00    +0.000 A 
ATOM     30  C   UNL     1       7.189   5.051  14.450  0.00  0.00    +0.000 A 
ATOM     31  C   UNL     1       6.039   4.360  14.824  0.00  0.00    +0.000 A 
ATOM     32  C   UNL     1       5.385   3.556  13.874  0.00  0.00    +0.000 A 
BRANCH  27  34
ATOM     33  C   UNL     1       3.986   3.091  11.151  0.00  0.00    +0.000 C 
ATOM     34  O   UNL     1       5.309   2.746  11.543  0.00  0.00    +0.000 OA
ENDBRANCH  27  34
ENDBRANCH  23  31
ENDBRANCH  22  24
ENDBRANCH   1  22
TORSDOF 8
ENDMDL
MODEL 8
REMARK VINA RESULT:      -7.1      5.795      8.582
REMARK  Name = 
REMARK  10 active torsions:
REMARK  status: ('A' for Active; 'I' for Inactive)
REMARK    1  A    between atoms: C_1  and  O_2
REMARK    2  A    between atoms: O_2  and  C_3
REMARK    3  A    between atoms: C_7  and  N_8
REMARK    4  A    between atoms: C_9  and  C_11
REMARK    5  A    between atoms: C_11  and  N_12
REMARK    6  A    between atoms: C_15  and  C_16
REMARK    7  A    between atoms: N_18  and  C_19
REMARK    8  A    between atoms: C_25  and  O_26
REMARK    9  A    between atoms: O_26  and  C_27
REMARK   10  A    between atoms: C_28  and  N_29
REMARK                            x       y       z     vdW  Elec       q    Type
REMARK                         _______ _______ _______ _____ _____    ______ ____
ROOT
ATOM      1  N   UNL     1       7.408   5.592  17.854  0.00  0.00    +0.000 N 
ATOM      2  N   UNL     1       8.130   5.460  18.983  0.00  0.00    +0.000 NA
ATOM      3  N   UNL     1       8.551   6.664  19.333  0.00  0.00    +0.000 NA
ATOM      4  C   UNL     1       8.079   7.571  18.410  0.00  0.00    +0.000 A 
ATOM      5  C   UNL     1       7.405   6.888  17.405  0.00  0.00    +0.000 A 
ENDROOT
BRANCH   4   6
ATOM      6  C   UNL     1       8.296   9.006  18.524  0.00  0.00    +0.000 C 
ATOM      7  O   UNL     1       7.814   9.810  17.730  0.00  0.00    +0.000 OA
ATOM      8  N   UNL     1       9.135   9.345  19.574  0.00  0.00    +0.000 N 
ATOM      9  H   UNL     1       9.706   8.602  19.960  0.00  0.00    +0.000 HD
BRANCH   8  10
ATOM     10  C   UNL     1       9.453  10.674  19.912  0.00  0.00    +0.000 A 
ATOM     11  C   UNL     1       8.975  11.196  21.125  0.00  0.00    +0.000 A 
ATOM     12  C   UNL     1       9.344  12.475  21.535  0.00  0.00    +0.000 A 
ATOM     13 CL   UNL     1       8.815  13.070  23.061  0.00  0.00    +0.000 Cl
ATOM     14  C   UNL     1      10.165  13.262  20.734  0.00  0.00    +0.000 A 
ATOM     15  C   UNL     1      10.647  12.746  19.529  0.00  0.00    +0.000 A 
ATOM     16  C   UNL     1      10.307  11.452  19.114  0.00  0.00    +0.000 A 
BRANCH  16  17
ATOM     17  O   UNL     1      10.895  11.065  17.939  0.00  0.00    +0.000 OA
ATOM     18  C   UNL     1      11.599  12.071  17.217  0.00  0.00    +0.000 C 
ENDBRANCH  16  17
ENDBRANCH   8  10
ENDBRANCH   4   6
BRANCH   5  19
ATOM     19  N   UNL     1       6.814   7.275  16.249  0.00  0.00    +0.000 N 
ATOM     20  H   UNL     1       6.300   6.582  15.693  0.00  0.00    +0.000 HD
ATOM     21  H   UNL     1       6.519   8.229  16.053  0.00  0.00    +0.000 HD
ENDBRANCH   5  19
BRANCH   1  22
ATOM     22  C   UNL     1       6.718   4.446  17.315  0.00  0.00    +0.000 C 
BRANCH  22  24
ATOM     23  N   UNL     1       4.888   4.124  18.874  0.00  0.00    +0.000 N 
ATOM     24  C   UNL     1       5.235   4.527  17.595  0.00  0.00    +0.000 C 
ATOM     25  O   UNL     1       4.479   4.974  16.737  0.00  0.00    +0.000 OA
ATOM     26  H   UNL     1       5.640   3.809  19.480  0.00  0.00    +0.000 HD
BRANCH  23  31
ATOM     27  C   UNL     1       1.830   5.414  20.513  0.00  0.00    +0.000 A 
ATOM     28  C   UNL     1       1.036   4.272  20.562  0.00  0.00    +0.000 A 
ATOM     29  C   UNL     1       1.510   3.059  20.068  0.00  0.00    +0.000 A 
ATOM     30  C   UNL     1       2.786   2.988  19.504  0.00  0.00    +0.000 A 
ATOM     31  C   UNL     1       3.597   4.119  19.440  0.00  0.00    +0.000 A 
ATOM     32  C   UNL     1       3.116   5.334  19.961  0.00  0.00    +0.000 A 
BRANCH  27  34
ATOM     33  C   UNL     1       1.665   7.790  20.501  0.00  0.00    +0.000 C 
ATOM     34  O   UNL     1       1.241   6.537  21.025  0.00  0.00    +0.000 OA
ENDBRANCH  27  34
ENDBRANCH  23  31
ENDBRANCH  22  24
ENDBRANCH   1  22
TORSDOF 8
ENDMDL
MODEL 9
REMARK VINA RESULT:      -7.1      2.112      3.070
REMARK  Name = 
REMARK  10 active torsions:
REMARK  status: ('A' for Active; 'I' for Inactive)
REMARK    1  A    between atoms: C_1  and  O_2
REMARK    2  A    between atoms: O_2  and  C_3
REMARK    3  A    between atoms: C_7  and  N_8
REMARK    4  A    between atoms: C_9  and  C_11
REMARK    5  A    between atoms: C_11  and  N_12
REMARK    6  A    between atoms: C_15  and  C_16
REMARK    7  A    between atoms: N_18  and  C_19
REMARK    8  A    between atoms: C_25  and  O_26
REMARK    9  A    between atoms: O_26  and  C_27
REMARK   10  A    between atoms: C_28  and  N_29
REMARK                            x       y       z     vdW  Elec       q    Type
REMARK                         _______ _______ _______ _____ _____    ______ ____
ROOT
ATOM      1  N   UNL     1       0.681  10.752  20.006  0.00  0.00    +0.000 N 
ATOM      2  N   UNL     1       0.425   9.680  20.780  0.00  0.00    +0.000 NA
ATOM      3  N   UNL     1       0.982   8.628  20.204  0.00  0.00    +0.000 NA
ATOM      4  C   UNL     1       1.607   9.047  19.051  0.00  0.00    +0.000 A 
ATOM      5  C   UNL     1       1.356  10.402  18.865  0.00  0.00    +0.000 A 
ENDROOT
BRANCH   4   6
ATOM      6  C   UNL     1       2.384   8.158  18.199  0.00  0.00    +0.000 C 
ATOM      7  O   UNL     1       2.770   8.488  17.080  0.00  0.00    +0.000 OA
ATOM      8  N   UNL     1       2.584   6.907  18.763  0.00  0.00    +0.000 N 
ATOM      9  H   UNL     1       1.975   6.651  19.530  0.00  0.00    +0.000 HD
BRANCH   8  10
ATOM     10  C   UNL     1       3.345   5.895  18.149  0.00  0.00    +0.000 A 
ATOM     11  C   UNL     1       4.732   6.075  18.023  0.00  0.00    +0.000 A 
ATOM     12  C   UNL     1       5.531   5.059  17.504  0.00  0.00    +0.000 A 
ATOM     13 CL   UNL     1       7.238   5.264  17.432  0.00  0.00    +0.000 Cl
ATOM     14  C   UNL     1       4.960   3.865  17.075  0.00  0.00    +0.000 A 
ATOM     15  C   UNL     1       3.582   3.679  17.201  0.00  0.00    +0.000 A 
ATOM     16  C   UNL     1       2.768   4.681  17.746  0.00  0.00    +0.000 A 
BRANCH  16  17
ATOM     17  O   UNL     1       1.446   4.336  17.854  0.00  0.00    +0.000 OA
ATOM     18  C   UNL     1       1.159   3.124  18.546  0.00  0.00    +0.000 C 
ENDBRANCH  16  17
ENDBRANCH   8  10
ENDBRANCH   4   6
BRANCH   5  19
ATOM     19  N   UNL     1       1.670  11.282  17.884  0.00  0.00    +0.000 N 
ATOM     20  H   UNL     1       2.570  11.189  17.398  0.00  0.00    +0.000 HD
ATOM     21  H   UNL     1       0.982  11.792  17.336  0.00  0.00    +0.000 HD
ENDBRANCH   5  19
BRANCH   1  22
ATOM     22  C   UNL     1       0.295  12.065  20.462  0.00  0.00    +0.000 C 
BRANCH  22  24
ATOM     23  N   UNL     1      -1.818  11.551  19.389  0.00  0.00    +0.000 N 
ATOM     24  C   UNL     1      -0.927  12.557  19.724  0.00  0.00    +0.000 C 
ATOM     25  O   UNL     1      -1.075  13.760  19.528  0.00  0.00    +0.000 OA
ATOM     26  H   UNL     1      -1.564  10.603  19.653  0.00  0.00    +0.000 HD
BRANCH  23  31
ATOM     27  C   UNL     1      -5.401  12.349  18.914  0.00  0.00    +0.000 A 
ATOM     28  C   UNL     1      -5.571  12.075  17.560  0.00  0.00    +0.000 A 
ATOM     29  C   UNL     1      -4.506  11.608  16.794  0.00  0.00    +0.000 A 
ATOM     30  C   UNL     1      -3.252  11.426  17.382  0.00  0.00    +0.000 A 
ATOM     31  C   UNL     1      -3.058  11.698  18.734  0.00  0.00    +0.000 A 
ATOM     32  C   UNL     1      -4.145  12.150  19.503  0.00  0.00    +0.000 A 
BRANCH  27  34
ATOM     33  C   UNL     1      -7.663  13.073  18.736  0.00  0.00    +0.000 C 
ATOM     34  O   UNL     1      -6.524  12.808  19.546  0.00  0.00    +0.000 OA
ENDBRANCH  27  34
ENDBRANCH  23  31
ENDBRANCH  22  24
ENDBRANCH   1  22
TORSDOF 8
ENDMDL
