MODEL 1
REMARK VINA RESULT:      -7.3      0.000      0.000
REMARK  Name = 
REMARK  4 active torsions:
REMARK  status: ('A' for Active; 'I' for Inactive)
REMARK    1  A    between atoms: C_2  and  C_3
REMARK    2  A    between atoms: N_6  and  S_7
REMARK    3  A    between atoms: S_7  and  C_10
REMARK    4  A    between atoms: N_21  and  C_22
REMARK                            x       y       z     vdW  Elec       q    Type
REMARK                         _______ _______ _______ _____ _____    ______ ____
ROOT
ATOM      1  O   UNL     1      -0.334   9.230  17.211  0.00  0.00    +0.000 OA
ATOM      2  C   UNL     1      -0.194   9.843  18.273  0.00  0.00    +0.000 C 
ATOM      3  N   UNL     1      -1.294  10.380  18.955  0.00  0.00    +0.000 N 
ATOM      4  C   UNL     1      -1.258  11.042  20.260  0.00  0.00    +0.000 C 
ATOM      5  C   UNL     1      -1.856  12.457  20.185  0.00  0.00    +0.000 C 
ATOM      6  N   UNL     1      -3.249  12.395  19.702  0.00  0.00    +0.000 N 
ATOM      7  C   UNL     1      -3.379  11.695  18.394  0.00  0.00    +0.000 C 
ATOM      8  C   UNL     1      -2.656  10.318  18.377  0.00  0.00    +0.000 C 
ENDROOT
BRANCH   6   9
ATOM      9  C   UNL     1      -4.300  12.578  20.592  0.00  0.00    +0.000 A 
ATOM     10  C   UNL     1      -5.632  12.269  20.241  0.00  0.00    +0.000 A 
ATOM     11  C   UNL     1      -6.717  12.489  21.106  0.00  0.00    +0.000 A 
ATOM     12  C   UNL     1      -6.484  13.004  22.374  0.00  0.00    +0.000 A 
ATOM     13 CL   UNL     1      -7.800  13.311  23.435  0.00  0.00    +0.000 Cl
ATOM     14  C   UNL     1      -5.184  13.270  22.779  0.00  0.00    +0.000 A 
ATOM     15  C   UNL     1      -4.112  13.051  21.898  0.00  0.00    +0.000 A 
ENDBRANCH   6   9
BRANCH   2  16
ATOM     16  C   UNL     1       1.211  10.068  18.862  0.00  0.00    +0.000 C 
ATOM     17  C   UNL     1       2.349   9.658  17.933  0.00  0.00    +0.000 C 
ATOM     18  C   UNL     1       2.593   8.162  17.824  0.00  0.00    +0.000 C 
ATOM     19  N   UNL     1       2.488   7.408  19.088  0.00  0.00    +0.000 NA
ATOM     20  C   UNL     1       1.608   7.906  20.168  0.00  0.00    +0.000 C 
ATOM     21  C   UNL     1       1.464   9.423  20.221  0.00  0.00    +0.000 C 
BRANCH  19  22
ATOM     22  S   UNL     1       2.504   5.704  18.886  0.00  0.00    +0.000 S 
ATOM     23  O   UNL     1       2.277   5.077  20.171  0.00  0.00    +0.000 OA
ATOM     24  O   UNL     1       1.643   5.384  17.761  0.00  0.00    +0.000 OA
BRANCH  22  25
ATOM     25  C   UNL     1       4.158   5.317  18.393  0.00  0.00    +0.000 A 
ATOM     26  C   UNL     1       4.512   5.123  17.060  0.00  0.00    +0.000 A 
ATOM     27  C   UNL     1       5.840   4.819  16.758  0.00  0.00    +0.000 A 
ATOM     28  C   UNL     1       6.756   4.738  17.797  0.00  0.00    +0.000 A 
ATOM     29  N   UNL     1       6.439   4.944  19.093  0.00  0.00    +0.000 NA
ATOM     30  C   UNL     1       5.146   5.249  19.361  0.00  0.00    +0.000 A 
ENDBRANCH  22  25
ENDBRANCH  19  22
ENDBRANCH   2  16
TORSDOF 4
ENDMDL
MODEL 2
REMARK VINA RESULT:      -7.3      3.172      4.174
REMARK  Name = 
REMARK  4 active torsions:
REMARK  status: ('A' for Active; 'I' for Inactive)
REMARK    1  A    between atoms: C_2  and  C_3
REMARK    2  A    between atoms: N_6  and  S_7
REMARK    3  A    between atoms: S_7  and  C_10
REMARK    4  A    between atoms: N_21  and  C_22
REMARK                            x       y       z     vdW  Elec       q    Type
REMARK                         _______ _______ _______ _____ _____    ______ ____
ROOT
ATOM      1  O   UNL     1       2.404   6.862  20.641  0.00  0.00    +0.000 OA
ATOM      2  C   UNL     1       1.841   7.729  19.965  0.00  0.00    +0.000 C 
ATOM      3  N   UNL     1       1.336   8.897  20.552  0.00  0.00    +0.000 N 
ATOM      4  C   UNL     1       0.736  10.027  19.840  0.00  0.00    +0.000 C 
ATOM      5  C   UNL     1      -0.681  10.324  20.361  0.00  0.00    +0.000 C 
ATOM      6  N   UNL     1      -0.640  10.616  21.808  0.00  0.00    +0.000 N 
ATOM      7  C   UNL     1      -0.002   9.531  22.601  0.00  0.00    +0.000 C 
ATOM      8  C   UNL     1       1.373   9.092  22.019  0.00  0.00    +0.000 C 
ENDROOT
BRANCH   6   9
ATOM      9  C   UNL     1      -0.781  11.925  22.253  0.00  0.00    +0.000 A 
ATOM     10  C   UNL     1       0.063  12.960  21.793  0.00  0.00    +0.000 A 
ATOM     11  C   UNL     1      -0.029  14.280  22.264  0.00  0.00    +0.000 A 
ATOM     12  C   UNL     1      -1.002  14.605  23.199  0.00  0.00    +0.000 A 
ATOM     13 CL   UNL     1      -1.109  16.207  23.811  0.00  0.00    +0.000 Cl
ATOM     14  C   UNL     1      -1.886  13.630  23.637  0.00  0.00    +0.000 A 
ATOM     15  C   UNL     1      -1.775  12.312  23.162  0.00  0.00    +0.000 A 
ENDBRANCH   6   9
BRANCH   2  16
ATOM     16  C   UNL     1       1.642   7.527  18.452  0.00  0.00    +0.000 C 
ATOM     17  C   UNL     1       1.385   6.080  18.044  0.00  0.00    +0.000 C 
ATOM     18  C   UNL     1       2.607   5.177  18.042  0.00  0.00    +0.000 C 
ATOM     19  N   UNL     1       3.844   5.786  17.516  0.00  0.00    +0.000 NA
ATOM     20  C   UNL     1       4.043   7.249  17.618  0.00  0.00    +0.000 C 
ATOM     21  C   UNL     1       2.760   8.069  17.565  0.00  0.00    +0.000 C 
BRANCH  19  22
ATOM     22  S   UNL     1       5.251   4.838  17.775  0.00  0.00    +0.000 S 
ATOM     23  O   UNL     1       6.155   5.565  18.639  0.00  0.00    +0.000 OA
ATOM     24  O   UNL     1       4.821   3.499  18.138  0.00  0.00    +0.000 OA
BRANCH  22  25
ATOM     25  C   UNL     1       6.020   4.718  16.186  0.00  0.00    +0.000 A 
ATOM     26  C   UNL     1       5.566   3.841  15.203  0.00  0.00    +0.000 A 
ATOM     27  C   UNL     1       6.232   3.808  13.978  0.00  0.00    +0.000 A 
ATOM     28  C   UNL     1       7.310   4.661  13.783  0.00  0.00    +0.000 A 
ATOM     29  N   UNL     1       7.752   5.533  14.713  0.00  0.00    +0.000 NA
ATOM     30  C   UNL     1       7.083   5.556  15.892  0.00  0.00    +0.000 A 
ENDBRANCH  22  25
ENDBRANCH  19  22
ENDBRANCH   2  16
TORSDOF 4
ENDMDL
MODEL 3
REMARK VINA RESULT:      -7.2      5.881      9.266
REMARK  Name = 
REMARK  4 active torsions:
REMARK  status: ('A' for Active; 'I' for Inactive)
REMARK    1  A    between atoms: C_2  and  C_3
REMARK    2  A    between atoms: N_6  and  S_7
REMARK    3  A    between atoms: S_7  and  C_10
REMARK    4  A    between atoms: N_21  and  C_22
REMARK                            x       y       z     vdW  Elec       q    Type
REMARK                         _______ _______ _______ _____ _____    ______ ____
ROOT
ATOM      1  O   UNL     1      -0.566  11.917  20.766  0.00  0.00    +0.000 OA
ATOM      2  C   UNL     1       0.008  11.480  19.764  0.00  0.00    +0.000 C 
ATOM      3  N   UNL     1       0.341  10.124  19.648  0.00  0.00    +0.000 N 
ATOM      4  C   UNL     1       0.935   9.481  18.474  0.00  0.00    +0.000 C 
ATOM      5  C   UNL     1       2.247   8.764  18.836  0.00  0.00    +0.000 C 
ATOM      6  N   UNL     1       2.002   7.752  19.882  0.00  0.00    +0.000 N 
ATOM      7  C   UNL     1       1.357   8.320  21.098  0.00  0.00    +0.000 C 
ATOM      8  C   UNL     1       0.105   9.182  20.766  0.00  0.00    +0.000 C 
ENDROOT
BRANCH   6   9
ATOM      9  C   UNL     1       1.982   6.403  19.550  0.00  0.00    +0.000 A 
ATOM     10  C   UNL     1       1.694   5.407  20.509  0.00  0.00    +0.000 A 
ATOM     11  C   UNL     1       1.715   4.035  20.208  0.00  0.00    +0.000 A 
ATOM     12  C   UNL     1       1.998   3.625  18.913  0.00  0.00    +0.000 A 
ATOM     13 CL   UNL     1       2.059   1.950  18.533  0.00  0.00    +0.000 Cl
ATOM     14  C   UNL     1       2.233   4.573  17.928  0.00  0.00    +0.000 A 
ATOM     15  C   UNL     1       2.217   5.941  18.247  0.00  0.00    +0.000 A 
ENDBRANCH   6   9
BRANCH   2  16
ATOM     16  C   UNL     1       0.410  12.431  18.621  0.00  0.00    +0.000 C 
ATOM     17  C   UNL     1       1.915  12.638  18.483  0.00  0.00    +0.000 C 
ATOM     18  C   UNL     1       2.543  13.555  19.519  0.00  0.00    +0.000 C 
ATOM     19  N   UNL     1       1.756  14.755  19.865  0.00  0.00    +0.000 NA
ATOM     20  C   UNL     1       0.281  14.723  19.748  0.00  0.00    +0.000 C 
ATOM     21  C   UNL     1      -0.249  13.807  18.651  0.00  0.00    +0.000 C 
BRANCH  19  22
ATOM     22  S   UNL     1       2.362  15.619  21.218  0.00  0.00    +0.000 S 
ATOM     23  O   UNL     1       1.516  16.768  21.459  0.00  0.00    +0.000 OA
ATOM     24  O   UNL     1       2.604  14.660  22.282  0.00  0.00    +0.000 OA
BRANCH  22  25
ATOM     25  C   UNL     1       3.943  16.224  20.703  0.00  0.00    +0.000 A 
ATOM     26  C   UNL     1       5.108  15.977  21.426  0.00  0.00    +0.000 A 
ATOM     27  C   UNL     1       6.312  16.494  20.950  0.00  0.00    +0.000 A 
ATOM     28  C   UNL     1       6.304  17.219  19.766  0.00  0.00    +0.000 A 
ATOM     29  N   UNL     1       5.191  17.451  19.039  0.00  0.00    +0.000 NA
ATOM     30  C   UNL     1       4.033  16.930  19.515  0.00  0.00    +0.000 A 
ENDBRANCH  22  25
ENDBRANCH  19  22
ENDBRANCH   2  16
TORSDOF 4
ENDMDL
MODEL 4
REMARK VINA RESULT:      -7.1      0.572      1.249
REMARK  Name = 
REMARK  4 active torsions:
REMARK  status: ('A' for Active; 'I' for Inactive)
REMARK    1  A    between atoms: C_2  and  C_3
REMARK    2  A    between atoms: N_6  and  S_7
REMARK    3  A    between atoms: S_7  and  C_10
REMARK    4  A    between atoms: N_21  and  C_22
REMARK                            x       y       z     vdW  Elec       q    Type
REMARK                         _______ _______ _______ _____ _____    ______ ____
ROOT
ATOM      1  O   UNL     1      -0.277   9.145  17.102  0.00  0.00    +0.000 OA
ATOM      2  C   UNL     1      -0.183   9.777  18.158  0.00  0.00    +0.000 C 
ATOM      3  N   UNL     1      -1.314  10.305  18.795  0.00  0.00    +0.000 N 
ATOM      4  C   UNL     1      -1.331  10.987  20.090  0.00  0.00    +0.000 C 
ATOM      5  C   UNL     1      -1.949  12.391  19.973  0.00  0.00    +0.000 C 
ATOM      6  N   UNL     1      -3.325  12.297  19.445  0.00  0.00    +0.000 N 
ATOM      7  C   UNL     1      -3.400  11.576  18.145  0.00  0.00    +0.000 C 
ATOM      8  C   UNL     1      -2.654  10.211  18.173  0.00  0.00    +0.000 C 
ENDROOT
BRANCH   6   9
ATOM      9  C   UNL     1      -4.408  12.476  20.298  0.00  0.00    +0.000 A 
ATOM     10  C   UNL     1      -4.281  13.169  21.522  0.00  0.00    +0.000 A 
ATOM     11  C   UNL     1      -5.348  13.321  22.423  0.00  0.00    +0.000 A 
ATOM     12  C   UNL     1      -6.593  12.801  22.099  0.00  0.00    +0.000 A 
ATOM     13 CL   UNL     1      -7.903  12.950  23.201  0.00  0.00    +0.000 Cl
ATOM     14  C   UNL     1      -6.775  12.161  20.881  0.00  0.00    +0.000 A 
ATOM     15  C   UNL     1      -5.695  12.011  19.996  0.00  0.00    +0.000 A 
ENDBRANCH   6   9
BRANCH   2  16
ATOM     16  C   UNL     1       1.198  10.034  18.789  0.00  0.00    +0.000 C 
ATOM     17  C   UNL     1       2.373   9.624  17.907  0.00  0.00    +0.000 C 
ATOM     18  C   UNL     1       2.642   8.130  17.834  0.00  0.00    +0.000 C 
ATOM     19  N   UNL     1       2.507   7.399  19.109  0.00  0.00    +0.000 NA
ATOM     20  C   UNL     1       1.583   7.903  20.149  0.00  0.00    +0.000 C 
ATOM     21  C   UNL     1       1.414   9.418  20.168  0.00  0.00    +0.000 C 
BRANCH  19  22
ATOM     22  S   UNL     1       2.554   5.692  18.940  0.00  0.00    +0.000 S 
ATOM     23  O   UNL     1       2.363   5.086  20.240  0.00  0.00    +0.000 OA
ATOM     24  O   UNL     1       1.680   5.332  17.837  0.00  0.00    +0.000 OA
BRANCH  22  25
ATOM     25  C   UNL     1       4.207   5.329  18.425  0.00  0.00    +0.000 A 
ATOM     26  C   UNL     1       5.307   5.518  19.261  0.00  0.00    +0.000 A 
ATOM     27  C   UNL     1       6.577   5.209  18.774  0.00  0.00    +0.000 A 
ATOM     28  C   UNL     1       6.692   4.712  17.483  0.00  0.00    +0.000 A 
ATOM     29  N   UNL     1       5.639   4.501  16.665  0.00  0.00    +0.000 NA
ATOM     30  C   UNL     1       4.413   4.798  17.163  0.00  0.00    +0.000 A 
ENDBRANCH  22  25
ENDBRANCH  19  22
ENDBRANCH   2  16
TORSDOF 4
ENDMDL
MODEL 5
REMARK VINA RESULT:      -7.1      4.946     10.380
REMARK  Name = 
REMARK  4 active torsions:
REMARK  status: ('A' for Active; 'I' for Inactive)
REMARK    1  A    between atoms: C_2  and  C_3
REMARK    2  A    between atoms: N_6  and  S_7
REMARK    3  A    between atoms: S_7  and  C_10
REMARK    4  A    between atoms: N_21  and  C_22
REMARK                            x       y       z     vdW  Elec       q    Type
REMARK                         _______ _______ _______ _____ _____    ______ ____
ROOT
ATOM      1  O   UNL     1      -0.319  13.690  20.199  0.00  0.00    +0.000 OA
ATOM      2  C   UNL     1      -0.054  12.735  20.935  0.00  0.00    +0.000 C 
ATOM      3  N   UNL     1       0.635  11.614  20.454  0.00  0.00    +0.000 N 
ATOM      4  C   UNL     1       1.081  10.471  21.254  0.00  0.00    +0.000 C 
ATOM      5  C   UNL     1       0.525   9.150  20.696  0.00  0.00    +0.000 C 
ATOM      6  N   UNL     1       0.954   8.970  19.294  0.00  0.00    +0.000 N 
ATOM      7  C   UNL     1       0.575  10.114  18.421  0.00  0.00    +0.000 C 
ATOM      8  C   UNL     1       0.986  11.489  19.022  0.00  0.00    +0.000 C 
ENDROOT
BRANCH   6   9
ATOM      9  C   UNL     1       1.956   8.057  18.988  0.00  0.00    +0.000 A 
ATOM     10  C   UNL     1       2.738   8.179  17.818  0.00  0.00    +0.000 A 
ATOM     11  C   UNL     1       3.724   7.244  17.463  0.00  0.00    +0.000 A 
ATOM     12  C   UNL     1       3.973   6.165  18.300  0.00  0.00    +0.000 A 
ATOM     13 CL   UNL     1       5.153   4.993  17.867  0.00  0.00    +0.000 Cl
ATOM     14  C   UNL     1       3.265   6.037  19.486  0.00  0.00    +0.000 A 
ATOM     15  C   UNL     1       2.277   6.978  19.822  0.00  0.00    +0.000 A 
ENDBRANCH   6   9
BRANCH   2  16
ATOM     16  C   UNL     1      -0.514  12.736  22.405  0.00  0.00    +0.000 C 
ATOM     17  C   UNL     1      -1.691  11.809  22.691  0.00  0.00    +0.000 C 
ATOM     18  C   UNL     1      -3.046  12.316  22.227  0.00  0.00    +0.000 C 
ATOM     19  N   UNL     1      -3.292  13.756  22.441  0.00  0.00    +0.000 NA
ATOM     20  C   UNL     1      -2.152  14.699  22.463  0.00  0.00    +0.000 C 
ATOM     21  C   UNL     1      -0.848  14.107  22.986  0.00  0.00    +0.000 C 
BRANCH  19  22
ATOM     22  S   UNL     1      -4.709  14.342  21.670  0.00  0.00    +0.000 S 
ATOM     23  O   UNL     1      -5.045  15.635  22.226  0.00  0.00    +0.000 OA
ATOM     24  O   UNL     1      -4.527  14.194  20.237  0.00  0.00    +0.000 OA
BRANCH  22  25
ATOM     25  C   UNL     1      -5.986  13.214  22.145  0.00  0.00    +0.000 A 
ATOM     26  C   UNL     1      -6.832  12.612  21.216  0.00  0.00    +0.000 A 
ATOM     27  C   UNL     1      -7.815  11.736  21.676  0.00  0.00    +0.000 A 
ATOM     28  C   UNL     1      -7.900  11.488  23.039  0.00  0.00    +0.000 A 
ATOM     29  N   UNL     1      -7.078  12.043  23.954  0.00  0.00    +0.000 NA
ATOM     30  C   UNL     1      -6.123  12.882  23.483  0.00  0.00    +0.000 A 
ENDBRANCH  22  25
ENDBRANCH  19  22
ENDBRANCH   2  16
TORSDOF 4
ENDMDL
MODEL 6
REMARK VINA RESULT:      -7.1      5.866      9.121
REMARK  Name = 
REMARK  4 active torsions:
REMARK  status: ('A' for Active; 'I' for Inactive)
REMARK    1  A    between atoms: C_2  and  C_3
REMARK    2  A    between atoms: N_6  and  S_7
REMARK    3  A    between atoms: S_7  and  C_10
REMARK    4  A    between atoms: N_21  and  C_22
REMARK                            x       y       z     vdW  Elec       q    Type
REMARK                         _______ _______ _______ _____ _____    ______ ____
ROOT
ATOM      1  O   UNL     1      -0.148  11.866  21.160  0.00  0.00    +0.000 OA
ATOM      2  C   UNL     1       0.247  11.395  20.089  0.00  0.00    +0.000 C 
ATOM      3  N   UNL     1       0.490  10.023  19.942  0.00  0.00    +0.000 N 
ATOM      4  C   UNL     1       0.870   9.345  18.701  0.00  0.00    +0.000 C 
ATOM      5  C   UNL     1       2.183   8.562  18.873  0.00  0.00    +0.000 C 
ATOM      6  N   UNL     1       2.044   7.569  19.956  0.00  0.00    +0.000 N 
ATOM      7  C   UNL     1       1.616   8.174  21.247  0.00  0.00    +0.000 C 
ATOM      8  C   UNL     1       0.374   9.099  21.093  0.00  0.00    +0.000 C 
ENDROOT
BRANCH   6   9
ATOM      9  C   UNL     1       1.906   6.221  19.647  0.00  0.00    +0.000 A 
ATOM     10  C   UNL     1       2.242   5.716  18.371  0.00  0.00    +0.000 A 
ATOM     11  C   UNL     1       2.067   4.367  18.019  0.00  0.00    +0.000 A 
ATOM     12  C   UNL     1       1.573   3.475  18.961  0.00  0.00    +0.000 A 
ATOM     13 CL   UNL     1       1.321   1.828  18.539  0.00  0.00    +0.000 Cl
ATOM     14  C   UNL     1       1.281   3.919  20.242  0.00  0.00    +0.000 A 
ATOM     15  C   UNL     1       1.455   5.273  20.575  0.00  0.00    +0.000 A 
ENDBRANCH   6   9
BRANCH   2  16
ATOM     16  C   UNL     1       0.524  12.319  18.889  0.00  0.00    +0.000 C 
ATOM     17  C   UNL     1       2.004  12.580  18.631  0.00  0.00    +0.000 C 
ATOM     18  C   UNL     1       2.668  13.559  19.585  0.00  0.00    +0.000 C 
ATOM     19  N   UNL     1       1.858  14.738  19.949  0.00  0.00    +0.000 NA
ATOM     20  C   UNL     1       0.381  14.643  19.944  0.00  0.00    +0.000 C 
ATOM     21  C   UNL     1      -0.189  13.668  18.921  0.00  0.00    +0.000 C 
BRANCH  19  22
ATOM     22  S   UNL     1       2.526  15.674  21.224  0.00  0.00    +0.000 S 
ATOM     23  O   UNL     1       1.800  16.922  21.319  0.00  0.00    +0.000 OA
ATOM     24  O   UNL     1       2.646  14.814  22.388  0.00  0.00    +0.000 OA
BRANCH  22  25
ATOM     25  C   UNL     1       4.170  16.058  20.696  0.00  0.00    +0.000 A 
ATOM     26  C   UNL     1       4.430  16.946  19.654  0.00  0.00    +0.000 A 
ATOM     27  C   UNL     1       5.757  17.190  19.299  0.00  0.00    +0.000 A 
ATOM     28  C   UNL     1       6.764  16.551  20.010  0.00  0.00    +0.000 A 
ATOM     29  N   UNL     1       6.535  15.704  21.036  0.00  0.00    +0.000 NA
ATOM     30  C   UNL     1       5.238  15.491  21.370  0.00  0.00    +0.000 A 
ENDBRANCH  22  25
ENDBRANCH  19  22
ENDBRANCH   2  16
TORSDOF 4
ENDMDL
MODEL 7
REMARK VINA RESULT:      -7.0      5.664      8.904
REMARK  Name = 
REMARK  4 active torsions:
REMARK  status: ('A' for Active; 'I' for Inactive)
REMARK    1  A    between atoms: C_2  and  C_3
REMARK    2  A    between atoms: N_6  and  S_7
REMARK    3  A    between atoms: S_7  and  C_10
REMARK    4  A    between atoms: N_21  and  C_22
REMARK                            x       y       z     vdW  Elec       q    Type
REMARK                         _______ _______ _______ _____ _____    ______ ____
ROOT
ATOM      1  O   UNL     1      -0.390  11.887  20.894  0.00  0.00    +0.000 OA
ATOM      2  C   UNL     1       0.106  11.442  19.854  0.00  0.00    +0.000 C 
ATOM      3  N   UNL     1       0.412  10.082  19.716  0.00  0.00    +0.000 N 
ATOM      4  C   UNL     1       0.913   9.432  18.503  0.00  0.00    +0.000 C 
ATOM      5  C   UNL     1       2.238   8.698  18.771  0.00  0.00    +0.000 C 
ATOM      6  N   UNL     1       2.054   7.689  19.833  0.00  0.00    +0.000 N 
ATOM      7  C   UNL     1       1.505   8.265  21.091  0.00  0.00    +0.000 C 
ATOM      8  C   UNL     1       0.243   9.143  20.848  0.00  0.00    +0.000 C 
ENDROOT
BRANCH   6   9
ATOM      9  C   UNL     1       1.993   6.341  19.504  0.00  0.00    +0.000 A 
ATOM     10  C   UNL     1       1.626   5.361  20.453  0.00  0.00    +0.000 A 
ATOM     11  C   UNL     1       1.603   3.988  20.157  0.00  0.00    +0.000 A 
ATOM     12  C   UNL     1       1.923   3.561  18.876  0.00  0.00    +0.000 A 
ATOM     13 CL   UNL     1       1.932   1.884  18.504  0.00  0.00    +0.000 Cl
ATOM     14  C   UNL     1       2.237   4.495  17.899  0.00  0.00    +0.000 A 
ATOM     15  C   UNL     1       2.262   5.864  18.214  0.00  0.00    +0.000 A 
ENDBRANCH   6   9
BRANCH   2  16
ATOM     16  C   UNL     1       0.438  12.388  18.685  0.00  0.00    +0.000 C 
ATOM     17  C   UNL     1       1.932  12.571  18.436  0.00  0.00    +0.000 C 
ATOM     18  C   UNL     1       2.651  13.475  19.423  0.00  0.00    +0.000 C 
ATOM     19  N   UNL     1       1.911  14.687  19.827  0.00  0.00    +0.000 NA
ATOM     20  C   UNL     1       0.432  14.680  19.819  0.00  0.00    +0.000 C 
ATOM     21  C   UNL     1      -0.193  13.775  18.764  0.00  0.00    +0.000 C 
BRANCH  19  22
ATOM     22  S   UNL     1       2.631  15.538  21.132  0.00  0.00    +0.000 S 
ATOM     23  O   UNL     1       2.317  16.945  21.005  0.00  0.00    +0.000 OA
ATOM     24  O   UNL     1       2.303  14.830  22.356  0.00  0.00    +0.000 OA
BRANCH  22  25
ATOM     25  C   UNL     1       4.374  15.361  20.887  0.00  0.00    +0.000 A 
ATOM     26  C   UNL     1       5.055  16.024  19.868  0.00  0.00    +0.000 A 
ATOM     27  C   UNL     1       6.430  15.827  19.744  0.00  0.00    +0.000 A 
ATOM     28  C   UNL     1       7.066  14.990  20.651  0.00  0.00    +0.000 A 
ATOM     29  N   UNL     1       6.430  14.355  21.657  0.00  0.00    +0.000 NA
ATOM     30  C   UNL     1       5.096  14.571  21.766  0.00  0.00    +0.000 A 
ENDBRANCH  22  25
ENDBRANCH  19  22
ENDBRANCH   2  16
TORSDOF 4
ENDMDL
MODEL 8
REMARK VINA RESULT:      -7.0      4.883     10.354
REMARK  Name = 
REMARK  4 active torsions:
REMARK  status: ('A' for Active; 'I' for Inactive)
REMARK    1  A    between atoms: C_2  and  C_3
REMARK    2  A    between atoms: N_6  and  S_7
REMARK    3  A    between atoms: S_7  and  C_10
REMARK    4  A    between atoms: N_21  and  C_22
REMARK                            x       y       z     vdW  Elec       q    Type
REMARK                         _______ _______ _______ _____ _____    ______ ____
ROOT
ATOM      1  O   UNL     1      -0.984  11.564  22.588  0.00  0.00    +0.000 OA
ATOM      2  C   UNL     1      -0.764  11.315  21.399  0.00  0.00    +0.000 C 
ATOM      3  N   UNL     1      -0.254  10.074  20.996  0.00  0.00    +0.000 N 
ATOM      4  C   UNL     1      -0.042   9.638  19.615  0.00  0.00    +0.000 C 
ATOM      5  C   UNL     1       1.418   9.213  19.382  0.00  0.00    +0.000 C 
ATOM      6  N   UNL     1       1.782   8.121  20.306  0.00  0.00    +0.000 N 
ATOM      7  C   UNL     1       1.554   8.470  21.735  0.00  0.00    +0.000 C 
ATOM      8  C   UNL     1       0.133   9.049  21.991  0.00  0.00    +0.000 C 
ENDROOT
BRANCH   6   9
ATOM      9  C   UNL     1       1.889   6.819  19.831  0.00  0.00    +0.000 A 
ATOM     10  C   UNL     1       2.294   6.544  18.506  0.00  0.00    +0.000 A 
ATOM     11  C   UNL     1       2.363   5.240  17.989  0.00  0.00    +0.000 A 
ATOM     12  C   UNL     1       2.054   4.163  18.809  0.00  0.00    +0.000 A 
ATOM     13 CL   UNL     1       2.103   2.563  18.186  0.00  0.00    +0.000 Cl
ATOM     14  C   UNL     1       1.705   4.386  20.133  0.00  0.00    +0.000 A 
ATOM     15  C   UNL     1       1.632   5.698  20.632  0.00  0.00    +0.000 A 
ENDBRANCH   6   9
BRANCH   2  16
ATOM     16  C   UNL     1      -1.011  12.388  20.322  0.00  0.00    +0.000 C 
ATOM     17  C   UNL     1      -0.335  13.725  20.606  0.00  0.00    +0.000 C 
ATOM     18  C   UNL     1      -1.006  14.581  21.667  0.00  0.00    +0.000 C 
ATOM     19  N   UNL     1      -2.481  14.600  21.627  0.00  0.00    +0.000 NA
ATOM     20  C   UNL     1      -3.215  13.434  21.088  0.00  0.00    +0.000 C 
ATOM     21  C   UNL     1      -2.476  12.667  19.998  0.00  0.00    +0.000 C 
BRANCH  19  22
ATOM     22  S   UNL     1      -3.204  15.353  22.989  0.00  0.00    +0.000 S 
ATOM     23  O   UNL     1      -2.220  15.459  24.044  0.00  0.00    +0.000 OA
ATOM     24  O   UNL     1      -3.897  16.541  22.521  0.00  0.00    +0.000 OA
BRANCH  22  25
ATOM     25  C   UNL     1      -4.445  14.216  23.534  0.00  0.00    +0.000 A 
ATOM     26  C   UNL     1      -5.805  14.444  23.333  0.00  0.00    +0.000 A 
ATOM     27  C   UNL     1      -6.717  13.496  23.797  0.00  0.00    +0.000 A 
ATOM     28  C   UNL     1      -6.231  12.358  24.426  0.00  0.00    +0.000 A 
ATOM     29  N   UNL     1      -4.918  12.107  24.612  0.00  0.00    +0.000 NA
ATOM     30  C   UNL     1      -4.050  13.037  24.143  0.00  0.00    +0.000 A 
ENDBRANCH  22  25
ENDBRANCH  19  22
ENDBRANCH   2  16
TORSDOF 4
ENDMDL
MODEL 9
REMARK VINA RESULT:      -7.0      4.713     10.410
REMARK  Name = 
REMARK  4 active torsions:
REMARK  status: ('A' for Active; 'I' for Inactive)
REMARK    1  A    between atoms: C_2  and  C_3
REMARK    2  A    between atoms: N_6  and  S_7
REMARK    3  A    between atoms: S_7  and  C_10
REMARK    4  A    between atoms: N_21  and  C_22
REMARK                            x       y       z     vdW  Elec       q    Type
REMARK                         _______ _______ _______ _____ _____    ______ ____
ROOT
ATOM      1  O   UNL     1      -0.904  11.474  22.510  0.00  0.00    +0.000 OA
ATOM      2  C   UNL     1      -0.629  11.246  21.328  0.00  0.00    +0.000 C 
ATOM      3  N   UNL     1      -0.153   9.992  20.921  0.00  0.00    +0.000 N 
ATOM      4  C   UNL     1       0.117   9.582  19.541  0.00  0.00    +0.000 C 
ATOM      5  C   UNL     1       1.567   9.095  19.378  0.00  0.00    +0.000 C 
ATOM      6  N   UNL     1       1.829   7.964  20.290  0.00  0.00    +0.000 N 
ATOM      7  C   UNL     1       1.537   8.288  21.713  0.00  0.00    +0.000 C 
ATOM      8  C   UNL     1       0.131   8.925  21.907  0.00  0.00    +0.000 C 
ENDROOT
BRANCH   6   9
ATOM      9  C   UNL     1       1.904   6.671  19.786  0.00  0.00    +0.000 A 
ATOM     10  C   UNL     1       2.310   6.415  18.458  0.00  0.00    +0.000 A 
ATOM     11  C   UNL     1       2.348   5.122  17.912  0.00  0.00    +0.000 A 
ATOM     12  C   UNL     1       2.004   4.036  18.705  0.00  0.00    +0.000 A 
ATOM     13 CL   UNL     1       2.013   2.450  18.045  0.00  0.00    +0.000 Cl
ATOM     14  C   UNL     1       1.651   4.238  20.031  0.00  0.00    +0.000 A 
ATOM     15  C   UNL     1       1.611   5.540  20.559  0.00  0.00    +0.000 A 
ENDBRANCH   6   9
BRANCH   2  16
ATOM     16  C   UNL     1      -0.766  12.355  20.269  0.00  0.00    +0.000 C 
ATOM     17  C   UNL     1      -1.026  13.742  20.849  0.00  0.00    +0.000 C 
ATOM     18  C   UNL     1      -2.442  13.986  21.344  0.00  0.00    +0.000 C 
ATOM     19  N   UNL     1      -3.514  13.429  20.497  0.00  0.00    +0.000 NA
ATOM     20  C   UNL     1      -3.249  12.231  19.670  0.00  0.00    +0.000 C 
ATOM     21  C   UNL     1      -1.810  12.100  19.185  0.00  0.00    +0.000 C 
BRANCH  19  22
ATOM     22  S   UNL     1      -5.072  13.490  21.216  0.00  0.00    +0.000 S 
ATOM     23  O   UNL     1      -5.381  12.192  21.776  0.00  0.00    +0.000 OA
ATOM     24  O   UNL     1      -5.124  14.673  22.057  0.00  0.00    +0.000 OA
BRANCH  22  25
ATOM     25  C   UNL     1      -6.186  13.766  19.871  0.00  0.00    +0.000 A 
ATOM     26  C   UNL     1      -6.907  12.732  19.276  0.00  0.00    +0.000 A 
ATOM     27  C   UNL     1      -7.763  13.037  18.218  0.00  0.00    +0.000 A 
ATOM     28  C   UNL     1      -7.874  14.360  17.812  0.00  0.00    +0.000 A 
ATOM     29  N   UNL     1      -7.202  15.378  18.388  0.00  0.00    +0.000 NA
ATOM     30  C   UNL     1      -6.385  15.060  19.421  0.00  0.00    +0.000 A 
ENDBRANCH  22  25
ENDBRANCH  19  22
ENDBRANCH   2  16
TORSDOF 4
ENDMDL
