MODEL 1
REMARK VINA RESULT:      -8.1      0.000      0.000
REMARK  Name = 
REMARK  8 active torsions:
REMARK  status: ('A' for Active; 'I' for Inactive)
REMARK    1  A    between atoms: C_1  and  C_2
REMARK    2  A    between atoms: C_4  and  C_5
REMARK    3  A    between atoms: C_7  and  S_8
REMARK    4  A    between atoms: S_8  and  N_11
REMARK    5  A    between atoms: N_11  and  C_12
REMARK    6  A    between atoms: C_12  and  C_13
REMARK    7  A    between atoms: C_13  and  C_14
REMARK    8  A    between atoms: C_14  and  C_15
REMARK                            x       y       z     vdW  Elec       q    Type
REMARK                         _______ _______ _______ _____ _____    ______ ____
ROOT
ATOM      1  N   UNL     1       7.550   6.845  16.878  0.00  0.00    +0.000 NA
ATOM      2  H   UNL     1       6.823   7.294  16.324  0.00  0.00    +0.000 HD
ENDROOT
BRANCH   1   3
ATOM      3  S   UNL     1       7.205   5.204  17.134  0.00  0.00    +0.000 S 
ATOM      4  O   UNL     1       7.823   4.790  18.373  0.00  0.00    +0.000 OA
ATOM      5  O   UNL     1       7.470   4.525  15.884  0.00  0.00    +0.000 OA
BRANCH   3  12
ATOM      6  C   UNL     1       2.671   7.708  18.129  0.00  0.00    +0.000 C 
ATOM      7  C   UNL     1       3.393   6.423  17.848  0.00  0.00    +0.000 A 
ATOM      8  C   UNL     1       2.693   5.206  17.804  0.00  0.00    +0.000 A 
ATOM      9  C   UNL     1       3.360   3.998  17.552  0.00  0.00    +0.000 A 
ATOM     10  C   UNL     1       2.618   2.694  17.525  0.00  0.00    +0.000 C 
ATOM     11  C   UNL     1       4.741   4.012  17.335  0.00  0.00    +0.000 A 
ATOM     12  C   UNL     1       5.441   5.221  17.369  0.00  0.00    +0.000 A 
ATOM     13  C   UNL     1       4.778   6.423  17.641  0.00  0.00    +0.000 A 
ENDBRANCH   3  12
ENDBRANCH   1   3
BRANCH   1  14
ATOM     14  C   UNL     1       8.020   7.600  18.048  0.00  0.00    +0.000 C 
BRANCH  14  15
ATOM     15  C   UNL     1       7.969   9.101  17.781  0.00  0.00    +0.000 C 
BRANCH  15  16
ATOM     16  C   UNL     1       9.020   9.796  18.647  0.00  0.00    +0.000 C 
BRANCH  16  17
ATOM     17  C   UNL     1       9.419  11.127  18.127  0.00  0.00    +0.000 A 
ATOM     18  C   UNL     1       8.619  12.182  17.747  0.00  0.00    +0.000 A 
ATOM     19  N   UNL     1       9.489  13.148  17.325  0.00  0.00    +0.000 N 
ATOM     20  C   UNL     1      10.758  12.657  17.462  0.00  0.00    +0.000 A 
ATOM     21  N   UNL     1      11.822  13.395  17.136  0.00  0.00    +0.000 N 
ATOM     22  N   UNL     1      10.746  11.439  17.938  0.00  0.00    +0.000 NA
ATOM     23  H   UNL     1       9.252  14.066  16.981  0.00  0.00    +0.000 HD
ATOM     24  H   UNL     1      11.765  14.213  16.542  0.00  0.00    +0.000 HD
ATOM     25  H   UNL     1      12.713  12.908  17.095  0.00  0.00    +0.000 HD
ENDBRANCH  16  17
ENDBRANCH  15  16
ENDBRANCH  14  15
ENDBRANCH   1  14
TORSDOF 6
ENDMDL
MODEL 2
REMARK VINA RESULT:      -8.0      5.647      8.456
REMARK  Name = 
REMARK  8 active torsions:
REMARK  status: ('A' for Active; 'I' for Inactive)
REMARK    1  A    between atoms: C_1  and  C_2
REMARK    2  A    between atoms: C_4  and  C_5
REMARK    3  A    between atoms: C_7  and  S_8
REMARK    4  A    between atoms: S_8  and  N_11
REMARK    5  A    between atoms: N_11  and  C_12
REMARK    6  A    between atoms: C_12  and  C_13
REMARK    7  A    between atoms: C_13  and  C_14
REMARK    8  A    between atoms: C_14  and  C_15
REMARK                            x       y       z     vdW  Elec       q    Type
REMARK                         _______ _______ _______ _____ _____    ______ ____
ROOT
ATOM      1  N   UNL     1       3.100   5.513  20.110  0.00  0.00    +0.000 NA
ATOM      2  H   UNL     1       3.709   6.124  20.650  0.00  0.00    +0.000 HD
ENDROOT
BRANCH   1   3
ATOM      3  S   UNL     1       3.016   6.003  18.488  0.00  0.00    +0.000 S 
ATOM      4  O   UNL     1       2.918   7.445  18.446  0.00  0.00    +0.000 OA
ATOM      5  O   UNL     1       2.037   5.152  17.847  0.00  0.00    +0.000 OA
BRANCH   3  12
ATOM      6  C   UNL     1       6.144   3.888  14.804  0.00  0.00    +0.000 C 
ATOM      7  C   UNL     1       6.002   4.537  16.151  0.00  0.00    +0.000 A 
ATOM      8  C   UNL     1       7.128   4.753  16.961  0.00  0.00    +0.000 A 
ATOM      9  C   UNL     1       7.005   5.349  18.225  0.00  0.00    +0.000 A 
ATOM     10  C   UNL     1       8.204   5.560  19.102  0.00  0.00    +0.000 C 
ATOM     11  C   UNL     1       5.741   5.740  18.676  0.00  0.00    +0.000 A 
ATOM     12  C   UNL     1       4.618   5.536  17.869  0.00  0.00    +0.000 A 
ATOM     13  C   UNL     1       4.739   4.923  16.617  0.00  0.00    +0.000 A 
ENDBRANCH   3  12
ENDBRANCH   1   3
BRANCH   1  14
ATOM     14  C   UNL     1       1.826   5.154  20.747  0.00  0.00    +0.000 C 
BRANCH  14  15
ATOM     15  C   UNL     1       2.029   4.055  21.785  0.00  0.00    +0.000 C 
BRANCH  15  16
ATOM     16  C   UNL     1       1.365   2.771  21.287  0.00  0.00    +0.000 C 
BRANCH  16  17
ATOM     17  C   UNL     1       1.790   2.387  19.918  0.00  0.00    +0.000 A 
ATOM     18  C   UNL     1       1.011   2.126  18.812  0.00  0.00    +0.000 A 
ATOM     19  N   UNL     1       1.900   1.796  17.827  0.00  0.00    +0.000 N 
ATOM     20  C   UNL     1       3.158   1.870  18.356  0.00  0.00    +0.000 A 
ATOM     21  N   UNL     1       4.237   1.610  17.613  0.00  0.00    +0.000 N 
ATOM     22  N   UNL     1       3.122   2.218  19.617  0.00  0.00    +0.000 NA
ATOM     23  H   UNL     1       1.682   1.552  16.873  0.00  0.00    +0.000 HD
ATOM     24  H   UNL     1       4.193   1.105  16.737  0.00  0.00    +0.000 HD
ATOM     25  H   UNL     1       5.115   1.510  18.112  0.00  0.00    +0.000 HD
ENDBRANCH  16  17
ENDBRANCH  15  16
ENDBRANCH  14  15
ENDBRANCH   1  14
TORSDOF 6
ENDMDL
MODEL 3
REMARK VINA RESULT:      -7.7      1.003      1.159
REMARK  Name = 
REMARK  8 active torsions:
REMARK  status: ('A' for Active; 'I' for Inactive)
REMARK    1  A    between atoms: C_1  and  C_2
REMARK    2  A    between atoms: C_4  and  C_5
REMARK    3  A    between atoms: C_7  and  S_8
REMARK    4  A    between atoms: S_8  and  N_11
REMARK    5  A    between atoms: N_11  and  C_12
REMARK    6  A    between atoms: C_12  and  C_13
REMARK    7  A    between atoms: C_13  and  C_14
REMARK    8  A    between atoms: C_14  and  C_15
REMARK                            x       y       z     vdW  Elec       q    Type
REMARK                         _______ _______ _______ _____ _____    ______ ____
ROOT
ATOM      1  N   UNL     1       7.028   7.227  16.679  0.00  0.00    +0.000 NA
ATOM      2  H   UNL     1       6.156   7.737  16.553  0.00  0.00    +0.000 HD
ENDROOT
BRANCH   1   3
ATOM      3  S   UNL     1       6.802   5.559  16.471  0.00  0.00    +0.000 S 
ATOM      4  O   UNL     1       7.703   4.856  17.356  0.00  0.00    +0.000 OA
ATOM      5  O   UNL     1       6.788   5.317  15.045  0.00  0.00    +0.000 OA
BRANCH   3  12
ATOM      6  C   UNL     1       2.286   7.392  18.489  0.00  0.00    +0.000 C 
ATOM      7  C   UNL     1       3.098   6.224  18.012  0.00  0.00    +0.000 A 
ATOM      8  C   UNL     1       2.575   4.921  18.064  0.00  0.00    +0.000 A 
ATOM      9  C   UNL     1       3.330   3.822  17.631  0.00  0.00    +0.000 A 
ATOM     10  C   UNL     1       2.781   2.427  17.706  0.00  0.00    +0.000 C 
ATOM     11  C   UNL     1       4.619   4.031  17.132  0.00  0.00    +0.000 A 
ATOM     12  C   UNL     1       5.141   5.327  17.069  0.00  0.00    +0.000 A 
ATOM     13  C   UNL     1       4.395   6.421  17.521  0.00  0.00    +0.000 A 
ENDBRANCH   3  12
ENDBRANCH   1   3
BRANCH   1  14
ATOM     14  C   UNL     1       7.845   7.634  17.831  0.00  0.00    +0.000 C 
BRANCH  14  15
ATOM     15  C   UNL     1       8.187   9.118  17.757  0.00  0.00    +0.000 C 
BRANCH  15  16
ATOM     16  C   UNL     1       9.026   9.496  18.978  0.00  0.00    +0.000 C 
BRANCH  16  17
ATOM     17  C   UNL     1       9.379  10.936  19.021  0.00  0.00    +0.000 A 
ATOM     18  C   UNL     1       9.808  11.691  20.091  0.00  0.00    +0.000 A 
ATOM     19  N   UNL     1       9.965  12.953  19.590  0.00  0.00    +0.000 N 
ATOM     20  C   UNL     1       9.636  12.921  18.263  0.00  0.00    +0.000 A 
ATOM     21  N   UNL     1       9.709  14.019  17.506  0.00  0.00    +0.000 N 
ATOM     22  N   UNL     1       9.274  11.719  17.893  0.00  0.00    +0.000 NA
ATOM     23  H   UNL     1      10.277  13.769  20.094  0.00  0.00    +0.000 HD
ATOM     24  H   UNL     1       9.744  14.954  17.894  0.00  0.00    +0.000 HD
ATOM     25  H   UNL     1       9.284  13.962  16.586  0.00  0.00    +0.000 HD
ENDBRANCH  16  17
ENDBRANCH  15  16
ENDBRANCH  14  15
ENDBRANCH   1  14
TORSDOF 6
ENDMDL
MODEL 4
REMARK VINA RESULT:      -7.7      5.665      8.080
REMARK  Name = 
REMARK  8 active torsions:
REMARK  status: ('A' for Active; 'I' for Inactive)
REMARK    1  A    between atoms: C_1  and  C_2
REMARK    2  A    between atoms: C_4  and  C_5
REMARK    3  A    between atoms: C_7  and  S_8
REMARK    4  A    between atoms: S_8  and  N_11
REMARK    5  A    between atoms: N_11  and  C_12
REMARK    6  A    between atoms: C_12  and  C_13
REMARK    7  A    between atoms: C_13  and  C_14
REMARK    8  A    between atoms: C_14  and  C_15
REMARK                            x       y       z     vdW  Elec       q    Type
REMARK                         _______ _______ _______ _____ _____    ______ ____
ROOT
ATOM      1  N   UNL     1       2.863   5.734  20.031  0.00  0.00    +0.000 NA
ATOM      2  H   UNL     1       3.532   6.312  20.536  0.00  0.00    +0.000 HD
ENDROOT
BRANCH   1   3
ATOM      3  S   UNL     1       2.878   6.083  18.371  0.00  0.00    +0.000 S 
ATOM      4  O   UNL     1       2.812   7.517  18.199  0.00  0.00    +0.000 OA
ATOM      5  O   UNL     1       1.918   5.195  17.751  0.00  0.00    +0.000 OA
BRANCH   3  12
ATOM      6  C   UNL     1       8.070   5.634  19.186  0.00  0.00    +0.000 C 
ATOM      7  C   UNL     1       6.881   5.377  18.306  0.00  0.00    +0.000 A 
ATOM      8  C   UNL     1       7.036   4.736  17.066  0.00  0.00    +0.000 A 
ATOM      9  C   UNL     1       5.933   4.501  16.232  0.00  0.00    +0.000 A 
ATOM     10  C   UNL     1       6.099   3.835  14.898  0.00  0.00    +0.000 C 
ATOM     11  C   UNL     1       4.662   4.906  16.649  0.00  0.00    +0.000 A 
ATOM     12  C   UNL     1       4.501   5.538  17.885  0.00  0.00    +0.000 A 
ATOM     13  C   UNL     1       5.605   5.790  18.708  0.00  0.00    +0.000 A 
ENDBRANCH   3  12
ENDBRANCH   1   3
BRANCH   1  14
ATOM     14  C   UNL     1       1.540   5.594  20.654  0.00  0.00    +0.000 C 
BRANCH  14  15
ATOM     15  C   UNL     1       1.104   4.133  20.680  0.00  0.00    +0.000 C 
BRANCH  15  16
ATOM     16  C   UNL     1       2.133   3.322  21.470  0.00  0.00    +0.000 C 
BRANCH  16  17
ATOM     17  C   UNL     1       3.128   2.643  20.606  0.00  0.00    +0.000 A 
ATOM     18  C   UNL     1       4.379   2.167  20.935  0.00  0.00    +0.000 A 
ATOM     19  N   UNL     1       4.880   1.660  19.769  0.00  0.00    +0.000 N 
ATOM     20  C   UNL     1       3.938   1.839  18.795  0.00  0.00    +0.000 A 
ATOM     21  N   UNL     1       4.151   1.425  17.543  0.00  0.00    +0.000 N 
ATOM     22  N   UNL     1       2.874   2.435  19.269  0.00  0.00    +0.000 NA
ATOM     23  H   UNL     1       5.778   1.220  19.638  0.00  0.00    +0.000 HD
ATOM     24  H   UNL     1       5.072   1.211  17.183  0.00  0.00    +0.000 HD
ATOM     25  H   UNL     1       3.491   1.748  16.843  0.00  0.00    +0.000 HD
ENDBRANCH  16  17
ENDBRANCH  15  16
ENDBRANCH  14  15
ENDBRANCH   1  14
TORSDOF 6
ENDMDL
MODEL 5
REMARK VINA RESULT:      -7.5      1.183      2.202
REMARK  Name = 
REMARK  8 active torsions:
REMARK  status: ('A' for Active; 'I' for Inactive)
REMARK    1  A    between atoms: C_1  and  C_2
REMARK    2  A    between atoms: C_4  and  C_5
REMARK    3  A    between atoms: C_7  and  S_8
REMARK    4  A    between atoms: S_8  and  N_11
REMARK    5  A    between atoms: N_11  and  C_12
REMARK    6  A    between atoms: C_12  and  C_13
REMARK    7  A    between atoms: C_13  and  C_14
REMARK    8  A    between atoms: C_14  and  C_15
REMARK                            x       y       z     vdW  Elec       q    Type
REMARK                         _______ _______ _______ _____ _____    ______ ____
ROOT
ATOM      1  N   UNL     1       7.521   6.988  16.623  0.00  0.00    +0.000 NA
ATOM      2  H   UNL     1       6.951   7.605  16.048  0.00  0.00    +0.000 HD
ENDROOT
BRANCH   1   3
ATOM      3  S   UNL     1       6.926   5.399  16.598  0.00  0.00    +0.000 S 
ATOM      4  O   UNL     1       7.820   4.559  17.364  0.00  0.00    +0.000 OA
ATOM      5  O   UNL     1       6.590   5.103  15.223  0.00  0.00    +0.000 OA
BRANCH   3  12
ATOM      6  C   UNL     1       3.286   3.544  19.934  0.00  0.00    +0.000 C 
ATOM      7  C   UNL     1       3.753   4.643  19.025  0.00  0.00    +0.000 A 
ATOM      8  C   UNL     1       2.975   5.798  18.842  0.00  0.00    +0.000 A 
ATOM      9  C   UNL     1       3.398   6.826  17.987  0.00  0.00    +0.000 A 
ATOM     10  C   UNL     1       2.558   8.051  17.774  0.00  0.00    +0.000 C 
ATOM     11  C   UNL     1       4.617   6.698  17.315  0.00  0.00    +0.000 A 
ATOM     12  C   UNL     1       5.400   5.555  17.501  0.00  0.00    +0.000 A 
ATOM     13  C   UNL     1       4.967   4.521  18.338  0.00  0.00    +0.000 A 
ENDBRANCH   3  12
ENDBRANCH   1   3
BRANCH   1  14
ATOM     14  C   UNL     1       7.909   7.517  17.938  0.00  0.00    +0.000 C 
BRANCH  14  15
ATOM     15  C   UNL     1       8.069   9.032  17.887  0.00  0.00    +0.000 C 
BRANCH  15  16
ATOM     16  C   UNL     1       9.013   9.470  19.007  0.00  0.00    +0.000 C 
BRANCH  16  17
ATOM     17  C   UNL     1       9.521  10.853  18.836  0.00  0.00    +0.000 A 
ATOM     18  C   UNL     1      10.520  11.501  19.529  0.00  0.00    +0.000 A 
ATOM     19  N   UNL     1      10.564  12.756  18.992  0.00  0.00    +0.000 N 
ATOM     20  C   UNL     1       9.613  12.826  18.012  0.00  0.00    +0.000 A 
ATOM     21  N   UNL     1       9.436  13.942  17.299  0.00  0.00    +0.000 N 
ATOM     22  N   UNL     1       8.965  11.695  17.900  0.00  0.00    +0.000 NA
ATOM     23  H   UNL     1      11.188  13.504  19.253  0.00  0.00    +0.000 HD
ATOM     24  H   UNL     1       9.779  14.846  17.597  0.00  0.00    +0.000 HD
ATOM     25  H   UNL     1       8.603  13.979  16.720  0.00  0.00    +0.000 HD
ENDBRANCH  16  17
ENDBRANCH  15  16
ENDBRANCH  14  15
ENDBRANCH   1  14
TORSDOF 6
ENDMDL
MODEL 6
REMARK VINA RESULT:      -7.5      4.976      7.658
REMARK  Name = 
REMARK  8 active torsions:
REMARK  status: ('A' for Active; 'I' for Inactive)
REMARK    1  A    between atoms: C_1  and  C_2
REMARK    2  A    between atoms: C_4  and  C_5
REMARK    3  A    between atoms: C_7  and  S_8
REMARK    4  A    between atoms: S_8  and  N_11
REMARK    5  A    between atoms: N_11  and  C_12
REMARK    6  A    between atoms: C_12  and  C_13
REMARK    7  A    between atoms: C_13  and  C_14
REMARK    8  A    between atoms: C_14  and  C_15
REMARK                            x       y       z     vdW  Elec       q    Type
REMARK                         _______ _______ _______ _____ _____    ______ ____
ROOT
ATOM      1  N   UNL     1       6.856   4.220  17.829  0.00  0.00    +0.000 NA
ATOM      2  H   UNL     1       6.274   3.499  18.250  0.00  0.00    +0.000 HD
ENDROOT
BRANCH   1   3
ATOM      3  S   UNL     1       6.831   5.647  18.746  0.00  0.00    +0.000 S 
ATOM      4  O   UNL     1       7.349   6.726  17.935  0.00  0.00    +0.000 OA
ATOM      5  O   UNL     1       7.397   5.321  20.037  0.00  0.00    +0.000 OA
BRANCH   3  12
ATOM      6  C   UNL     1       2.197   4.447  20.962  0.00  0.00    +0.000 C 
ATOM      7  C   UNL     1       2.984   5.306  20.014  0.00  0.00    +0.000 A 
ATOM      8  C   UNL     1       2.349   6.311  19.267  0.00  0.00    +0.000 A 
ATOM      9  C   UNL     1       3.072   7.112  18.372  0.00  0.00    +0.000 A 
ATOM     10  C   UNL     1       2.392   8.172  17.557  0.00  0.00    +0.000 C 
ATOM     11  C   UNL     1       4.448   6.908  18.231  0.00  0.00    +0.000 A 
ATOM     12  C   UNL     1       5.087   5.914  18.979  0.00  0.00    +0.000 A 
ATOM     13  C   UNL     1       4.360   5.102  19.857  0.00  0.00    +0.000 A 
ENDBRANCH   3  12
ENDBRANCH   1   3
BRANCH   1  14
ATOM     14  C   UNL     1       6.724   4.380  16.374  0.00  0.00    +0.000 C 
BRANCH  14  15
ATOM     15  C   UNL     1       5.635   3.465  15.825  0.00  0.00    +0.000 C 
BRANCH  15  16
ATOM     16  C   UNL     1       4.269   4.012  16.242  0.00  0.00    +0.000 C 
BRANCH  16  17
ATOM     17  C   UNL     1       3.522   3.096  17.139  0.00  0.00    +0.000 A 
ATOM     18  C   UNL     1       3.993   2.031  17.874  0.00  0.00    +0.000 A 
ATOM     19  N   UNL     1       2.890   1.519  18.497  0.00  0.00    +0.000 N 
ATOM     20  C   UNL     1       1.812   2.276  18.129  0.00  0.00    +0.000 A 
ATOM     21  N   UNL     1       0.590   2.013  18.599  0.00  0.00    +0.000 N 
ATOM     22  N   UNL     1       2.163   3.230  17.306  0.00  0.00    +0.000 NA
ATOM     23  H   UNL     1       2.861   0.732  19.127  0.00  0.00    +0.000 HD
ATOM     24  H   UNL     1       0.339   1.126  19.017  0.00  0.00    +0.000 HD
ATOM     25  H   UNL     1      -0.181   2.497  18.149  0.00  0.00    +0.000 HD
ENDBRANCH  16  17
ENDBRANCH  15  16
ENDBRANCH  14  15
ENDBRANCH   1  14
TORSDOF 6
ENDMDL
MODEL 7
REMARK VINA RESULT:      -7.5      1.022      2.140
REMARK  Name = 
REMARK  8 active torsions:
REMARK  status: ('A' for Active; 'I' for Inactive)
REMARK    1  A    between atoms: C_1  and  C_2
REMARK    2  A    between atoms: C_4  and  C_5
REMARK    3  A    between atoms: C_7  and  S_8
REMARK    4  A    between atoms: S_8  and  N_11
REMARK    5  A    between atoms: N_11  and  C_12
REMARK    6  A    between atoms: C_12  and  C_13
REMARK    7  A    between atoms: C_13  and  C_14
REMARK    8  A    between atoms: C_14  and  C_15
REMARK                            x       y       z     vdW  Elec       q    Type
REMARK                         _______ _______ _______ _____ _____    ______ ____
ROOT
ATOM      1  N   UNL     1       6.780   7.409  16.892  0.00  0.00    +0.000 NA
ATOM      2  H   UNL     1       5.877   7.832  17.097  0.00  0.00    +0.000 HD
ENDROOT
BRANCH   1   3
ATOM      3  S   UNL     1       6.623   5.751  16.566  0.00  0.00    +0.000 S 
ATOM      4  O   UNL     1       7.630   5.035  17.317  0.00  0.00    +0.000 OA
ATOM      5  O   UNL     1       6.503   5.619  15.131  0.00  0.00    +0.000 OA
BRANCH   3  12
ATOM      6  C   UNL     1       2.569   2.489  17.431  0.00  0.00    +0.000 C 
ATOM      7  C   UNL     1       3.192   3.841  17.622  0.00  0.00    +0.000 A 
ATOM      8  C   UNL     1       2.514   4.848  18.329  0.00  0.00    +0.000 A 
ATOM      9  C   UNL     1       3.084   6.117  18.503  0.00  0.00    +0.000 A 
ATOM     10  C   UNL     1       2.352   7.200  19.240  0.00  0.00    +0.000 C 
ATOM     11  C   UNL     1       4.349   6.378  17.970  0.00  0.00    +0.000 A 
ATOM     12  C   UNL     1       5.033   5.377  17.273  0.00  0.00    +0.000 A 
ATOM     13  C   UNL     1       4.455   4.117  17.082  0.00  0.00    +0.000 A 
ENDBRANCH   3  12
ENDBRANCH   1   3
BRANCH   1  14
ATOM     14  C   UNL     1       7.884   7.795  17.780  0.00  0.00    +0.000 C 
BRANCH  14  15
ATOM     15  C   UNL     1       8.085   9.307  17.771  0.00  0.00    +0.000 C 
BRANCH  15  16
ATOM     16  C   UNL     1       9.020   9.691  18.917  0.00  0.00    +0.000 C 
BRANCH  16  17
ATOM     17  C   UNL     1       9.419  11.120  18.892  0.00  0.00    +0.000 A 
ATOM     18  C   UNL     1       9.455  12.027  19.928  0.00  0.00    +0.000 A 
ATOM     19  N   UNL     1       9.867  13.198  19.356  0.00  0.00    +0.000 N 
ATOM     20  C   UNL     1      10.064  12.966  18.023  0.00  0.00    +0.000 A 
ATOM     21  N   UNL     1      10.485  13.937  17.208  0.00  0.00    +0.000 N 
ATOM     22  N   UNL     1       9.796  11.724  17.714  0.00  0.00    +0.000 NA
ATOM     23  H   UNL     1      10.014  14.079  19.823  0.00  0.00    +0.000 HD
ATOM     24  H   UNL     1      10.427  14.919  17.446  0.00  0.00    +0.000 HD
ATOM     25  H   UNL     1      10.437  13.742  16.213  0.00  0.00    +0.000 HD
ENDBRANCH  16  17
ENDBRANCH  15  16
ENDBRANCH  14  15
ENDBRANCH   1  14
TORSDOF 6
ENDMDL
MODEL 8
REMARK VINA RESULT:      -7.4      5.320      6.761
REMARK  Name = 
REMARK  8 active torsions:
REMARK  status: ('A' for Active; 'I' for Inactive)
REMARK    1  A    between atoms: C_1  and  C_2
REMARK    2  A    between atoms: C_4  and  C_5
REMARK    3  A    between atoms: C_7  and  S_8
REMARK    4  A    between atoms: S_8  and  N_11
REMARK    5  A    between atoms: N_11  and  C_12
REMARK    6  A    between atoms: C_12  and  C_13
REMARK    7  A    between atoms: C_13  and  C_14
REMARK    8  A    between atoms: C_14  and  C_15
REMARK                            x       y       z     vdW  Elec       q    Type
REMARK                         _______ _______ _______ _____ _____    ______ ____
ROOT
ATOM      1  N   UNL     1       3.039   3.905  19.647  0.00  0.00    +0.000 NA
ATOM      2  H   UNL     1       3.811   4.544  19.827  0.00  0.00    +0.000 HD
ENDROOT
BRANCH   1   3
ATOM      3  S   UNL     1       3.170   3.198  18.110  0.00  0.00    +0.000 S 
ATOM      4  O   UNL     1       2.077   3.671  17.290  0.00  0.00    +0.000 OA
ATOM      5  O   UNL     1       3.412   1.788  18.321  0.00  0.00    +0.000 OA
BRANCH   3  12
ATOM      6  C   UNL     1       6.511   4.348  14.195  0.00  0.00    +0.000 C 
ATOM      7  C   UNL     1       6.182   4.398  15.658  0.00  0.00    +0.000 A 
ATOM      8  C   UNL     1       7.078   4.978  16.572  0.00  0.00    +0.000 A 
ATOM      9  C   UNL     1       6.784   5.021  17.943  0.00  0.00    +0.000 A 
ATOM     10  C   UNL     1       7.749   5.620  18.923  0.00  0.00    +0.000 C 
ATOM     11  C   UNL     1       5.577   4.484  18.400  0.00  0.00    +0.000 A 
ATOM     12  C   UNL     1       4.678   3.914  17.494  0.00  0.00    +0.000 A 
ATOM     13  C   UNL     1       4.982   3.853  16.129  0.00  0.00    +0.000 A 
ENDBRANCH   3  12
ENDBRANCH   1   3
BRANCH   1  14
ATOM     14  C   UNL     1       1.705   4.391  20.027  0.00  0.00    +0.000 C 
BRANCH  14  15
ATOM     15  C   UNL     1       1.750   5.871  20.390  0.00  0.00    +0.000 C 
BRANCH  15  16
ATOM     16  C   UNL     1       2.701   6.589  19.432  0.00  0.00    +0.000 C 
BRANCH  16  17
ATOM     17  C   UNL     1       2.166   7.881  18.937  0.00  0.00    +0.000 A 
ATOM     18  C   UNL     1       2.296   8.449  17.688  0.00  0.00    +0.000 A 
ATOM     19  N   UNL     1       1.639   9.644  17.776  0.00  0.00    +0.000 N 
ATOM     20  C   UNL     1       1.142   9.757  19.046  0.00  0.00    +0.000 A 
ATOM     21  N   UNL     1       0.437  10.828  19.419  0.00  0.00    +0.000 N 
ATOM     22  N   UNL     1       1.450   8.711  19.769  0.00  0.00    +0.000 NA
ATOM     23  H   UNL     1       1.523  10.326  17.042  0.00  0.00    +0.000 HD
ATOM     24  H   UNL     1       0.451  11.702  18.910  0.00  0.00    +0.000 HD
ATOM     25  H   UNL     1       0.256  10.924  20.413  0.00  0.00    +0.000 HD
ENDBRANCH  16  17
ENDBRANCH  15  16
ENDBRANCH  14  15
ENDBRANCH   1  14
TORSDOF 6
ENDMDL
MODEL 9
REMARK VINA RESULT:      -7.4      5.344      6.678
REMARK  Name = 
REMARK  8 active torsions:
REMARK  status: ('A' for Active; 'I' for Inactive)
REMARK    1  A    between atoms: C_1  and  C_2
REMARK    2  A    between atoms: C_4  and  C_5
REMARK    3  A    between atoms: C_7  and  S_8
REMARK    4  A    between atoms: S_8  and  N_11
REMARK    5  A    between atoms: N_11  and  C_12
REMARK    6  A    between atoms: C_12  and  C_13
REMARK    7  A    between atoms: C_13  and  C_14
REMARK    8  A    between atoms: C_14  and  C_15
REMARK                            x       y       z     vdW  Elec       q    Type
REMARK                         _______ _______ _______ _____ _____    ______ ____
ROOT
ATOM      1  N   UNL     1       2.930   4.007  19.758  0.00  0.00    +0.000 NA
ATOM      2  H   UNL     1       3.707   4.644  19.921  0.00  0.00    +0.000 HD
ENDROOT
BRANCH   1   3
ATOM      3  S   UNL     1       3.084   3.218  18.264  0.00  0.00    +0.000 S 
ATOM      4  O   UNL     1       2.032   3.681  17.386  0.00  0.00    +0.000 OA
ATOM      5  O   UNL     1       3.273   1.813  18.553  0.00  0.00    +0.000 OA
BRANCH   3  12
ATOM      6  C   UNL     1       7.706   5.656  18.979  0.00  0.00    +0.000 C 
ATOM      7  C   UNL     1       6.734   4.994  18.046  0.00  0.00    +0.000 A 
ATOM      8  C   UNL     1       7.014   4.899  16.673  0.00  0.00    +0.000 A 
ATOM      9  C   UNL     1       6.108   4.292  15.791  0.00  0.00    +0.000 A 
ATOM     10  C   UNL     1       6.396   4.208  14.321  0.00  0.00    +0.000 C 
ATOM     11  C   UNL     1       4.913   3.768  16.293  0.00  0.00    +0.000 A 
ATOM     12  C   UNL     1       4.633   3.853  17.660  0.00  0.00    +0.000 A 
ATOM     13  C   UNL     1       5.528   4.477  18.535  0.00  0.00    +0.000 A 
ENDBRANCH   3  12
ENDBRANCH   1   3
BRANCH   1  14
ATOM     14  C   UNL     1       1.595   4.528  20.084  0.00  0.00    +0.000 C 
BRANCH  14  15
ATOM     15  C   UNL     1       1.664   6.008  20.444  0.00  0.00    +0.000 C 
BRANCH  15  16
ATOM     16  C   UNL     1       2.633   6.707  19.490  0.00  0.00    +0.000 C 
BRANCH  16  17
ATOM     17  C   UNL     1       2.109   7.991  18.963  0.00  0.00    +0.000 A 
ATOM     18  C   UNL     1       2.283   8.549  17.715  0.00  0.00    +0.000 A 
ATOM     19  N   UNL     1       1.615   9.741  17.767  0.00  0.00    +0.000 N 
ATOM     20  C   UNL     1       1.070   9.861  19.016  0.00  0.00    +0.000 A 
ATOM     21  N   UNL     1       0.344  10.930  19.352  0.00  0.00    +0.000 N 
ATOM     22  N   UNL     1       1.356   8.823  19.760  0.00  0.00    +0.000 NA
ATOM     23  H   UNL     1       1.523  10.415  17.024  0.00  0.00    +0.000 HD
ATOM     24  H   UNL     1       0.373  11.800  18.836  0.00  0.00    +0.000 HD
ATOM     25  H   UNL     1       0.125  11.034  20.338  0.00  0.00    +0.000 HD
ENDBRANCH  16  17
ENDBRANCH  15  16
ENDBRANCH  14  15
ENDBRANCH   1  14
TORSDOF 6
ENDMDL
