MODEL 1
REMARK VINA RESULT:      -9.3      0.000      0.000
REMARK  Name = 
REMARK  4 active torsions:
REMARK  status: ('A' for Active; 'I' for Inactive)
REMARK    1  A    between atoms: C_1  and  N_2
REMARK    2  A    between atoms: N_2  and  C_3
REMARK    3  A    between atoms: N_2  and  C_9
REMARK    4  A    between atoms: C_13  and  C_14
REMARK                            x       y       z     vdW  Elec       q    Type
REMARK                         _______ _______ _______ _____ _____    ______ ____
ROOT
ATOM      1  C   UNL     1      -0.004  10.902  18.981  0.00  0.00    +0.000 A 
ATOM      2  C   UNL     1       0.847  10.254  18.049  0.00  0.00    +0.000 A 
ATOM      3  C   UNL     1       1.519   9.119  18.449  0.00  0.00    +0.000 A 
ATOM      4  O   UNL     1       2.283   8.334  17.654  0.00  0.00    +0.000 OA
ATOM      5  C   UNL     1       2.667   7.301  18.467  0.00  0.00    +0.000 A 
ATOM      6  N   UNL     1       2.229   7.403  19.712  0.00  0.00    +0.000 NA
ATOM      7  C   UNL     1       1.479   8.572  19.708  0.00  0.00    +0.000 A 
ATOM      8  C   UNL     1       0.740   9.262  20.699  0.00  0.00    +0.000 A 
ATOM      9  C   UNL     1       0.723   8.704  21.998  0.00  0.00    +0.000 A 
ATOM     10  C   UNL     1       0.053   9.344  23.029  0.00  0.00    +0.000 A 
ATOM     11  C   UNL     1      -0.560  10.562  22.788  0.00  0.00    +0.000 A 
ATOM     12  C   UNL     1      -0.559  11.108  21.495  0.00  0.00    +0.000 A 
ATOM     13  C   UNL     1       0.037  10.471  20.369  0.00  0.00    +0.000 A 
ENDROOT
BRANCH   5  14
ATOM     14  C   UNL     1       3.472   6.273  17.807  0.00  0.00    +0.000 A 
ATOM     15  C   UNL     1       4.604   6.619  17.043  0.00  0.00    +0.000 A 
ATOM     16  C   UNL     1       5.377   5.645  16.409  0.00  0.00    +0.000 A 
ATOM     17  C   UNL     1       5.026   4.302  16.525  0.00  0.00    +0.000 A 
ATOM     18  C   UNL     1       3.904   3.942  17.268  0.00  0.00    +0.000 A 
ATOM     19  C   UNL     1       3.130   4.919  17.906  0.00  0.00    +0.000 A 
ENDBRANCH   5  14
BRANCH   1  21
ATOM     20  C   UNL     1      -0.489  13.293  18.356  0.00  0.00    +0.000 C 
ATOM     21  N   UNL     1      -0.871  11.887  18.408  0.00  0.00    +0.000 N 
BRANCH  21  22
ATOM     22  C   UNL     1      -2.224  11.644  18.010  0.00  0.00    +0.000 A 
ATOM     23  C   UNL     1      -3.299  11.909  18.874  0.00  0.00    +0.000 A 
ATOM     24  C   UNL     1      -4.626  11.741  18.466  0.00  0.00    +0.000 A 
ATOM     25  C   UNL     1      -4.911  11.323  17.170  0.00  0.00    +0.000 A 
ATOM     26  C   UNL     1      -3.869  11.055  16.290  0.00  0.00    +0.000 A 
ATOM     27  C   UNL     1      -2.541  11.196  16.714  0.00  0.00    +0.000 A 
ENDBRANCH  21  22
ENDBRANCH   1  21
TORSDOF 3
ENDMDL
MODEL 2
REMARK VINA RESULT:      -9.1      3.108      8.431
REMARK  Name = 
REMARK  4 active torsions:
REMARK  status: ('A' for Active; 'I' for Inactive)
REMARK    1  A    between atoms: C_1  and  N_2
REMARK    2  A    between atoms: N_2  and  C_3
REMARK    3  A    between atoms: N_2  and  C_9
REMARK    4  A    between atoms: C_13  and  C_14
REMARK                            x       y       z     vdW  Elec       q    Type
REMARK                         _______ _______ _______ _____ _____    ______ ____
ROOT
ATOM      1  C   UNL     1       3.531   5.601  18.353  0.00  0.00    +0.000 A 
ATOM      2  C   UNL     1       3.087   6.938  18.513  0.00  0.00    +0.000 A 
ATOM      3  C   UNL     1       2.153   7.210  19.490  0.00  0.00    +0.000 A 
ATOM      4  O   UNL     1       1.706   8.440  19.833  0.00  0.00    +0.000 OA
ATOM      5  C   UNL     1       0.864   8.213  20.888  0.00  0.00    +0.000 A 
ATOM      6  N   UNL     1       0.726   6.935  21.203  0.00  0.00    +0.000 NA
ATOM      7  C   UNL     1       1.563   6.278  20.309  0.00  0.00    +0.000 A 
ATOM      8  C   UNL     1       1.887   4.918  20.094  0.00  0.00    +0.000 A 
ATOM      9  C   UNL     1       1.257   3.964  20.926  0.00  0.00    +0.000 A 
ATOM     10  C   UNL     1       1.497   2.610  20.749  0.00  0.00    +0.000 A 
ATOM     11  C   UNL     1       2.321   2.195  19.716  0.00  0.00    +0.000 A 
ATOM     12  C   UNL     1       2.960   3.141  18.900  0.00  0.00    +0.000 A 
ATOM     13  C   UNL     1       2.829   4.549  19.072  0.00  0.00    +0.000 A 
ENDROOT
BRANCH   5  14
ATOM     14  C   UNL     1       0.288   9.421  21.479  0.00  0.00    +0.000 A 
ATOM     15  C   UNL     1       0.489  10.684  20.889  0.00  0.00    +0.000 A 
ATOM     16  C   UNL     1      -0.056  11.842  21.447  0.00  0.00    +0.000 A 
ATOM     17  C   UNL     1      -0.810  11.755  22.614  0.00  0.00    +0.000 A 
ATOM     18  C   UNL     1      -1.012  10.516  23.217  0.00  0.00    +0.000 A 
ATOM     19  C   UNL     1      -0.468   9.355  22.657  0.00  0.00    +0.000 A 
ENDBRANCH   5  14
BRANCH   1  21
ATOM     20  C   UNL     1       4.706   4.536  16.396  0.00  0.00    +0.000 C 
ATOM     21  N   UNL     1       4.691   5.455  17.528  0.00  0.00    +0.000 N 
BRANCH  21  22
ATOM     22  C   UNL     1       5.970   6.029  17.818  0.00  0.00    +0.000 A 
ATOM     23  C   UNL     1       6.416   7.190  17.165  0.00  0.00    +0.000 A 
ATOM     24  C   UNL     1       7.633   7.795  17.494  0.00  0.00    +0.000 A 
ATOM     25  C   UNL     1       8.426   7.264  18.506  0.00  0.00    +0.000 A 
ATOM     26  C   UNL     1       8.012   6.117  19.174  0.00  0.00    +0.000 A 
ATOM     27  C   UNL     1       6.807   5.498  18.818  0.00  0.00    +0.000 A 
ENDBRANCH  21  22
ENDBRANCH   1  21
TORSDOF 3
ENDMDL
MODEL 3
REMARK VINA RESULT:      -9.0      0.634      1.016
REMARK  Name = 
REMARK  4 active torsions:
REMARK  status: ('A' for Active; 'I' for Inactive)
REMARK    1  A    between atoms: C_1  and  N_2
REMARK    2  A    between atoms: N_2  and  C_3
REMARK    3  A    between atoms: N_2  and  C_9
REMARK    4  A    between atoms: C_13  and  C_14
REMARK                            x       y       z     vdW  Elec       q    Type
REMARK                         _______ _______ _______ _____ _____    ______ ____
ROOT
ATOM      1  C   UNL     1      -0.041  10.873  19.114  0.00  0.00    +0.000 A 
ATOM      2  C   UNL     1       0.869  10.150  18.302  0.00  0.00    +0.000 A 
ATOM      3  C   UNL     1       1.490   9.041  18.835  0.00  0.00    +0.000 A 
ATOM      4  O   UNL     1       2.301   8.192  18.162  0.00  0.00    +0.000 OA
ATOM      5  C   UNL     1       2.604   7.217  19.075  0.00  0.00    +0.000 A 
ATOM      6  N   UNL     1       2.071   7.414  20.271  0.00  0.00    +0.000 NA
ATOM      7  C   UNL     1       1.342   8.587  20.123  0.00  0.00    +0.000 A 
ATOM      8  C   UNL     1       0.539   9.355  21.000  0.00  0.00    +0.000 A 
ATOM      9  C   UNL     1       0.412   8.894  22.330  0.00  0.00    +0.000 A 
ATOM     10  C   UNL     1      -0.327   9.614  23.256  0.00  0.00    +0.000 A 
ATOM     11  C   UNL     1      -0.900  10.818  22.880  0.00  0.00    +0.000 A 
ATOM     12  C   UNL     1      -0.788  11.268  21.555  0.00  0.00    +0.000 A 
ATOM     13  C   UNL     1      -0.117  10.545  20.529  0.00  0.00    +0.000 A 
ENDROOT
BRANCH   5  14
ATOM     14  C   UNL     1       3.441   6.136  18.557  0.00  0.00    +0.000 A 
ATOM     15  C   UNL     1       3.722   4.998  19.339  0.00  0.00    +0.000 A 
ATOM     16  C   UNL     1       4.521   3.962  18.853  0.00  0.00    +0.000 A 
ATOM     17  C   UNL     1       5.059   4.049  17.572  0.00  0.00    +0.000 A 
ATOM     18  C   UNL     1       4.801   5.171  16.787  0.00  0.00    +0.000 A 
ATOM     19  C   UNL     1       3.998   6.209  17.274  0.00  0.00    +0.000 A 
ENDBRANCH   5  14
BRANCH   1  21
ATOM     20  C   UNL     1      -0.408  13.202  18.229  0.00  0.00    +0.000 C 
ATOM     21  N   UNL     1      -0.845  11.822  18.406  0.00  0.00    +0.000 N 
BRANCH  21  22
ATOM     22  C   UNL     1      -2.188  11.585  17.972  0.00  0.00    +0.000 A 
ATOM     23  C   UNL     1      -3.285  11.863  18.804  0.00  0.00    +0.000 A 
ATOM     24  C   UNL     1      -4.602  11.700  18.360  0.00  0.00    +0.000 A 
ATOM     25  C   UNL     1      -4.853  11.275  17.059  0.00  0.00    +0.000 A 
ATOM     26  C   UNL     1      -3.789  10.994  16.211  0.00  0.00    +0.000 A 
ATOM     27  C   UNL     1      -2.472  11.130  16.671  0.00  0.00    +0.000 A 
ENDBRANCH  21  22
ENDBRANCH   1  21
TORSDOF 3
ENDMDL
MODEL 4
REMARK VINA RESULT:      -8.9      2.804      8.957
REMARK  Name = 
REMARK  4 active torsions:
REMARK  status: ('A' for Active; 'I' for Inactive)
REMARK    1  A    between atoms: C_1  and  N_2
REMARK    2  A    between atoms: N_2  and  C_3
REMARK    3  A    between atoms: N_2  and  C_9
REMARK    4  A    between atoms: C_13  and  C_14
REMARK                            x       y       z     vdW  Elec       q    Type
REMARK                         _______ _______ _______ _____ _____    ______ ____
ROOT
ATOM      1  C   UNL     1       4.968   4.920  16.817  0.00  0.00    +0.000 A 
ATOM      2  C   UNL     1       4.631   6.297  16.794  0.00  0.00    +0.000 A 
ATOM      3  C   UNL     1       3.581   6.732  17.573  0.00  0.00    +0.000 A 
ATOM      4  O   UNL     1       3.201   8.021  17.739  0.00  0.00    +0.000 OA
ATOM      5  C   UNL     1       2.182   7.960  18.650  0.00  0.00    +0.000 A 
ATOM      6  N   UNL     1       1.876   6.731  19.036  0.00  0.00    +0.000 NA
ATOM      7  C   UNL     1       2.781   5.930  18.351  0.00  0.00    +0.000 A 
ATOM      8  C   UNL     1       3.008   4.534  18.302  0.00  0.00    +0.000 A 
ATOM      9  C   UNL     1       2.165   3.715  19.087  0.00  0.00    +0.000 A 
ATOM     10  C   UNL     1       2.303   2.335  19.060  0.00  0.00    +0.000 A 
ATOM     11  C   UNL     1       3.241   1.762  18.218  0.00  0.00    +0.000 A 
ATOM     12  C   UNL     1       4.089   2.575  17.450  0.00  0.00    +0.000 A 
ATOM     13  C   UNL     1       4.064   3.998  17.487  0.00  0.00    +0.000 A 
ENDROOT
BRANCH   5  14
ATOM     14  C   UNL     1       1.633   9.259  19.038  0.00  0.00    +0.000 A 
ATOM     15  C   UNL     1       0.845   9.395  20.199  0.00  0.00    +0.000 A 
ATOM     16  C   UNL     1       0.316  10.631  20.577  0.00  0.00    +0.000 A 
ATOM     17  C   UNL     1       0.564  11.755  19.793  0.00  0.00    +0.000 A 
ATOM     18  C   UNL     1       1.332  11.638  18.637  0.00  0.00    +0.000 A 
ATOM     19  C   UNL     1       1.864  10.399  18.260  0.00  0.00    +0.000 A 
ENDBRANCH   5  14
BRANCH   1  21
ATOM     20  C   UNL     1       7.451   4.540  17.007  0.00  0.00    +0.000 C 
ATOM     21  N   UNL     1       6.228   4.607  16.214  0.00  0.00    +0.000 N 
BRANCH  21  22
ATOM     22  C   UNL     1       6.452   4.511  14.804  0.00  0.00    +0.000 A 
ATOM     23  C   UNL     1       7.482   5.232  14.177  0.00  0.00    +0.000 A 
ATOM     24  C   UNL     1       7.751   5.089  12.812  0.00  0.00    +0.000 A 
ATOM     25  C   UNL     1       7.007   4.199  12.042  0.00  0.00    +0.000 A 
ATOM     26  C   UNL     1       5.983   3.469  12.634  0.00  0.00    +0.000 A 
ATOM     27  C   UNL     1       5.698   3.640  13.996  0.00  0.00    +0.000 A 
ENDBRANCH  21  22
ENDBRANCH   1  21
TORSDOF 3
ENDMDL
MODEL 5
REMARK VINA RESULT:      -8.7      2.936      8.498
REMARK  Name = 
REMARK  4 active torsions:
REMARK  status: ('A' for Active; 'I' for Inactive)
REMARK    1  A    between atoms: C_1  and  N_2
REMARK    2  A    between atoms: N_2  and  C_3
REMARK    3  A    between atoms: N_2  and  C_9
REMARK    4  A    between atoms: C_13  and  C_14
REMARK                            x       y       z     vdW  Elec       q    Type
REMARK                         _______ _______ _______ _____ _____    ______ ____
ROOT
ATOM      1  C   UNL     1       4.109   5.388  18.906  0.00  0.00    +0.000 A 
ATOM      2  C   UNL     1       3.684   6.735  19.025  0.00  0.00    +0.000 A 
ATOM      3  C   UNL     1       2.548   7.006  19.757  0.00  0.00    +0.000 A 
ATOM      4  O   UNL     1       2.071   8.239  20.048  0.00  0.00    +0.000 OA
ATOM      5  C   UNL     1       0.988   8.003  20.851  0.00  0.00    +0.000 A 
ATOM      6  N   UNL     1       0.734   6.719  21.052  0.00  0.00    +0.000 NA
ATOM      7  C   UNL     1       1.743   6.066  20.355  0.00  0.00    +0.000 A 
ATOM      8  C   UNL     1       2.066   4.703  20.152  0.00  0.00    +0.000 A 
ATOM      9  C   UNL     1       1.218   3.743  20.751  0.00  0.00    +0.000 A 
ATOM     10  C   UNL     1       1.449   2.388  20.564  0.00  0.00    +0.000 A 
ATOM     11  C   UNL     1       2.488   1.983  19.743  0.00  0.00    +0.000 A 
ATOM     12  C   UNL     1       3.340   2.935  19.161  0.00  0.00    +0.000 A 
ATOM     13  C   UNL     1       3.217   4.338  19.373  0.00  0.00    +0.000 A 
ENDROOT
BRANCH   5  14
ATOM     14  C   UNL     1       0.325   9.208  21.349  0.00  0.00    +0.000 A 
ATOM     15  C   UNL     1       0.217  10.360  20.546  0.00  0.00    +0.000 A 
ATOM     16  C   UNL     1      -0.413  11.515  21.014  0.00  0.00    +0.000 A 
ATOM     17  C   UNL     1      -0.945  11.537  22.300  0.00  0.00    +0.000 A 
ATOM     18  C   UNL     1      -0.839  10.410  23.113  0.00  0.00    +0.000 A 
ATOM     19  C   UNL     1      -0.209   9.252  22.643  0.00  0.00    +0.000 A 
ENDBRANCH   5  14
BRANCH   1  21
ATOM     20  C   UNL     1       6.608   5.468  19.210  0.00  0.00    +0.000 C 
ATOM     21  N   UNL     1       5.431   5.226  18.383  0.00  0.00    +0.000 N 
BRANCH  21  22
ATOM     22  C   UNL     1       5.736   5.000  17.002  0.00  0.00    +0.000 A 
ATOM     23  C   UNL     1       7.007   5.289  16.478  0.00  0.00    +0.000 A 
ATOM     24  C   UNL     1       7.333   5.004  15.148  0.00  0.00    +0.000 A 
ATOM     25  C   UNL     1       6.398   4.400  14.313  0.00  0.00    +0.000 A 
ATOM     26  C   UNL     1       5.132   4.099  14.803  0.00  0.00    +0.000 A 
ATOM     27  C   UNL     1       4.802   4.415  16.128  0.00  0.00    +0.000 A 
ENDBRANCH  21  22
ENDBRANCH   1  21
TORSDOF 3
ENDMDL
MODEL 6
REMARK VINA RESULT:      -8.7      3.001      8.532
REMARK  Name = 
REMARK  4 active torsions:
REMARK  status: ('A' for Active; 'I' for Inactive)
REMARK    1  A    between atoms: C_1  and  N_2
REMARK    2  A    between atoms: N_2  and  C_3
REMARK    3  A    between atoms: N_2  and  C_9
REMARK    4  A    between atoms: C_13  and  C_14
REMARK                            x       y       z     vdW  Elec       q    Type
REMARK                         _______ _______ _______ _____ _____    ______ ____
ROOT
ATOM      1  C   UNL     1       4.124   5.339  18.849  0.00  0.00    +0.000 A 
ATOM      2  C   UNL     1       3.727   6.693  18.984  0.00  0.00    +0.000 A 
ATOM      3  C   UNL     1       2.597   6.979  19.720  0.00  0.00    +0.000 A 
ATOM      4  O   UNL     1       2.146   8.218  20.025  0.00  0.00    +0.000 OA
ATOM      5  C   UNL     1       1.058   7.995  20.826  0.00  0.00    +0.000 A 
ATOM      6  N   UNL     1       0.779   6.714  21.012  0.00  0.00    +0.000 NA
ATOM      7  C   UNL     1       1.774   6.049  20.307  0.00  0.00    +0.000 A 
ATOM      8  C   UNL     1       2.068   4.682  20.088  0.00  0.00    +0.000 A 
ATOM      9  C   UNL     1       1.202   3.733  20.677  0.00  0.00    +0.000 A 
ATOM     10  C   UNL     1       1.404   2.376  20.474  0.00  0.00    +0.000 A 
ATOM     11  C   UNL     1       2.435   1.959  19.649  0.00  0.00    +0.000 A 
ATOM     12  C   UNL     1       3.306   2.900  19.077  0.00  0.00    +0.000 A 
ATOM     13  C   UNL     1       3.212   4.302  19.305  0.00  0.00    +0.000 A 
ENDROOT
BRANCH   5  14
ATOM     14  C   UNL     1       0.420   9.207  21.338  0.00  0.00    +0.000 A 
ATOM     15  C   UNL     1      -0.201   9.221  22.603  0.00  0.00    +0.000 A 
ATOM     16  C   UNL     1      -0.814  10.373  23.099  0.00  0.00    +0.000 A 
ATOM     17  C   UNL     1      -0.820  11.535  22.331  0.00  0.00    +0.000 A 
ATOM     18  C   UNL     1      -0.220  11.538  21.074  0.00  0.00    +0.000 A 
ATOM     19  C   UNL     1       0.396  10.383  20.578  0.00  0.00    +0.000 A 
ENDBRANCH   5  14
BRANCH   1  21
ATOM     20  C   UNL     1       6.626   5.445  19.127  0.00  0.00    +0.000 C 
ATOM     21  N   UNL     1       5.443   5.157  18.324  0.00  0.00    +0.000 N 
BRANCH  21  22
ATOM     22  C   UNL     1       5.738   4.863  16.954  0.00  0.00    +0.000 A 
ATOM     23  C   UNL     1       4.735   4.443  16.065  0.00  0.00    +0.000 A 
ATOM     24  C   UNL     1       5.002   4.223  14.709  0.00  0.00    +0.000 A 
ATOM     25  C   UNL     1       6.281   4.440  14.205  0.00  0.00    +0.000 A 
ATOM     26  C   UNL     1       7.294   4.858  15.059  0.00  0.00    +0.000 A 
ATOM     27  C   UNL     1       7.027   5.048  16.422  0.00  0.00    +0.000 A 
ENDBRANCH  21  22
ENDBRANCH   1  21
TORSDOF 3
ENDMDL
MODEL 7
REMARK VINA RESULT:      -8.6      2.649      8.814
REMARK  Name = 
REMARK  4 active torsions:
REMARK  status: ('A' for Active; 'I' for Inactive)
REMARK    1  A    between atoms: C_1  and  N_2
REMARK    2  A    between atoms: N_2  and  C_3
REMARK    3  A    between atoms: N_2  and  C_9
REMARK    4  A    between atoms: C_13  and  C_14
REMARK                            x       y       z     vdW  Elec       q    Type
REMARK                         _______ _______ _______ _____ _____    ______ ____
ROOT
ATOM      1  C   UNL     1       4.796   4.949  17.172  0.00  0.00    +0.000 A 
ATOM      2  C   UNL     1       4.401   6.309  17.240  0.00  0.00    +0.000 A 
ATOM      3  C   UNL     1       3.349   6.649  18.063  0.00  0.00    +0.000 A 
ATOM      4  O   UNL     1       2.919   7.907  18.315  0.00  0.00    +0.000 OA
ATOM      5  C   UNL     1       1.922   7.747  19.239  0.00  0.00    +0.000 A 
ATOM      6  N   UNL     1       1.676   6.484  19.553  0.00  0.00    +0.000 NA
ATOM      7  C   UNL     1       2.600   5.767  18.804  0.00  0.00    +0.000 A 
ATOM      8  C   UNL     1       2.885   4.388  18.664  0.00  0.00    +0.000 A 
ATOM      9  C   UNL     1       2.094   3.486  19.412  0.00  0.00    +0.000 A 
ATOM     10  C   UNL     1       2.289   2.118  19.298  0.00  0.00    +0.000 A 
ATOM     11  C   UNL     1       3.233   1.639  18.405  0.00  0.00    +0.000 A 
ATOM     12  C   UNL     1       4.031   2.534  17.674  0.00  0.00    +0.000 A 
ATOM     13  C   UNL     1       3.946   3.949  17.799  0.00  0.00    +0.000 A 
ENDROOT
BRANCH   5  14
ATOM     14  C   UNL     1       1.327   8.994  19.716  0.00  0.00    +0.000 A 
ATOM     15  C   UNL     1       1.023  10.041  18.823  0.00  0.00    +0.000 A 
ATOM     16  C   UNL     1       0.456  11.236  19.271  0.00  0.00    +0.000 A 
ATOM     17  C   UNL     1       0.186  11.406  20.626  0.00  0.00    +0.000 A 
ATOM     18  C   UNL     1       0.488  10.385  21.525  0.00  0.00    +0.000 A 
ATOM     19  C   UNL     1       1.055   9.187  21.076  0.00  0.00    +0.000 A 
ENDBRANCH   5  14
BRANCH   1  21
ATOM     20  C   UNL     1       7.311   4.827  17.266  0.00  0.00    +0.000 C 
ATOM     21  N   UNL     1       6.056   4.728  16.529  0.00  0.00    +0.000 N 
BRANCH  21  22
ATOM     22  C   UNL     1       6.231   4.576  15.116  0.00  0.00    +0.000 A 
ATOM     23  C   UNL     1       7.332   5.141  14.451  0.00  0.00    +0.000 A 
ATOM     24  C   UNL     1       7.546   4.935  13.084  0.00  0.00    +0.000 A 
ATOM     25  C   UNL     1       6.672   4.138  12.351  0.00  0.00    +0.000 A 
ATOM     26  C   UNL     1       5.575   3.563  12.982  0.00  0.00    +0.000 A 
ATOM     27  C   UNL     1       5.349   3.797  14.345  0.00  0.00    +0.000 A 
ENDBRANCH  21  22
ENDBRANCH   1  21
TORSDOF 3
ENDMDL
MODEL 8
REMARK VINA RESULT:      -8.5      2.471      8.345
REMARK  Name = 
REMARK  4 active torsions:
REMARK  status: ('A' for Active; 'I' for Inactive)
REMARK    1  A    between atoms: C_1  and  N_2
REMARK    2  A    between atoms: N_2  and  C_3
REMARK    3  A    between atoms: N_2  and  C_9
REMARK    4  A    between atoms: C_13  and  C_14
REMARK                            x       y       z     vdW  Elec       q    Type
REMARK                         _______ _______ _______ _____ _____    ______ ____
ROOT
ATOM      1  C   UNL     1       4.463   5.682  17.964  0.00  0.00    +0.000 A 
ATOM      2  C   UNL     1       4.080   6.949  17.455  0.00  0.00    +0.000 A 
ATOM      3  C   UNL     1       3.055   7.627  18.079  0.00  0.00    +0.000 A 
ATOM      4  O   UNL     1       2.642   8.881  17.780  0.00  0.00    +0.000 OA
ATOM      5  C   UNL     1       1.670   9.148  18.706  0.00  0.00    +0.000 A 
ATOM      6  N   UNL     1       1.425   8.145  19.535  0.00  0.00    +0.000 NA
ATOM      7  C   UNL     1       2.321   7.159  19.142  0.00  0.00    +0.000 A 
ATOM      8  C   UNL     1       2.592   5.847  19.597  0.00  0.00    +0.000 A 
ATOM      9  C   UNL     1       1.815   5.365  20.676  0.00  0.00    +0.000 A 
ATOM     10  C   UNL     1       1.997   4.075  21.151  0.00  0.00    +0.000 A 
ATOM     11  C   UNL     1       2.911   3.243  20.527  0.00  0.00    +0.000 A 
ATOM     12  C   UNL     1       3.694   3.726  19.466  0.00  0.00    +0.000 A 
ATOM     13  C   UNL     1       3.624   5.061  18.978  0.00  0.00    +0.000 A 
ENDROOT
BRANCH   5  14
ATOM     14  C   UNL     1       1.099  10.491  18.620  0.00  0.00    +0.000 A 
ATOM     15  C   UNL     1      -0.297  10.686  18.605  0.00  0.00    +0.000 A 
ATOM     16  C   UNL     1      -0.851  11.964  18.522  0.00  0.00    +0.000 A 
ATOM     17  C   UNL     1      -0.015  13.075  18.447  0.00  0.00    +0.000 A 
ATOM     18  C   UNL     1       1.368  12.902  18.450  0.00  0.00    +0.000 A 
ATOM     19  C   UNL     1       1.923  11.620  18.536  0.00  0.00    +0.000 A 
ENDBRANCH   5  14
BRANCH   1  21
ATOM     20  C   UNL     1       6.889   5.087  18.290  0.00  0.00    +0.000 C 
ATOM     21  N   UNL     1       5.702   5.184  17.449  0.00  0.00    +0.000 N 
BRANCH  21  22
ATOM     22  C   UNL     1       5.955   4.913  16.066  0.00  0.00    +0.000 A 
ATOM     23  C   UNL     1       7.151   5.317  15.449  0.00  0.00    +0.000 A 
ATOM     24  C   UNL     1       7.435   4.992  14.118  0.00  0.00    +0.000 A 
ATOM     25  C   UNL     1       6.534   4.234  13.376  0.00  0.00    +0.000 A 
ATOM     26  C   UNL     1       5.343   3.818  13.959  0.00  0.00    +0.000 A 
ATOM     27  C   UNL     1       5.051   4.172  15.283  0.00  0.00    +0.000 A 
ENDBRANCH  21  22
ENDBRANCH   1  21
TORSDOF 3
ENDMDL
MODEL 9
REMARK VINA RESULT:      -8.5      2.483      8.328
REMARK  Name = 
REMARK  4 active torsions:
REMARK  status: ('A' for Active; 'I' for Inactive)
REMARK    1  A    between atoms: C_1  and  N_2
REMARK    2  A    between atoms: N_2  and  C_3
REMARK    3  A    between atoms: N_2  and  C_9
REMARK    4  A    between atoms: C_13  and  C_14
REMARK                            x       y       z     vdW  Elec       q    Type
REMARK                         _______ _______ _______ _____ _____    ______ ____
ROOT
ATOM      1  C   UNL     1       4.627   5.735  17.905  0.00  0.00    +0.000 A 
ATOM      2  C   UNL     1       4.198   6.988  17.399  0.00  0.00    +0.000 A 
ATOM      3  C   UNL     1       3.149   7.628  18.023  0.00  0.00    +0.000 A 
ATOM      4  O   UNL     1       2.691   8.866  17.726  0.00  0.00    +0.000 OA
ATOM      5  C   UNL     1       1.710   9.097  18.652  0.00  0.00    +0.000 A 
ATOM      6  N   UNL     1       1.500   8.083  19.479  0.00  0.00    +0.000 NA
ATOM      7  C   UNL     1       2.432   7.132  19.085  0.00  0.00    +0.000 A 
ATOM      8  C   UNL     1       2.750   5.829  19.537  0.00  0.00    +0.000 A 
ATOM      9  C   UNL     1       1.991   5.317  20.615  0.00  0.00    +0.000 A 
ATOM     10  C   UNL     1       2.218   4.034  21.088  0.00  0.00    +0.000 A 
ATOM     11  C   UNL     1       3.163   3.237  20.462  0.00  0.00    +0.000 A 
ATOM     12  C   UNL     1       3.928   3.750  19.403  0.00  0.00    +0.000 A 
ATOM     13  C   UNL     1       3.810   5.083  18.917  0.00  0.00    +0.000 A 
ENDROOT
BRANCH   5  14
ATOM     14  C   UNL     1       1.090  10.419  18.569  0.00  0.00    +0.000 A 
ATOM     15  C   UNL     1       1.876  11.588  18.546  0.00  0.00    +0.000 A 
ATOM     16  C   UNL     1       1.293  12.854  18.468  0.00  0.00    +0.000 A 
ATOM     17  C   UNL     1      -0.093  12.972  18.414  0.00  0.00    +0.000 A 
ATOM     18  C   UNL     1      -0.887  11.827  18.445  0.00  0.00    +0.000 A 
ATOM     19  C   UNL     1      -0.302  10.558  18.522  0.00  0.00    +0.000 A 
ENDBRANCH   5  14
BRANCH   1  21
ATOM     20  C   UNL     1       7.106   5.383  18.178  0.00  0.00    +0.000 C 
ATOM     21  N   UNL     1       5.883   5.284  17.389  0.00  0.00    +0.000 N 
BRANCH  21  22
ATOM     22  C   UNL     1       6.105   4.875  16.036  0.00  0.00    +0.000 A 
ATOM     23  C   UNL     1       5.127   4.166  15.317  0.00  0.00    +0.000 A 
ATOM     24  C   UNL     1       5.309   3.826  13.972  0.00  0.00    +0.000 A 
ATOM     25  C   UNL     1       6.469   4.208  13.305  0.00  0.00    +0.000 A 
ATOM     26  C   UNL     1       7.454   4.912  13.988  0.00  0.00    +0.000 A 
ATOM     27  C   UNL     1       7.279   5.223  15.343  0.00  0.00    +0.000 A 
ENDBRANCH  21  22
ENDBRANCH   1  21
TORSDOF 3
ENDMDL
