MODEL 1
REMARK VINA RESULT:      -6.9      0.000      0.000
REMARK  Name = 
REMARK  5 active torsions:
REMARK  status: ('A' for Active; 'I' for Inactive)
REMARK    1  A    between atoms: C_1  and  C_2
REMARK    2  A    between atoms: C_3  and  O_4
REMARK    3  A    between atoms: C_8  and  C_9
REMARK    4  A    between atoms: C_11  and  C_12
REMARK    5  A    between atoms: C_11  and  C_13
REMARK                            x       y       z     vdW  Elec       q    Type
REMARK                         _______ _______ _______ _____ _____    ______ ____
ROOT
ATOM      1  C   UNL     1       0.860   4.008  20.163  0.00  0.00    +0.000 C 
ATOM      2  C   UNL     1       1.931   3.994  19.101  0.00  0.00    +0.000 A 
ATOM      3  C   UNL     1       2.058   2.956  18.166  0.00  0.00    +0.000 A 
ATOM      4  C   UNL     1       3.050   2.984  17.188  0.00  0.00    +0.000 A 
ATOM      5  C   UNL     1       3.959   4.041  17.121  0.00  0.00    +0.000 A 
ATOM      6  C   UNL     1       3.883   5.066  18.070  0.00  0.00    +0.000 A 
ATOM      7  C   UNL     1       2.857   5.073  19.040  0.00  0.00    +0.000 A 
ATOM      8  C   UNL     1       2.744   6.222  20.016  0.00  0.00    +0.000 C 
ATOM      9  O   UNL     1       4.785   6.103  18.102  0.00  0.00    +0.000 OA
ATOM     10  C   UNL     1       6.004   5.928  17.357  0.00  0.00    +0.000 C 
ATOM     11  C   UNL     1       6.976   5.045  18.159  0.00  0.00    +0.000 C 
ATOM     12  C   UNL     1       6.632   7.323  17.216  0.00  0.00    +0.000 C 
ATOM     13  C   UNL     1       5.701   5.379  15.959  0.00  0.00    +0.000 C 
ATOM     14  C   UNL     1       5.015   4.027  16.054  0.00  0.00    +0.000 C 
ENDROOT
BRANCH   3  15
ATOM     15  O   UNL     1       1.250   1.855  18.117  0.00  0.00    +0.000 OA
ATOM     16  H   UNL     1       0.622   1.862  18.850  0.00  0.00    +0.000 HD
ENDBRANCH   3  15
TORSDOF 1
ENDMDL
MODEL 2
REMARK VINA RESULT:      -6.8      0.945      1.017
REMARK  Name = 
REMARK  5 active torsions:
REMARK  status: ('A' for Active; 'I' for Inactive)
REMARK    1  A    between atoms: C_1  and  C_2
REMARK    2  A    between atoms: C_3  and  O_4
REMARK    3  A    between atoms: C_8  and  C_9
REMARK    4  A    between atoms: C_11  and  C_12
REMARK    5  A    between atoms: C_11  and  C_13
REMARK                            x       y       z     vdW  Elec       q    Type
REMARK                         _______ _______ _______ _____ _____    ______ ____
ROOT
ATOM      1  C   UNL     1       1.308   4.122  19.268  0.00  0.00    +0.000 C 
ATOM      2  C   UNL     1       2.604   4.120  18.498  0.00  0.00    +0.000 A 
ATOM      3  C   UNL     1       3.035   3.021  17.739  0.00  0.00    +0.000 A 
ATOM      4  C   UNL     1       4.232   3.060  17.027  0.00  0.00    +0.000 A 
ATOM      5  C   UNL     1       5.048   4.191  17.061  0.00  0.00    +0.000 A 
ATOM      6  C   UNL     1       4.665   5.284  17.847  0.00  0.00    +0.000 A 
ATOM      7  C   UNL     1       3.434   5.276  18.540  0.00  0.00    +0.000 A 
ATOM      8  C   UNL     1       3.000   6.489  19.328  0.00  0.00    +0.000 C 
ATOM      9  O   UNL     1       5.452   6.404  17.977  0.00  0.00    +0.000 OA
ATOM     10  C   UNL     1       6.826   6.285  17.566  0.00  0.00    +0.000 C 
ATOM     11  C   UNL     1       7.634   5.577  18.667  0.00  0.00    +0.000 C 
ATOM     12  C   UNL     1       7.363   7.717  17.425  0.00  0.00    +0.000 C 
ATOM     13  C   UNL     1       6.917   5.587  16.204  0.00  0.00    +0.000 C 
ATOM     14  C   UNL     1       6.332   4.188  16.283  0.00  0.00    +0.000 C 
ENDROOT
BRANCH   3  15
ATOM     15  O   UNL     1       2.348   1.845  17.622  0.00  0.00    +0.000 OA
ATOM     16  H   UNL     1       1.660   1.785  18.297  0.00  0.00    +0.000 HD
ENDBRANCH   3  15
TORSDOF 1
ENDMDL
MODEL 3
REMARK VINA RESULT:      -6.7      1.971      4.748
REMARK  Name = 
REMARK  5 active torsions:
REMARK  status: ('A' for Active; 'I' for Inactive)
REMARK    1  A    between atoms: C_1  and  C_2
REMARK    2  A    between atoms: C_3  and  O_4
REMARK    3  A    between atoms: C_8  and  C_9
REMARK    4  A    between atoms: C_11  and  C_12
REMARK    5  A    between atoms: C_11  and  C_13
REMARK                            x       y       z     vdW  Elec       q    Type
REMARK                         _______ _______ _______ _____ _____    ______ ____
ROOT
ATOM      1  C   UNL     1       7.425   7.426  17.344  0.00  0.00    +0.000 C 
ATOM      2  C   UNL     1       6.393   6.328  17.343  0.00  0.00    +0.000 A 
ATOM      3  C   UNL     1       5.454   6.168  16.312  0.00  0.00    +0.000 A 
ATOM      4  C   UNL     1       4.524   5.131  16.336  0.00  0.00    +0.000 A 
ATOM      5  C   UNL     1       4.489   4.227  17.399  0.00  0.00    +0.000 A 
ATOM      6  C   UNL     1       5.383   4.390  18.462  0.00  0.00    +0.000 A 
ATOM      7  C   UNL     1       6.359   5.411  18.431  0.00  0.00    +0.000 A 
ATOM      8  C   UNL     1       7.364   5.532  19.553  0.00  0.00    +0.000 C 
ATOM      9  O   UNL     1       5.361   3.576  19.569  0.00  0.00    +0.000 OA
ATOM     10  C   UNL     1       4.181   2.774  19.764  0.00  0.00    +0.000 C 
ATOM     11  C   UNL     1       3.063   3.642  20.367  0.00  0.00    +0.000 C 
ATOM     12  C   UNL     1       4.554   1.694  20.790  0.00  0.00    +0.000 C 
ATOM     13  C   UNL     1       3.777   2.092  18.452  0.00  0.00    +0.000 C 
ATOM     14  C   UNL     1       3.466   3.128  17.387  0.00  0.00    +0.000 C 
ENDROOT
BRANCH   3  15
ATOM     15  O   UNL     1       5.361   6.981  15.217  0.00  0.00    +0.000 OA
ATOM     16  H   UNL     1       4.760   7.717  15.391  0.00  0.00    +0.000 HD
ENDBRANCH   3  15
TORSDOF 1
ENDMDL
MODEL 4
REMARK VINA RESULT:      -6.5      1.738      2.287
REMARK  Name = 
REMARK  5 active torsions:
REMARK  status: ('A' for Active; 'I' for Inactive)
REMARK    1  A    between atoms: C_1  and  C_2
REMARK    2  A    between atoms: C_3  and  O_4
REMARK    3  A    between atoms: C_8  and  C_9
REMARK    4  A    between atoms: C_11  and  C_12
REMARK    5  A    between atoms: C_11  and  C_13
REMARK                            x       y       z     vdW  Elec       q    Type
REMARK                         _______ _______ _______ _____ _____    ______ ____
ROOT
ATOM      1  C   UNL     1       1.811   1.927  19.299  0.00  0.00    +0.000 C 
ATOM      2  C   UNL     1       2.617   3.087  18.770  0.00  0.00    +0.000 A 
ATOM      3  C   UNL     1       2.101   4.013  17.851  0.00  0.00    +0.000 A 
ATOM      4  C   UNL     1       2.870   5.083  17.396  0.00  0.00    +0.000 A 
ATOM      5  C   UNL     1       4.185   5.255  17.831  0.00  0.00    +0.000 A 
ATOM      6  C   UNL     1       4.739   4.320  18.712  0.00  0.00    +0.000 A 
ATOM      7  C   UNL     1       3.958   3.255  19.215  0.00  0.00    +0.000 A 
ATOM      8  C   UNL     1       4.548   2.292  20.220  0.00  0.00    +0.000 C 
ATOM      9  O   UNL     1       6.047   4.392  19.130  0.00  0.00    +0.000 OA
ATOM     10  C   UNL     1       6.924   5.248  18.375  0.00  0.00    +0.000 C 
ATOM     11  C   UNL     1       7.365   4.529  17.089  0.00  0.00    +0.000 C 
ATOM     12  C   UNL     1       8.168   5.472  19.248  0.00  0.00    +0.000 C 
ATOM     13  C   UNL     1       6.254   6.601  18.114  0.00  0.00    +0.000 C 
ATOM     14  C   UNL     1       4.979   6.418  17.310  0.00  0.00    +0.000 C 
ENDROOT
BRANCH   3  15
ATOM     15  O   UNL     1       0.839   3.966  17.330  0.00  0.00    +0.000 OA
ATOM     16  H   UNL     1       0.478   3.073  17.396  0.00  0.00    +0.000 HD
ENDBRANCH   3  15
TORSDOF 1
ENDMDL
MODEL 5
REMARK VINA RESULT:      -6.4      1.678      2.932
REMARK  Name = 
REMARK  5 active torsions:
REMARK  status: ('A' for Active; 'I' for Inactive)
REMARK    1  A    between atoms: C_1  and  C_2
REMARK    2  A    between atoms: C_3  and  O_4
REMARK    3  A    between atoms: C_8  and  C_9
REMARK    4  A    between atoms: C_11  and  C_12
REMARK    5  A    between atoms: C_11  and  C_13
REMARK                            x       y       z     vdW  Elec       q    Type
REMARK                         _______ _______ _______ _____ _____    ______ ____
ROOT
ATOM      1  C   UNL     1       1.096   3.195  19.564  0.00  0.00    +0.000 C 
ATOM      2  C   UNL     1       2.394   3.885  19.228  0.00  0.00    +0.000 A 
ATOM      3  C   UNL     1       2.968   4.866  20.051  0.00  0.00    +0.000 A 
ATOM      4  C   UNL     1       4.178   5.471  19.717  0.00  0.00    +0.000 A 
ATOM      5  C   UNL     1       4.848   5.130  18.541  0.00  0.00    +0.000 A 
ATOM      6  C   UNL     1       4.275   4.188  17.679  0.00  0.00    +0.000 A 
ATOM      7  C   UNL     1       3.071   3.535  18.026  0.00  0.00    +0.000 A 
ATOM      8  C   UNL     1       2.499   2.469  17.119  0.00  0.00    +0.000 C 
ATOM      9  O   UNL     1       4.847   3.853  16.475  0.00  0.00    +0.000 OA
ATOM     10  C   UNL     1       5.862   4.739  15.968  0.00  0.00    +0.000 C 
ATOM     11  C   UNL     1       5.197   5.967  15.321  0.00  0.00    +0.000 C 
ATOM     12  C   UNL     1       6.606   3.965  14.870  0.00  0.00    +0.000 C 
ATOM     13  C   UNL     1       6.855   5.103  17.077  0.00  0.00    +0.000 C 
ATOM     14  C   UNL     1       6.145   5.811  18.217  0.00  0.00    +0.000 C 
ENDROOT
BRANCH   3  15
ATOM     15  O   UNL     1       2.423   5.309  21.223  0.00  0.00    +0.000 OA
ATOM     16  H   UNL     1       1.701   5.927  21.049  0.00  0.00    +0.000 HD
ENDBRANCH   3  15
TORSDOF 1
ENDMDL
MODEL 6
REMARK VINA RESULT:      -6.4      1.928      2.676
REMARK  Name = 
REMARK  5 active torsions:
REMARK  status: ('A' for Active; 'I' for Inactive)
REMARK    1  A    between atoms: C_1  and  C_2
REMARK    2  A    between atoms: C_3  and  O_4
REMARK    3  A    between atoms: C_8  and  C_9
REMARK    4  A    between atoms: C_11  and  C_12
REMARK    5  A    between atoms: C_11  and  C_13
REMARK                            x       y       z     vdW  Elec       q    Type
REMARK                         _______ _______ _______ _____ _____    ______ ____
ROOT
ATOM      1  C   UNL     1       1.983   2.199  21.499  0.00  0.00    +0.000 C 
ATOM      2  C   UNL     1       2.489   3.240  20.533  0.00  0.00    +0.000 A 
ATOM      3  C   UNL     1       1.700   4.312  20.090  0.00  0.00    +0.000 A 
ATOM      4  C   UNL     1       2.207   5.266  19.209  0.00  0.00    +0.000 A 
ATOM      5  C   UNL     1       3.514   5.172  18.728  0.00  0.00    +0.000 A 
ATOM      6  C   UNL     1       4.308   4.088  19.118  0.00  0.00    +0.000 A 
ATOM      7  C   UNL     1       3.822   3.137  20.043  0.00  0.00    +0.000 A 
ATOM      8  C   UNL     1       4.713   2.010  20.510  0.00  0.00    +0.000 C 
ATOM      9  O   UNL     1       5.580   3.899  18.632  0.00  0.00    +0.000 OA
ATOM     10  C   UNL     1       5.946   4.648  17.459  0.00  0.00    +0.000 C 
ATOM     11  C   UNL     1       5.358   3.969  16.210  0.00  0.00    +0.000 C 
ATOM     12  C   UNL     1       7.478   4.582  17.363  0.00  0.00    +0.000 C 
ATOM     13  C   UNL     1       5.523   6.113  17.608  0.00  0.00    +0.000 C 
ATOM     14  C   UNL     1       4.017   6.218  17.776  0.00  0.00    +0.000 C 
ENDROOT
BRANCH   3  15
ATOM     15  O   UNL     1       0.404   4.527  20.465  0.00  0.00    +0.000 OA
ATOM     16  H   UNL     1       0.231   5.472  20.563  0.00  0.00    +0.000 HD
ENDBRANCH   3  15
TORSDOF 1
ENDMDL
MODEL 7
REMARK VINA RESULT:      -6.4      1.751      4.641
REMARK  Name = 
REMARK  5 active torsions:
REMARK  status: ('A' for Active; 'I' for Inactive)
REMARK    1  A    between atoms: C_1  and  C_2
REMARK    2  A    between atoms: C_3  and  O_4
REMARK    3  A    between atoms: C_8  and  C_9
REMARK    4  A    between atoms: C_11  and  C_12
REMARK    5  A    between atoms: C_11  and  C_13
REMARK                            x       y       z     vdW  Elec       q    Type
REMARK                         _______ _______ _______ _____ _____    ______ ____
ROOT
ATOM      1  C   UNL     1       7.137   5.854  16.753  0.00  0.00    +0.000 C 
ATOM      2  C   UNL     1       5.925   4.985  16.973  0.00  0.00    +0.000 A 
ATOM      3  C   UNL     1       5.203   4.408  15.918  0.00  0.00    +0.000 A 
ATOM      4  C   UNL     1       4.096   3.597  16.160  0.00  0.00    +0.000 A 
ATOM      5  C   UNL     1       3.662   3.348  17.463  0.00  0.00    +0.000 A 
ATOM      6  C   UNL     1       4.336   3.948  18.532  0.00  0.00    +0.000 A 
ATOM      7  C   UNL     1       5.485   4.738  18.305  0.00  0.00    +0.000 A 
ATOM      8  C   UNL     1       6.245   5.324  19.472  0.00  0.00    +0.000 C 
ATOM      9  O   UNL     1       3.924   3.799  19.834  0.00  0.00    +0.000 OA
ATOM     10  C   UNL     1       2.592   3.295  20.041  0.00  0.00    +0.000 C 
ATOM     11  C   UNL     1       1.575   4.432  19.840  0.00  0.00    +0.000 C 
ATOM     12  C   UNL     1       2.520   2.845  21.508  0.00  0.00    +0.000 C 
ATOM     13  C   UNL     1       2.332   2.084  19.139  0.00  0.00    +0.000 C 
ATOM     14  C   UNL     1       2.462   2.473  17.676  0.00  0.00    +0.000 C 
ENDROOT
BRANCH   3  15
ATOM     15  O   UNL     1       5.502   4.572  14.595  0.00  0.00    +0.000 OA
ATOM     16  H   UNL     1       6.449   4.722  14.477  0.00  0.00    +0.000 HD
ENDBRANCH   3  15
TORSDOF 1
ENDMDL
MODEL 8
REMARK VINA RESULT:      -6.3      1.791      4.580
REMARK  Name = 
REMARK  5 active torsions:
REMARK  status: ('A' for Active; 'I' for Inactive)
REMARK    1  A    between atoms: C_1  and  C_2
REMARK    2  A    between atoms: C_3  and  O_4
REMARK    3  A    between atoms: C_8  and  C_9
REMARK    4  A    between atoms: C_11  and  C_12
REMARK    5  A    between atoms: C_11  and  C_13
REMARK                            x       y       z     vdW  Elec       q    Type
REMARK                         _______ _______ _______ _____ _____    ______ ____
ROOT
ATOM      1  C   UNL     1       4.901   7.016  15.975  0.00  0.00    +0.000 C 
ATOM      2  C   UNL     1       4.589   5.680  16.601  0.00  0.00    +0.000 A 
ATOM      3  C   UNL     1       5.135   4.476  16.133  0.00  0.00    +0.000 A 
ATOM      4  C   UNL     1       4.836   3.261  16.746  0.00  0.00    +0.000 A 
ATOM      5  C   UNL     1       3.969   3.205  17.838  0.00  0.00    +0.000 A 
ATOM      6  C   UNL     1       3.374   4.385  18.297  0.00  0.00    +0.000 A 
ATOM      7  C   UNL     1       3.700   5.630  17.712  0.00  0.00    +0.000 A 
ATOM      8  C   UNL     1       3.104   6.905  18.262  0.00  0.00    +0.000 C 
ATOM      9  O   UNL     1       2.462   4.394  19.325  0.00  0.00    +0.000 OA
ATOM     10  C   UNL     1       1.877   3.130  19.687  0.00  0.00    +0.000 C 
ATOM     11  C   UNL     1       0.763   2.772  18.688  0.00  0.00    +0.000 C 
ATOM     12  C   UNL     1       1.236   3.328  21.068  0.00  0.00    +0.000 C 
ATOM     13  C   UNL     1       2.962   2.053  19.796  0.00  0.00    +0.000 C 
ATOM     14  C   UNL     1       3.671   1.874  18.465  0.00  0.00    +0.000 C 
ENDROOT
BRANCH   3  15
ATOM     15  O   UNL     1       5.988   4.374  15.069  0.00  0.00    +0.000 OA
ATOM     16  H   UNL     1       6.814   3.950  15.337  0.00  0.00    +0.000 HD
ENDBRANCH   3  15
TORSDOF 1
ENDMDL
MODEL 9
REMARK VINA RESULT:      -6.3      2.832      5.211
REMARK  Name = 
REMARK  5 active torsions:
REMARK  status: ('A' for Active; 'I' for Inactive)
REMARK    1  A    between atoms: C_1  and  C_2
REMARK    2  A    between atoms: C_3  and  O_4
REMARK    3  A    between atoms: C_8  and  C_9
REMARK    4  A    between atoms: C_11  and  C_12
REMARK    5  A    between atoms: C_11  and  C_13
REMARK                            x       y       z     vdW  Elec       q    Type
REMARK                         _______ _______ _______ _____ _____    ______ ____
ROOT
ATOM      1  C   UNL     1       0.661  10.481  19.792  0.00  0.00    +0.000 C 
ATOM      2  C   UNL     1       1.354   9.195  19.420  0.00  0.00    +0.000 A 
ATOM      3  C   UNL     1       2.017   9.016  18.197  0.00  0.00    +0.000 A 
ATOM      4  C   UNL     1       2.662   7.818  17.893  0.00  0.00    +0.000 A 
ATOM      5  C   UNL     1       2.652   6.753  18.794  0.00  0.00    +0.000 A 
ATOM      6  C   UNL     1       1.959   6.888  20.002  0.00  0.00    +0.000 A 
ATOM      7  C   UNL     1       1.338   8.111  20.342  0.00  0.00    +0.000 A 
ATOM      8  C   UNL     1       0.652   8.266  21.679  0.00  0.00    +0.000 C 
ATOM      9  O   UNL     1       1.854   5.858  20.906  0.00  0.00    +0.000 OA
ATOM     10  C   UNL     1       2.179   4.539  20.429  0.00  0.00    +0.000 C 
ATOM     11  C   UNL     1       0.991   3.973  19.632  0.00  0.00    +0.000 C 
ATOM     12  C   UNL     1       2.378   3.664  21.676  0.00  0.00    +0.000 C 
ATOM     13  C   UNL     1       3.486   4.567  19.631  0.00  0.00    +0.000 C 
ATOM     14  C   UNL     1       3.354   5.479  18.424  0.00  0.00    +0.000 C 
ENDROOT
BRANCH   3  15
ATOM     15  O   UNL     1       2.100   9.964  17.215  0.00  0.00    +0.000 OA
ATOM     16  H   UNL     1       1.278  10.000  16.709  0.00  0.00    +0.000 HD
ENDBRANCH   3  15
TORSDOF 1
ENDMDL
