MODEL 1
REMARK VINA RESULT:      -7.7      0.000      0.000
REMARK  Name = 
REMARK  2 active torsions:
REMARK  status: ('A' for Active; 'I' for Inactive)
REMARK    1  A    between atoms: C_2  and  C_3
REMARK    2  A    between atoms: C_15  and  N_16
REMARK                            x       y       z     vdW  Elec       q    Type
REMARK                         _______ _______ _______ _____ _____    ______ ____
ROOT
ATOM      1  O   UNL     1       3.030   7.886  17.441  0.00  0.00    +0.000 OA
ATOM      2  C   UNL     1       3.602   6.961  18.021  0.00  0.00    +0.000 C 
ATOM      3  N   UNL     1       4.962   6.779  17.888  0.00  0.00    +0.000 N 
ATOM      4  C   UNL     1       5.864   7.425  16.952  0.00  0.00    +0.000 C 
ATOM      5  C   UNL     1       6.805   6.221  17.112  0.00  0.00    +0.000 C 
ATOM      6  C   UNL     1       5.892   5.732  18.246  0.00  0.00    +0.000 C 
ENDROOT
BRANCH   2   7
ATOM      7  C   UNL     1       2.832   6.043  18.931  0.00  0.00    +0.000 A 
ATOM      8  C   UNL     1       2.274   6.581  20.105  0.00  0.00    +0.000 A 
ATOM      9  C   UNL     1       1.518   5.800  20.972  0.00  0.00    +0.000 A 
ATOM     10  C   UNL     1       1.215   4.492  20.624  0.00  0.00    +0.000 A 
ATOM     11  C   UNL     1       1.701   3.933  19.436  0.00  0.00    +0.000 A 
ATOM     12  C   UNL     1       1.315   2.627  19.092  0.00  0.00    +0.000 A 
ATOM     13  C   UNL     1       1.820   2.007  17.954  0.00  0.00    +0.000 A 
ATOM     14  C   UNL     1       2.736   2.679  17.159  0.00  0.00    +0.000 A 
ATOM     15  C   UNL     1       3.103   3.993  17.470  0.00  0.00    +0.000 A 
ATOM     16  C   UNL     1       2.569   4.680  18.590  0.00  0.00    +0.000 A 
ENDBRANCH   2   7
BRANCH   5  17
ATOM     17  N   UNL     1       6.780   5.286  16.020  0.00  0.00    +0.000 N 
ATOM     18  N   UNL     1       6.062   4.139  16.130  0.00  0.00    +0.000 NA
ATOM     19  C   UNL     1       6.216   3.600  14.918  0.00  0.00    +0.000 A 
ATOM     20  C   UNL     1       7.017   4.426  14.127  0.00  0.00    +0.000 A 
ATOM     21  N   UNL     1       7.368   5.511  14.819  0.00  0.00    +0.000 NA
ENDBRANCH   5  17
TORSDOF 2
ENDMDL
MODEL 2
REMARK VINA RESULT:      -7.7      1.309      2.753
REMARK  Name = 
REMARK  2 active torsions:
REMARK  status: ('A' for Active; 'I' for Inactive)
REMARK    1  A    between atoms: C_2  and  C_3
REMARK    2  A    between atoms: C_15  and  N_16
REMARK                            x       y       z     vdW  Elec       q    Type
REMARK                         _______ _______ _______ _____ _____    ______ ____
ROOT
ATOM      1  O   UNL     1       3.394   6.578  17.553  0.00  0.00    +0.000 OA
ATOM      2  C   UNL     1       3.939   5.473  17.597  0.00  0.00    +0.000 C 
ATOM      3  N   UNL     1       5.291   5.344  17.367  0.00  0.00    +0.000 N 
ATOM      4  C   UNL     1       6.210   6.341  16.848  0.00  0.00    +0.000 C 
ATOM      5  C   UNL     1       7.112   5.189  16.382  0.00  0.00    +0.000 C 
ATOM      6  C   UNL     1       6.189   4.233  17.151  0.00  0.00    +0.000 C 
ENDROOT
BRANCH   2   7
ATOM      7  C   UNL     1       3.143   4.248  17.959  0.00  0.00    +0.000 A 
ATOM      8  C   UNL     1       2.935   3.270  16.969  0.00  0.00    +0.000 A 
ATOM      9  C   UNL     1       2.243   2.096  17.244  0.00  0.00    +0.000 A 
ATOM     10  C   UNL     1       1.840   1.830  18.544  0.00  0.00    +0.000 A 
ATOM     11  C   UNL     1       2.078   2.749  19.573  0.00  0.00    +0.000 A 
ATOM     12  C   UNL     1       1.712   2.409  20.886  0.00  0.00    +0.000 A 
ATOM     13  C   UNL     1       1.872   3.313  21.932  0.00  0.00    +0.000 A 
ATOM     14  C   UNL     1       2.379   4.577  21.671  0.00  0.00    +0.000 A 
ATOM     15  C   UNL     1       2.780   4.917  20.373  0.00  0.00    +0.000 A 
ATOM     16  C   UNL     1       2.685   4.005  19.291  0.00  0.00    +0.000 A 
ENDBRANCH   2   7
BRANCH   5  17
ATOM     17  N   UNL     1       7.053   4.906  14.973  0.00  0.00    +0.000 N 
ATOM     18  N   UNL     1       7.917   5.521  14.126  0.00  0.00    +0.000 NA
ATOM     19  C   UNL     1       7.613   4.949  12.958  0.00  0.00    +0.000 A 
ATOM     20  C   UNL     1       6.585   4.021  13.136  0.00  0.00    +0.000 A 
ATOM     21  N   UNL     1       6.233   3.978  14.423  0.00  0.00    +0.000 NA
ENDBRANCH   5  17
TORSDOF 2
ENDMDL
MODEL 3
REMARK VINA RESULT:      -7.1      4.098      6.363
REMARK  Name = 
REMARK  2 active torsions:
REMARK  status: ('A' for Active; 'I' for Inactive)
REMARK    1  A    between atoms: C_2  and  C_3
REMARK    2  A    between atoms: C_15  and  N_16
REMARK                            x       y       z     vdW  Elec       q    Type
REMARK                         _______ _______ _______ _____ _____    ______ ____
ROOT
ATOM      1  O   UNL     1       1.521   7.674  21.264  0.00  0.00    +0.000 OA
ATOM      2  C   UNL     1       1.728   7.902  20.070  0.00  0.00    +0.000 C 
ATOM      3  N   UNL     1       1.470   9.145  19.535  0.00  0.00    +0.000 N 
ATOM      4  C   UNL     1       0.754  10.251  20.145  0.00  0.00    +0.000 C 
ATOM      5  C   UNL     1       0.455  10.766  18.730  0.00  0.00    +0.000 C 
ATOM      6  C   UNL     1       1.409   9.688  18.197  0.00  0.00    +0.000 C 
ENDROOT
BRANCH   2   7
ATOM      7  C   UNL     1       2.322   6.839  19.186  0.00  0.00    +0.000 A 
ATOM      8  C   UNL     1       3.215   7.234  18.173  0.00  0.00    +0.000 A 
ATOM      9  C   UNL     1       3.830   6.303  17.345  0.00  0.00    +0.000 A 
ATOM     10  C   UNL     1       3.647   4.949  17.585  0.00  0.00    +0.000 A 
ATOM     11  C   UNL     1       2.812   4.510  18.619  0.00  0.00    +0.000 A 
ATOM     12  C   UNL     1       2.708   3.131  18.869  0.00  0.00    +0.000 A 
ATOM     13  C   UNL     1       1.846   2.642  19.845  0.00  0.00    +0.000 A 
ATOM     14  C   UNL     1       1.060   3.528  20.568  0.00  0.00    +0.000 A 
ATOM     15  C   UNL     1       1.179   4.906  20.354  0.00  0.00    +0.000 A 
ATOM     16  C   UNL     1       2.086   5.446  19.407  0.00  0.00    +0.000 A 
ENDBRANCH   2   7
BRANCH   5  17
ATOM     17  N   UNL     1      -0.884  10.515  18.266  0.00  0.00    +0.000 N 
ATOM     18  N   UNL     1      -1.920  11.222  18.782  0.00  0.00    +0.000 NA
ATOM     19  C   UNL     1      -2.949  10.775  18.058  0.00  0.00    +0.000 A 
ATOM     20  C   UNL     1      -2.505   9.819  17.141  0.00  0.00    +0.000 A 
ATOM     21  N   UNL     1      -1.185   9.659  17.258  0.00  0.00    +0.000 NA
ENDBRANCH   5  17
TORSDOF 2
ENDMDL
MODEL 4
REMARK VINA RESULT:      -7.0      2.938      5.237
REMARK  Name = 
REMARK  2 active torsions:
REMARK  status: ('A' for Active; 'I' for Inactive)
REMARK    1  A    between atoms: C_2  and  C_3
REMARK    2  A    between atoms: C_15  and  N_16
REMARK                            x       y       z     vdW  Elec       q    Type
REMARK                         _______ _______ _______ _____ _____    ______ ____
ROOT
ATOM      1  O   UNL     1       1.923   6.006  20.773  0.00  0.00    +0.000 OA
ATOM      2  C   UNL     1       2.307   6.571  19.746  0.00  0.00    +0.000 C 
ATOM      3  N   UNL     1       3.083   5.903  18.823  0.00  0.00    +0.000 N 
ATOM      4  C   UNL     1       3.736   4.615  18.968  0.00  0.00    +0.000 C 
ATOM      5  C   UNL     1       4.729   5.058  17.883  0.00  0.00    +0.000 C 
ATOM      6  C   UNL     1       3.843   6.292  17.657  0.00  0.00    +0.000 C 
ENDROOT
BRANCH   2   7
ATOM      7  C   UNL     1       1.886   7.986  19.455  0.00  0.00    +0.000 A 
ATOM      8  C   UNL     1       2.051   8.476  18.147  0.00  0.00    +0.000 A 
ATOM      9  C   UNL     1       1.649   9.759  17.798  0.00  0.00    +0.000 A 
ATOM     10  C   UNL     1       0.975  10.540  18.725  0.00  0.00    +0.000 A 
ATOM     11  C   UNL     1       0.738  10.070  20.022  0.00  0.00    +0.000 A 
ATOM     12  C   UNL     1      -0.007  10.867  20.908  0.00  0.00    +0.000 A 
ATOM     13  C   UNL     1      -0.217  10.471  22.225  0.00  0.00    +0.000 A 
ATOM     14  C   UNL     1       0.337   9.282  22.678  0.00  0.00    +0.000 A 
ATOM     15  C   UNL     1       1.050   8.462  21.797  0.00  0.00    +0.000 A 
ATOM     16  C   UNL     1       1.239   8.803  20.433  0.00  0.00    +0.000 A 
ENDBRANCH   2   7
BRANCH   5  17
ATOM     17  N   UNL     1       6.020   5.460  18.373  0.00  0.00    +0.000 N 
ATOM     18  N   UNL     1       6.774   6.330  17.654  0.00  0.00    +0.000 NA
ATOM     19  C   UNL     1       7.824   6.515  18.457  0.00  0.00    +0.000 A 
ATOM     20  C   UNL     1       7.675   5.755  19.619  0.00  0.00    +0.000 A 
ATOM     21  N   UNL     1       6.518   5.092  19.579  0.00  0.00    +0.000 NA
ENDBRANCH   5  17
TORSDOF 2
ENDMDL
MODEL 5
REMARK VINA RESULT:      -7.0      1.200      2.673
REMARK  Name = 
REMARK  2 active torsions:
REMARK  status: ('A' for Active; 'I' for Inactive)
REMARK    1  A    between atoms: C_2  and  C_3
REMARK    2  A    between atoms: C_15  and  N_16
REMARK                            x       y       z     vdW  Elec       q    Type
REMARK                         _______ _______ _______ _____ _____    ______ ____
ROOT
ATOM      1  O   UNL     1       3.857   6.850  17.194  0.00  0.00    +0.000 OA
ATOM      2  C   UNL     1       4.306   5.702  17.234  0.00  0.00    +0.000 C 
ATOM      3  N   UNL     1       5.641   5.459  16.993  0.00  0.00    +0.000 N 
ATOM      4  C   UNL     1       6.637   6.374  16.465  0.00  0.00    +0.000 C 
ATOM      5  C   UNL     1       7.434   5.149  15.994  0.00  0.00    +0.000 C 
ATOM      6  C   UNL     1       6.439   4.275  16.771  0.00  0.00    +0.000 C 
ENDROOT
BRANCH   2   7
ATOM      7  C   UNL     1       3.412   4.550  17.604  0.00  0.00    +0.000 A 
ATOM      8  C   UNL     1       3.465   3.385  16.818  0.00  0.00    +0.000 A 
ATOM      9  C   UNL     1       2.696   2.268  17.124  0.00  0.00    +0.000 A 
ATOM     10  C   UNL     1       1.940   2.257  18.287  0.00  0.00    +0.000 A 
ATOM     11  C   UNL     1       1.904   3.375  19.130  0.00  0.00    +0.000 A 
ATOM     12  C   UNL     1       1.178   3.296  20.331  0.00  0.00    +0.000 A 
ATOM     13  C   UNL     1       1.062   4.398  21.171  0.00  0.00    +0.000 A 
ATOM     14  C   UNL     1       1.652   5.600  20.808  0.00  0.00    +0.000 A 
ATOM     15  C   UNL     1       2.407   5.683  19.632  0.00  0.00    +0.000 A 
ATOM     16  C   UNL     1       2.595   4.567  18.777  0.00  0.00    +0.000 A 
ENDBRANCH   2   7
BRANCH   5  17
ATOM     17  N   UNL     1       7.339   4.872  14.585  0.00  0.00    +0.000 N 
ATOM     18  N   UNL     1       6.484   3.916  14.142  0.00  0.00    +0.000 NA
ATOM     19  C   UNL     1       6.619   4.017  12.817  0.00  0.00    +0.000 A 
ATOM     20  C   UNL     1       7.545   5.016  12.508  0.00  0.00    +0.000 A 
ATOM     21  N   UNL     1       7.996   5.577  13.632  0.00  0.00    +0.000 NA
ENDBRANCH   5  17
TORSDOF 2
ENDMDL
MODEL 6
REMARK VINA RESULT:      -6.9      6.605      9.044
REMARK  Name = 
REMARK  2 active torsions:
REMARK  status: ('A' for Active; 'I' for Inactive)
REMARK    1  A    between atoms: C_2  and  C_3
REMARK    2  A    between atoms: C_15  and  N_16
REMARK                            x       y       z     vdW  Elec       q    Type
REMARK                         _______ _______ _______ _____ _____    ______ ____
ROOT
ATOM      1  O   UNL     1      -0.006  12.367  18.484  0.00  0.00    +0.000 OA
ATOM      2  C   UNL     1      -0.518  11.263  18.680  0.00  0.00    +0.000 C 
ATOM      3  N   UNL     1      -1.623  10.861  17.962  0.00  0.00    +0.000 N 
ATOM      4  C   UNL     1      -2.464  11.661  17.089  0.00  0.00    +0.000 C 
ATOM      5  C   UNL     1      -3.591  10.647  17.336  0.00  0.00    +0.000 C 
ATOM      6  C   UNL     1      -2.562   9.767  18.061  0.00  0.00    +0.000 C 
ENDROOT
BRANCH   2   7
ATOM      7  C   UNL     1       0.090  10.310  19.673  0.00  0.00    +0.000 A 
ATOM      8  C   UNL     1      -0.355  10.359  21.006  0.00  0.00    +0.000 A 
ATOM      9  C   UNL     1       0.135   9.483  21.967  0.00  0.00    +0.000 A 
ATOM     10  C   UNL     1       1.001   8.468  21.587  0.00  0.00    +0.000 A 
ATOM     11  C   UNL     1       1.425   8.345  20.259  0.00  0.00    +0.000 A 
ATOM     12  C   UNL     1       2.249   7.263  19.906  0.00  0.00    +0.000 A 
ATOM     13  C   UNL     1       2.745   7.132  18.613  0.00  0.00    +0.000 A 
ATOM     14  C   UNL     1       2.442   8.096  17.663  0.00  0.00    +0.000 A 
ATOM     15  C   UNL     1       1.594   9.160  17.991  0.00  0.00    +0.000 A 
ATOM     16  C   UNL     1       1.023   9.299  19.282  0.00  0.00    +0.000 A 
ENDBRANCH   2   7
BRANCH   5  17
ATOM     17  N   UNL     1      -4.605  11.084  18.259  0.00  0.00    +0.000 N 
ATOM     18  N   UNL     1      -4.361  12.137  19.080  0.00  0.00    +0.000 NA
ATOM     19  C   UNL     1      -5.535  12.282  19.699  0.00  0.00    +0.000 A 
ATOM     20  C   UNL     1      -6.437  11.320  19.240  0.00  0.00    +0.000 A 
ATOM     21  N   UNL     1      -5.855  10.562  18.310  0.00  0.00    +0.000 NA
ENDBRANCH   5  17
TORSDOF 2
ENDMDL
MODEL 7
REMARK VINA RESULT:      -6.9      1.290      2.908
REMARK  Name = 
REMARK  2 active torsions:
REMARK  status: ('A' for Active; 'I' for Inactive)
REMARK    1  A    between atoms: C_2  and  C_3
REMARK    2  A    between atoms: C_15  and  N_16
REMARK                            x       y       z     vdW  Elec       q    Type
REMARK                         _______ _______ _______ _____ _____    ______ ____
ROOT
ATOM      1  O   UNL     1       4.158   7.117  16.978  0.00  0.00    +0.000 OA
ATOM      2  C   UNL     1       4.455   5.922  17.031  0.00  0.00    +0.000 C 
ATOM      3  N   UNL     1       5.717   5.493  16.681  0.00  0.00    +0.000 N 
ATOM      4  C   UNL     1       6.768   6.248  16.022  0.00  0.00    +0.000 C 
ATOM      5  C   UNL     1       7.349   4.911  15.538  0.00  0.00    +0.000 C 
ATOM      6  C   UNL     1       6.329   4.206  16.442  0.00  0.00    +0.000 C 
ENDROOT
BRANCH   2   7
ATOM      7  C   UNL     1       3.459   4.913  17.534  0.00  0.00    +0.000 A 
ATOM      8  C   UNL     1       3.399   3.659  16.900  0.00  0.00    +0.000 A 
ATOM      9  C   UNL     1       2.530   2.666  17.336  0.00  0.00    +0.000 A 
ATOM     10  C   UNL     1       1.780   2.872  18.485  0.00  0.00    +0.000 A 
ATOM     11  C   UNL     1       1.851   4.084  19.182  0.00  0.00    +0.000 A 
ATOM     12  C   UNL     1       1.125   4.224  20.376  0.00  0.00    +0.000 A 
ATOM     13  C   UNL     1       1.116   5.429  21.072  0.00  0.00    +0.000 A 
ATOM     14  C   UNL     1       1.814   6.516  20.567  0.00  0.00    +0.000 A 
ATOM     15  C   UNL     1       2.570   6.379  19.397  0.00  0.00    +0.000 A 
ATOM     16  C   UNL     1       2.651   5.153  18.689  0.00  0.00    +0.000 A 
ENDBRANCH   2   7
BRANCH   5  17
ATOM     17  N   UNL     1       7.084   4.601  14.158  0.00  0.00    +0.000 N 
ATOM     18  N   UNL     1       7.765   5.249  13.179  0.00  0.00    +0.000 NA
ATOM     19  C   UNL     1       7.314   4.641  12.080  0.00  0.00    +0.000 A 
ATOM     20  C   UNL     1       6.382   3.660  12.427  0.00  0.00    +0.000 A 
ATOM     21  N   UNL     1       6.243   3.619  13.753  0.00  0.00    +0.000 NA
ENDBRANCH   5  17
TORSDOF 2
ENDMDL
MODEL 8
REMARK VINA RESULT:      -6.8      2.648      4.871
REMARK  Name = 
REMARK  2 active torsions:
REMARK  status: ('A' for Active; 'I' for Inactive)
REMARK    1  A    between atoms: C_2  and  C_3
REMARK    2  A    between atoms: C_15  and  N_16
REMARK                            x       y       z     vdW  Elec       q    Type
REMARK                         _______ _______ _______ _____ _____    ______ ____
ROOT
ATOM      1  O   UNL     1       2.463   5.774  21.073  0.00  0.00    +0.000 OA
ATOM      2  C   UNL     1       2.520   6.074  19.879  0.00  0.00    +0.000 C 
ATOM      3  N   UNL     1       2.879   5.138  18.933  0.00  0.00    +0.000 N 
ATOM      4  C   UNL     1       3.436   3.815  19.150  0.00  0.00    +0.000 C 
ATOM      5  C   UNL     1       4.034   3.895  17.737  0.00  0.00    +0.000 C 
ATOM      6  C   UNL     1       3.227   5.185  17.531  0.00  0.00    +0.000 C 
ENDROOT
BRANCH   2   7
ATOM      7  C   UNL     1       2.142   7.458  19.424  0.00  0.00    +0.000 A 
ATOM      8  C   UNL     1       2.489   7.851  18.119  0.00  0.00    +0.000 A 
ATOM      9  C   UNL     1       2.137   9.100  17.620  0.00  0.00    +0.000 A 
ATOM     10  C   UNL     1       1.337   9.939  18.381  0.00  0.00    +0.000 A 
ATOM     11  C   UNL     1       0.920   9.564  19.664  0.00  0.00    +0.000 A 
ATOM     12  C   UNL     1       0.056  10.415  20.373  0.00  0.00    +0.000 A 
ATOM     13  C   UNL     1      -0.338  10.116  21.673  0.00  0.00    +0.000 A 
ATOM     14  C   UNL     1       0.148   8.972  22.288  0.00  0.00    +0.000 A 
ATOM     15  C   UNL     1       0.981   8.097  21.582  0.00  0.00    +0.000 A 
ATOM     16  C   UNL     1       1.360   8.338  20.236  0.00  0.00    +0.000 A 
ENDBRANCH   2   7
BRANCH   5  17
ATOM     17  N   UNL     1       5.443   4.180  17.693  0.00  0.00    +0.000 N 
ATOM     18  N   UNL     1       6.087   4.216  16.499  0.00  0.00    +0.000 NA
ATOM     19  C   UNL     1       7.317   4.586  16.859  0.00  0.00    +0.000 A 
ATOM     20  C   UNL     1       7.378   4.756  18.244  0.00  0.00    +0.000 A 
ATOM     21  N   UNL     1       6.180   4.513  18.781  0.00  0.00    +0.000 NA
ENDBRANCH   5  17
TORSDOF 2
ENDMDL
MODEL 9
REMARK VINA RESULT:      -6.8      4.453      6.426
REMARK  Name = 
REMARK  2 active torsions:
REMARK  status: ('A' for Active; 'I' for Inactive)
REMARK    1  A    between atoms: C_2  and  C_3
REMARK    2  A    between atoms: C_15  and  N_16
REMARK                            x       y       z     vdW  Elec       q    Type
REMARK                         _______ _______ _______ _____ _____    ______ ____
ROOT
ATOM      1  O   UNL     1       1.873   9.273  17.184  0.00  0.00    +0.000 OA
ATOM      2  C   UNL     1       1.602   9.010  18.358  0.00  0.00    +0.000 C 
ATOM      3  N   UNL     1       2.283   8.022  19.034  0.00  0.00    +0.000 N 
ATOM      4  C   UNL     1       3.198   7.033  18.492  0.00  0.00    +0.000 C 
ATOM      5  C   UNL     1       2.876   6.149  19.706  0.00  0.00    +0.000 C 
ATOM      6  C   UNL     1       2.106   7.340  20.296  0.00  0.00    +0.000 C 
ENDROOT
BRANCH   2   7
ATOM      7  C   UNL     1       0.556   9.805  19.092  0.00  0.00    +0.000 A 
ATOM      8  C   UNL     1       0.874  10.315  20.364  0.00  0.00    +0.000 A 
ATOM      9  C   UNL     1      -0.029  11.089  21.081  0.00  0.00    +0.000 A 
ATOM     10  C   UNL     1      -1.230  11.459  20.493  0.00  0.00    +0.000 A 
ATOM     11  C   UNL     1      -1.564  11.021  19.206  0.00  0.00    +0.000 A 
ATOM     12  C   UNL     1      -2.760  11.473  18.623  0.00  0.00    +0.000 A 
ATOM     13  C   UNL     1      -3.164  11.020  17.372  0.00  0.00    +0.000 A 
ATOM     14  C   UNL     1      -2.387  10.088  16.699  0.00  0.00    +0.000 A 
ATOM     15  C   UNL     1      -1.176   9.656  17.252  0.00  0.00    +0.000 A 
ATOM     16  C   UNL     1      -0.702  10.137  18.499  0.00  0.00    +0.000 A 
ENDBRANCH   2   7
BRANCH   5  17
ATOM     17  N   UNL     1       1.975   5.061  19.440  0.00  0.00    +0.000 N 
ATOM     18  N   UNL     1       1.903   4.535  18.191  0.00  0.00    +0.000 NA
ATOM     19  C   UNL     1       1.049   3.524  18.365  0.00  0.00    +0.000 A 
ATOM     20  C   UNL     1       0.633   3.476  19.698  0.00  0.00    +0.000 A 
ATOM     21  N   UNL     1       1.232   4.445  20.392  0.00  0.00    +0.000 NA
ENDBRANCH   5  17
TORSDOF 2
ENDMDL
