MODEL 1
REMARK VINA RESULT:      -8.7      0.000      0.000
REMARK  Name = 
REMARK  5 active torsions:
REMARK  status: ('A' for Active; 'I' for Inactive)
REMARK    1  A    between atoms: C_2  and  O_3
REMARK    2  A    between atoms: C_2  and  C_4
REMARK    3  A    between atoms: C_5  and  C_6
REMARK    4  A    between atoms: N_8  and  C_9
REMARK    5  A    between atoms: C_13  and  C_14
REMARK                            x       y       z     vdW  Elec       q    Type
REMARK                         _______ _______ _______ _____ _____    ______ ____
ROOT
ATOM      1  C   UNL     1       6.424   6.118  16.468  0.00  0.00    +0.000 A 
ATOM      2  C   UNL     1       6.913   5.362  15.391  0.00  0.00    +0.000 A 
ATOM      3  C   UNL     1       6.423   4.091  15.166  0.00  0.00    +0.000 A 
ATOM      4  C   UNL     1       5.444   3.586  16.023  0.00  0.00    +0.000 A 
ATOM      5  C   UNL     1       4.874   4.317  17.113  0.00  0.00    +0.000 A 
ATOM      6  C   UNL     1       5.377   5.610  17.302  0.00  0.00    +0.000 A 
ENDROOT
BRANCH   5   7
ATOM      7  C   UNL     1       3.757   3.634  17.870  0.00  0.00    +0.000 A 
ATOM      8  N   UNL     1       3.296   2.551  17.205  0.00  0.00    +0.000 NA
ATOM      9  N   UNL     1       2.326   2.050  17.937  0.00  0.00    +0.000 N 
ATOM     10  C   UNL     1       2.219   2.583  19.174  0.00  0.00    +0.000 A 
ATOM     11  C   UNL     1       1.438   2.128  20.248  0.00  0.00    +0.000 A 
ATOM     12  C   UNL     1       1.311   2.941  21.346  0.00  0.00    +0.000 A 
ATOM     13  C   UNL     1       1.935   4.192  21.346  0.00  0.00    +0.000 A 
ATOM     14  C   UNL     1       2.785   4.609  20.270  0.00  0.00    +0.000 A 
ATOM     15  C   UNL     1       2.988   3.759  19.137  0.00  0.00    +0.000 A 
ATOM     16  H   UNL     1       1.734   1.342  17.523  0.00  0.00    +0.000 HD
ENDBRANCH   5   7
BRANCH   1  19
ATOM     17  C   UNL     1       7.797   7.698  17.817  0.00  0.00    +0.000 C 
ATOM     18  O   UNL     1       8.199   6.920  18.679  0.00  0.00    +0.000 OA
ATOM     19  N   UNL     1       6.965   7.400  16.751  0.00  0.00    +0.000 N 
ATOM     20  H   UNL     1       6.615   8.164  16.191  0.00  0.00    +0.000 HD
BRANCH  17  22
ATOM     21  C   UNL     1       8.967   9.499  18.925  0.00  0.00    +0.000 C 
ATOM     22  C   UNL     1       8.160   9.137  17.916  0.00  0.00    +0.000 C 
BRANCH  21  24
ATOM     23  O   UNL     1       9.303  11.752  18.246  0.00  0.00    +0.000 OA
ATOM     24  C   UNL     1       9.364  10.903  19.117  0.00  0.00    +0.000 C 
BRANCH  24  25
ATOM     25  O   UNL     1       9.810  11.140  20.368  0.00  0.00    +0.000 OA
ATOM     26  H   UNL     1       9.220  11.671  20.938  0.00  0.00    +0.000 HD
ENDBRANCH  24  25
ENDBRANCH  21  24
ENDBRANCH  17  22
ENDBRANCH   1  19
TORSDOF 5
ENDMDL
MODEL 2
REMARK VINA RESULT:      -8.7      1.258      1.451
REMARK  Name = 
REMARK  5 active torsions:
REMARK  status: ('A' for Active; 'I' for Inactive)
REMARK    1  A    between atoms: C_2  and  O_3
REMARK    2  A    between atoms: C_2  and  C_4
REMARK    3  A    between atoms: C_5  and  C_6
REMARK    4  A    between atoms: N_8  and  C_9
REMARK    5  A    between atoms: C_13  and  C_14
REMARK                            x       y       z     vdW  Elec       q    Type
REMARK                         _______ _______ _______ _____ _____    ______ ____
ROOT
ATOM      1  C   UNL     1       6.217   6.420  16.739  0.00  0.00    +0.000 A 
ATOM      2  C   UNL     1       6.126   5.819  15.474  0.00  0.00    +0.000 A 
ATOM      3  C   UNL     1       5.537   4.577  15.346  0.00  0.00    +0.000 A 
ATOM      4  C   UNL     1       5.042   3.945  16.487  0.00  0.00    +0.000 A 
ATOM      5  C   UNL     1       5.066   4.519  17.798  0.00  0.00    +0.000 A 
ATOM      6  C   UNL     1       5.652   5.788  17.892  0.00  0.00    +0.000 A 
ENDROOT
BRANCH   5   7
ATOM      7  C   UNL     1       4.396   3.721  18.894  0.00  0.00    +0.000 A 
ATOM      8  N   UNL     1       5.273   2.912  19.528  0.00  0.00    +0.000 NA
ATOM      9  N   UNL     1       4.587   2.259  20.439  0.00  0.00    +0.000 N 
ATOM     10  C   UNL     1       3.327   2.713  20.629  0.00  0.00    +0.000 A 
ATOM     11  C   UNL     1       2.431   2.371  21.655  0.00  0.00    +0.000 A 
ATOM     12  C   UNL     1       1.128   2.785  21.539  0.00  0.00    +0.000 A 
ATOM     13  C   UNL     1       0.736   3.498  20.402  0.00  0.00    +0.000 A 
ATOM     14  C   UNL     1       1.681   3.897  19.400  0.00  0.00    +0.000 A 
ATOM     15  C   UNL     1       3.060   3.535  19.522  0.00  0.00    +0.000 A 
ATOM     16  H   UNL     1       5.030   1.474  20.897  0.00  0.00    +0.000 HD
ENDBRANCH   5   7
BRANCH   1  19
ATOM     17  C   UNL     1       7.855   7.939  17.839  0.00  0.00    +0.000 C 
ATOM     18  O   UNL     1       8.306   7.165  18.680  0.00  0.00    +0.000 OA
ATOM     19  N   UNL     1       6.879   7.667  16.896  0.00  0.00    +0.000 N 
ATOM     20  H   UNL     1       6.517   8.435  16.350  0.00  0.00    +0.000 HD
BRANCH  17  22
ATOM     21  C   UNL     1       9.001   9.780  18.908  0.00  0.00    +0.000 C 
ATOM     22  C   UNL     1       8.329   9.349  17.828  0.00  0.00    +0.000 C 
BRANCH  21  24
ATOM     23  O   UNL     1       9.493  11.820  20.023  0.00  0.00    +0.000 OA
ATOM     24  C   UNL     1       9.490  11.165  18.997  0.00  0.00    +0.000 C 
BRANCH  24  25
ATOM     25  O   UNL     1       9.930  11.628  17.809  0.00  0.00    +0.000 OA
ATOM     26  H   UNL     1      10.374  10.974  17.234  0.00  0.00    +0.000 HD
ENDBRANCH  24  25
ENDBRANCH  21  24
ENDBRANCH  17  22
ENDBRANCH   1  19
TORSDOF 5
ENDMDL
MODEL 3
REMARK VINA RESULT:      -8.3      4.383      6.549
REMARK  Name = 
REMARK  5 active torsions:
REMARK  status: ('A' for Active; 'I' for Inactive)
REMARK    1  A    between atoms: C_2  and  O_3
REMARK    2  A    between atoms: C_2  and  C_4
REMARK    3  A    between atoms: C_5  and  C_6
REMARK    4  A    between atoms: N_8  and  C_9
REMARK    5  A    between atoms: C_13  and  C_14
REMARK                            x       y       z     vdW  Elec       q    Type
REMARK                         _______ _______ _______ _____ _____    ______ ____
ROOT
ATOM      1  C   UNL     1       4.428   5.011  17.298  0.00  0.00    +0.000 A 
ATOM      2  C   UNL     1       4.375   4.164  18.415  0.00  0.00    +0.000 A 
ATOM      3  C   UNL     1       3.708   4.570  19.554  0.00  0.00    +0.000 A 
ATOM      4  C   UNL     1       3.097   5.824  19.564  0.00  0.00    +0.000 A 
ATOM      5  C   UNL     1       3.078   6.719  18.448  0.00  0.00    +0.000 A 
ATOM      6  C   UNL     1       3.746   6.269  17.301  0.00  0.00    +0.000 A 
ENDROOT
BRANCH   5   7
ATOM      7  C   UNL     1       2.283   7.994  18.621  0.00  0.00    +0.000 A 
ATOM      8  N   UNL     1       2.286   8.739  17.494  0.00  0.00    +0.000 NA
ATOM      9  N   UNL     1       1.588   9.820  17.760  0.00  0.00    +0.000 N 
ATOM     10  C   UNL     1       0.915   9.783  18.932  0.00  0.00    +0.000 A 
ATOM     11  C   UNL     1      -0.066  10.675  19.395  0.00  0.00    +0.000 A 
ATOM     12  C   UNL     1      -0.464  10.575  20.704  0.00  0.00    +0.000 A 
ATOM     13  C   UNL     1       0.134   9.618  21.530  0.00  0.00    +0.000 A 
ATOM     14  C   UNL     1       1.082   8.671  21.021  0.00  0.00    +0.000 A 
ATOM     15  C   UNL     1       1.474   8.708  19.644  0.00  0.00    +0.000 A 
ATOM     16  H   UNL     1       1.625  10.585  17.101  0.00  0.00    +0.000 HD
ENDBRANCH   5   7
BRANCH   1  19
ATOM     17  C   UNL     1       6.473   5.005  15.877  0.00  0.00    +0.000 C 
ATOM     18  O   UNL     1       7.200   5.705  16.577  0.00  0.00    +0.000 OA
ATOM     19  N   UNL     1       5.166   4.634  16.144  0.00  0.00    +0.000 N 
ATOM     20  H   UNL     1       4.647   4.159  15.420  0.00  0.00    +0.000 HD
BRANCH  17  22
ATOM     21  C   UNL     1       6.079   4.024  13.703  0.00  0.00    +0.000 C 
ATOM     22  C   UNL     1       6.979   4.528  14.562  0.00  0.00    +0.000 C 
BRANCH  21  24
ATOM     23  O   UNL     1       7.243   4.094  11.632  0.00  0.00    +0.000 OA
ATOM     24  C   UNL     1       6.487   3.509  12.387  0.00  0.00    +0.000 C 
BRANCH  24  25
ATOM     25  O   UNL     1       5.921   2.317  12.108  0.00  0.00    +0.000 OA
ATOM     26  H   UNL     1       5.572   2.212  11.201  0.00  0.00    +0.000 HD
ENDBRANCH  24  25
ENDBRANCH  21  24
ENDBRANCH  17  22
ENDBRANCH   1  19
TORSDOF 5
ENDMDL
MODEL 4
REMARK VINA RESULT:      -8.3      4.454      6.603
REMARK  Name = 
REMARK  5 active torsions:
REMARK  status: ('A' for Active; 'I' for Inactive)
REMARK    1  A    between atoms: C_2  and  O_3
REMARK    2  A    between atoms: C_2  and  C_4
REMARK    3  A    between atoms: C_5  and  C_6
REMARK    4  A    between atoms: N_8  and  C_9
REMARK    5  A    between atoms: C_13  and  C_14
REMARK                            x       y       z     vdW  Elec       q    Type
REMARK                         _______ _______ _______ _____ _____    ______ ____
ROOT
ATOM      1  C   UNL     1       3.481   5.277  18.863  0.00  0.00    +0.000 A 
ATOM      2  C   UNL     1       2.986   4.275  19.711  0.00  0.00    +0.000 A 
ATOM      3  C   UNL     1       2.064   4.595  20.687  0.00  0.00    +0.000 A 
ATOM      4  C   UNL     1       1.643   5.920  20.807  0.00  0.00    +0.000 A 
ATOM      5  C   UNL     1       2.076   6.982  19.951  0.00  0.00    +0.000 A 
ATOM      6  C   UNL     1       2.996   6.621  18.958  0.00  0.00    +0.000 A 
ENDROOT
BRANCH   5   7
ATOM      7  C   UNL     1       1.435   8.332  20.179  0.00  0.00    +0.000 A 
ATOM      8  N   UNL     1       1.510   9.111  19.077  0.00  0.00    +0.000 NA
ATOM      9  N   UNL     1       0.944  10.254  19.389  0.00  0.00    +0.000 N 
ATOM     10  C   UNL     1       0.286  10.255  20.569  0.00  0.00    +0.000 A 
ATOM     11  C   UNL     1      -0.581  11.237  21.076  0.00  0.00    +0.000 A 
ATOM     12  C   UNL     1      -0.973  11.138  22.387  0.00  0.00    +0.000 A 
ATOM     13  C   UNL     1      -0.480  10.091  23.171  0.00  0.00    +0.000 A 
ATOM     14  C   UNL     1       0.348   9.060  22.617  0.00  0.00    +0.000 A 
ATOM     15  C   UNL     1       0.725   9.099  21.237  0.00  0.00    +0.000 A 
ATOM     16  H   UNL     1       1.062  11.033  18.754  0.00  0.00    +0.000 HD
ENDBRANCH   5   7
BRANCH   1  19
ATOM     17  C   UNL     1       5.815   4.744  18.177  0.00  0.00    +0.000 C 
ATOM     18  O   UNL     1       6.352   4.759  19.282  0.00  0.00    +0.000 OA
ATOM     19  N   UNL     1       4.479   4.975  17.898  0.00  0.00    +0.000 N 
ATOM     20  H   UNL     1       4.200   5.054  16.931  0.00  0.00    +0.000 HD
BRANCH  17  22
ATOM     21  C   UNL     1       6.132   4.873  15.785  0.00  0.00    +0.000 C 
ATOM     22  C   UNL     1       6.654   4.520  16.970  0.00  0.00    +0.000 C 
BRANCH  21  24
ATOM     23  O   UNL     1       7.750   5.421  14.132  0.00  0.00    +0.000 OA
ATOM     24  C   UNL     1       6.878   4.671  14.533  0.00  0.00    +0.000 C 
BRANCH  24  25
ATOM     25  O   UNL     1       6.482   3.560  13.877  0.00  0.00    +0.000 OA
ATOM     26  H   UNL     1       6.754   3.499  12.940  0.00  0.00    +0.000 HD
ENDBRANCH  24  25
ENDBRANCH  21  24
ENDBRANCH  17  22
ENDBRANCH   1  19
TORSDOF 5
ENDMDL
MODEL 5
REMARK VINA RESULT:      -8.1      4.395      6.606
REMARK  Name = 
REMARK  5 active torsions:
REMARK  status: ('A' for Active; 'I' for Inactive)
REMARK    1  A    between atoms: C_2  and  O_3
REMARK    2  A    between atoms: C_2  and  C_4
REMARK    3  A    between atoms: C_5  and  C_6
REMARK    4  A    between atoms: N_8  and  C_9
REMARK    5  A    between atoms: C_13  and  C_14
REMARK                            x       y       z     vdW  Elec       q    Type
REMARK                         _______ _______ _______ _____ _____    ______ ____
ROOT
ATOM      1  C   UNL     1       6.088   4.545  16.494  0.00  0.00    +0.000 A 
ATOM      2  C   UNL     1       7.236   4.515  17.301  0.00  0.00    +0.000 A 
ATOM      3  C   UNL     1       7.218   5.115  18.544  0.00  0.00    +0.000 A 
ATOM      4  C   UNL     1       6.047   5.741  18.972  0.00  0.00    +0.000 A 
ATOM      5  C   UNL     1       4.830   5.773  18.218  0.00  0.00    +0.000 A 
ATOM      6  C   UNL     1       4.875   5.139  16.970  0.00  0.00    +0.000 A 
ENDROOT
BRANCH   5   7
ATOM      7  C   UNL     1       3.639   6.418  18.891  0.00  0.00    +0.000 A 
ATOM      8  N   UNL     1       3.295   5.767  20.024  0.00  0.00    +0.000 NA
ATOM      9  N   UNL     1       2.250   6.396  20.512  0.00  0.00    +0.000 N 
ATOM     10  C   UNL     1       1.968   7.573  19.911  0.00  0.00    +0.000 A 
ATOM     11  C   UNL     1       1.062   8.562  20.328  0.00  0.00    +0.000 A 
ATOM     12  C   UNL     1       0.772   9.581  19.457  0.00  0.00    +0.000 A 
ATOM     13  C   UNL     1       1.361   9.585  18.189  0.00  0.00    +0.000 A 
ATOM     14  C   UNL     1       2.336   8.606  17.808  0.00  0.00    +0.000 A 
ATOM     15  C   UNL     1       2.707   7.564  18.716  0.00  0.00    +0.000 A 
ATOM     16  H   UNL     1       1.735   5.953  21.261  0.00  0.00    +0.000 HD
ENDBRANCH   5   7
BRANCH   1  19
ATOM     17  C   UNL     1       6.834   4.498  14.119  0.00  0.00    +0.000 C 
ATOM     18  O   UNL     1       7.558   5.490  14.121  0.00  0.00    +0.000 OA
ATOM     19  N   UNL     1       6.113   3.991  15.187  0.00  0.00    +0.000 N 
ATOM     20  H   UNL     1       5.461   3.241  15.009  0.00  0.00    +0.000 HD
BRANCH  17  22
ATOM     21  C   UNL     1       5.405   3.238  12.631  0.00  0.00    +0.000 C 
ATOM     22  C   UNL     1       6.622   3.761  12.844  0.00  0.00    +0.000 C 
BRANCH  21  24
ATOM     23  O   UNL     1       5.807   1.574  10.981  0.00  0.00    +0.000 OA
ATOM     24  C   UNL     1       5.107   2.474  11.409  0.00  0.00    +0.000 C 
BRANCH  24  25
ATOM     25  O   UNL     1       3.971   2.891  10.811  0.00  0.00    +0.000 OA
ATOM     26  H   UNL     1       3.311   3.310  11.397  0.00  0.00    +0.000 HD
ENDBRANCH  24  25
ENDBRANCH  21  24
ENDBRANCH  17  22
ENDBRANCH   1  19
TORSDOF 5
ENDMDL
MODEL 6
REMARK VINA RESULT:      -7.8      4.221      6.444
REMARK  Name = 
REMARK  5 active torsions:
REMARK  status: ('A' for Active; 'I' for Inactive)
REMARK    1  A    between atoms: C_2  and  O_3
REMARK    2  A    between atoms: C_2  and  C_4
REMARK    3  A    between atoms: C_5  and  C_6
REMARK    4  A    between atoms: N_8  and  C_9
REMARK    5  A    between atoms: C_13  and  C_14
REMARK                            x       y       z     vdW  Elec       q    Type
REMARK                         _______ _______ _______ _____ _____    ______ ____
ROOT
ATOM      1  C   UNL     1       4.192   4.126  17.345  0.00  0.00    +0.000 A 
ATOM      2  C   UNL     1       3.981   2.975  18.120  0.00  0.00    +0.000 A 
ATOM      3  C   UNL     1       3.268   3.062  19.298  0.00  0.00    +0.000 A 
ATOM      4  C   UNL     1       2.770   4.304  19.694  0.00  0.00    +0.000 A 
ATOM      5  C   UNL     1       2.913   5.507  18.932  0.00  0.00    +0.000 A 
ATOM      6  C   UNL     1       3.624   5.382  17.732  0.00  0.00    +0.000 A 
ENDROOT
BRANCH   5   7
ATOM      7  C   UNL     1       2.221   6.736  19.480  0.00  0.00    +0.000 A 
ATOM      8  N   UNL     1       1.828   6.556  20.761  0.00  0.00    +0.000 NA
ATOM      9  N   UNL     1       1.230   7.666  21.126  0.00  0.00    +0.000 N 
ATOM     10  C   UNL     1       1.365   8.693  20.257  0.00  0.00    +0.000 A 
ATOM     11  C   UNL     1       1.029  10.042  20.453  0.00  0.00    +0.000 A 
ATOM     12  C   UNL     1       1.049  10.878  19.365  0.00  0.00    +0.000 A 
ATOM     13  C   UNL     1       1.372  10.357  18.109  0.00  0.00    +0.000 A 
ATOM     14  C   UNL     1       1.780   8.993  17.941  0.00  0.00    +0.000 A 
ATOM     15  C   UNL     1       1.830   8.109  19.067  0.00  0.00    +0.000 A 
ATOM     16  H   UNL     1       0.707   7.663  21.992  0.00  0.00    +0.000 HD
ENDBRANCH   5   7
BRANCH   1  19
ATOM     17  C   UNL     1       6.239   4.620  16.015  0.00  0.00    +0.000 C 
ATOM     18  O   UNL     1       6.875   5.246  16.860  0.00  0.00    +0.000 OA
ATOM     19  N   UNL     1       4.979   4.065  16.165  0.00  0.00    +0.000 N 
ATOM     20  H   UNL     1       4.525   3.686  15.346  0.00  0.00    +0.000 HD
BRANCH  17  22
ATOM     21  C   UNL     1       6.083   3.778  13.755  0.00  0.00    +0.000 C 
ATOM     22  C   UNL     1       6.808   4.467  14.649  0.00  0.00    +0.000 C 
BRANCH  21  24
ATOM     23  O   UNL     1       7.240   4.363  11.763  0.00  0.00    +0.000 OA
ATOM     24  C   UNL     1       6.573   3.557  12.385  0.00  0.00    +0.000 C 
BRANCH  24  25
ATOM     25  O   UNL     1       6.191   2.359  11.894  0.00  0.00    +0.000 OA
ATOM     26  H   UNL     1       6.907   1.797  11.539  0.00  0.00    +0.000 HD
ENDBRANCH  24  25
ENDBRANCH  21  24
ENDBRANCH  17  22
ENDBRANCH   1  19
TORSDOF 5
ENDMDL
MODEL 7
REMARK VINA RESULT:      -7.7      4.242      7.085
REMARK  Name = 
REMARK  5 active torsions:
REMARK  status: ('A' for Active; 'I' for Inactive)
REMARK    1  A    between atoms: C_2  and  O_3
REMARK    2  A    between atoms: C_2  and  C_4
REMARK    3  A    between atoms: C_5  and  C_6
REMARK    4  A    between atoms: N_8  and  C_9
REMARK    5  A    between atoms: C_13  and  C_14
REMARK                            x       y       z     vdW  Elec       q    Type
REMARK                         _______ _______ _______ _____ _____    ______ ____
ROOT
ATOM      1  C   UNL     1       3.123   5.344  18.915  0.00  0.00    +0.000 A 
ATOM      2  C   UNL     1       2.594   4.048  19.007  0.00  0.00    +0.000 A 
ATOM      3  C   UNL     1       2.950   3.093  18.076  0.00  0.00    +0.000 A 
ATOM      4  C   UNL     1       3.834   3.445  17.056  0.00  0.00    +0.000 A 
ATOM      5  C   UNL     1       4.442   4.734  16.927  0.00  0.00    +0.000 A 
ATOM      6  C   UNL     1       4.077   5.674  17.899  0.00  0.00    +0.000 A 
ENDROOT
BRANCH   5   7
ATOM      7  C   UNL     1       5.448   4.894  15.810  0.00  0.00    +0.000 A 
ATOM      8  N   UNL     1       6.474   5.694  16.176  0.00  0.00    +0.000 NA
ATOM      9  N   UNL     1       7.272   5.776  15.135  0.00  0.00    +0.000 N 
ATOM     10  C   UNL     1       6.983   4.916  14.133  0.00  0.00    +0.000 A 
ATOM     11  C   UNL     1       7.757   4.618  12.999  0.00  0.00    +0.000 A 
ATOM     12  C   UNL     1       7.179   3.876  12.000  0.00  0.00    +0.000 A 
ATOM     13  C   UNL     1       5.847   3.472  12.131  0.00  0.00    +0.000 A 
ATOM     14  C   UNL     1       5.097   3.727  13.325  0.00  0.00    +0.000 A 
ATOM     15  C   UNL     1       5.690   4.444  14.413  0.00  0.00    +0.000 A 
ATOM     16  H   UNL     1       8.004   6.474  15.150  0.00  0.00    +0.000 HD
ENDBRANCH   5   7
BRANCH   1  19
ATOM     17  C   UNL     1       2.123   7.555  19.475  0.00  0.00    +0.000 C 
ATOM     18  O   UNL     1       1.855   7.942  18.340  0.00  0.00    +0.000 OA
ATOM     19  N   UNL     1       2.715   6.354  19.826  0.00  0.00    +0.000 N 
ATOM     20  H   UNL     1       2.991   6.222  20.788  0.00  0.00    +0.000 HD
BRANCH  17  22
ATOM     21  C   UNL     1       0.780   8.204  21.376  0.00  0.00    +0.000 C 
ATOM     22  C   UNL     1       1.863   8.460  20.626  0.00  0.00    +0.000 C 
BRANCH  21  24
ATOM     23  O   UNL     1       1.226   9.762  23.116  0.00  0.00    +0.000 OA
ATOM     24  C   UNL     1       0.429   9.056  22.523  0.00  0.00    +0.000 C 
BRANCH  24  25
ATOM     25  O   UNL     1      -0.877   8.961  22.849  0.00  0.00    +0.000 OA
ATOM     26  H   UNL     1      -1.500   8.898  22.099  0.00  0.00    +0.000 HD
ENDBRANCH  24  25
ENDBRANCH  21  24
ENDBRANCH  17  22
ENDBRANCH   1  19
TORSDOF 5
ENDMDL
MODEL 8
REMARK VINA RESULT:      -7.7      4.788      6.870
REMARK  Name = 
REMARK  5 active torsions:
REMARK  status: ('A' for Active; 'I' for Inactive)
REMARK    1  A    between atoms: C_2  and  O_3
REMARK    2  A    between atoms: C_2  and  C_4
REMARK    3  A    between atoms: C_5  and  C_6
REMARK    4  A    between atoms: N_8  and  C_9
REMARK    5  A    between atoms: C_13  and  C_14
REMARK                            x       y       z     vdW  Elec       q    Type
REMARK                         _______ _______ _______ _____ _____    ______ ____
ROOT
ATOM      1  C   UNL     1       3.346   5.265  18.759  0.00  0.00    +0.000 A 
ATOM      2  C   UNL     1       2.781   4.188  19.460  0.00  0.00    +0.000 A 
ATOM      3  C   UNL     1       1.866   4.429  20.465  0.00  0.00    +0.000 A 
ATOM      4  C   UNL     1       1.522   5.748  20.761  0.00  0.00    +0.000 A 
ATOM      5  C   UNL     1       2.029   6.888  20.059  0.00  0.00    +0.000 A 
ATOM      6  C   UNL     1       2.939   6.610  19.032  0.00  0.00    +0.000 A 
ENDROOT
BRANCH   5   7
ATOM      7  C   UNL     1       1.465   8.232  20.464  0.00  0.00    +0.000 A 
ATOM      8  N   UNL     1       1.544   8.423  21.800  0.00  0.00    +0.000 NA
ATOM      9  N   UNL     1       1.016   9.601  22.040  0.00  0.00    +0.000 N 
ATOM     10  C   UNL     1       0.766  10.343  20.937  0.00  0.00    +0.000 A 
ATOM     11  C   UNL     1       0.407  11.699  20.870  0.00  0.00    +0.000 A 
ATOM     12  C   UNL     1      -0.010  12.197  19.662  0.00  0.00    +0.000 A 
ATOM     13  C   UNL     1      -0.089  11.342  18.559  0.00  0.00    +0.000 A 
ATOM     14  C   UNL     1       0.348   9.979  18.631  0.00  0.00    +0.000 A 
ATOM     15  C   UNL     1       0.847   9.443  19.861  0.00  0.00    +0.000 A 
ATOM     16  H   UNL     1       0.819   9.848  23.000  0.00  0.00    +0.000 HD
ENDBRANCH   5   7
BRANCH   1  19
ATOM     17  C   UNL     1       5.650   4.674  18.020  0.00  0.00    +0.000 C 
ATOM     18  O   UNL     1       6.167   4.493  19.120  0.00  0.00    +0.000 OA
ATOM     19  N   UNL     1       4.338   5.036  17.768  0.00  0.00    +0.000 N 
ATOM     20  H   UNL     1       4.082   5.273  16.820  0.00  0.00    +0.000 HD
BRANCH  17  22
ATOM     21  C   UNL     1       5.871   4.658  15.613  0.00  0.00    +0.000 C 
ATOM     22  C   UNL     1       6.493   4.569  16.799  0.00  0.00    +0.000 C 
BRANCH  21  24
ATOM     23  O   UNL     1       7.401   5.385  13.946  0.00  0.00    +0.000 OA
ATOM     24  C   UNL     1       6.618   4.545  14.351  0.00  0.00    +0.000 C 
BRANCH  24  25
ATOM     25  O   UNL     1       6.331   3.404  13.689  0.00  0.00    +0.000 OA
ATOM     26  H   UNL     1       5.416   3.074  13.786  0.00  0.00    +0.000 HD
ENDBRANCH  24  25
ENDBRANCH  21  24
ENDBRANCH  17  22
ENDBRANCH   1  19
TORSDOF 5
ENDMDL
MODEL 9
REMARK VINA RESULT:      -7.6      4.480      6.490
REMARK  Name = 
REMARK  5 active torsions:
REMARK  status: ('A' for Active; 'I' for Inactive)
REMARK    1  A    between atoms: C_2  and  O_3
REMARK    2  A    between atoms: C_2  and  C_4
REMARK    3  A    between atoms: C_5  and  C_6
REMARK    4  A    between atoms: N_8  and  C_9
REMARK    5  A    between atoms: C_13  and  C_14
REMARK                            x       y       z     vdW  Elec       q    Type
REMARK                         _______ _______ _______ _____ _____    ______ ____
ROOT
ATOM      1  C   UNL     1       3.933   5.357  17.817  0.00  0.00    +0.000 A 
ATOM      2  C   UNL     1       3.616   4.436  18.827  0.00  0.00    +0.000 A 
ATOM      3  C   UNL     1       2.781   4.811  19.860  0.00  0.00    +0.000 A 
ATOM      4  C   UNL     1       2.268   6.108  19.875  0.00  0.00    +0.000 A 
ATOM      5  C   UNL     1       2.517   7.083  18.857  0.00  0.00    +0.000 A 
ATOM      6  C   UNL     1       3.351   6.666  17.812  0.00  0.00    +0.000 A 
ENDROOT
BRANCH   5   7
ATOM      7  C   UNL     1       1.795   8.404  19.000  0.00  0.00    +0.000 A 
ATOM      8  N   UNL     1       1.793   9.097  17.840  0.00  0.00    +0.000 NA
ATOM      9  N   UNL     1       1.161  10.224  18.081  0.00  0.00    +0.000 N 
ATOM     10  C   UNL     1       0.533  10.274  19.277  0.00  0.00    +0.000 A 
ATOM     11  C   UNL     1      -0.383  11.236  19.733  0.00  0.00    +0.000 A 
ATOM     12  C   UNL     1      -0.736  11.215  21.059  0.00  0.00    +0.000 A 
ATOM     13  C   UNL     1      -0.156  10.265  21.906  0.00  0.00    +0.000 A 
ATOM     14  C   UNL     1       0.723   9.249  21.407  0.00  0.00    +0.000 A 
ATOM     15  C   UNL     1       1.063   9.204  20.017  0.00  0.00    +0.000 A 
ATOM     16  H   UNL     1       1.212  10.957  17.386  0.00  0.00    +0.000 HD
ENDBRANCH   5   7
BRANCH   1  19
ATOM     17  C   UNL     1       6.187   4.730  16.964  0.00  0.00    +0.000 C 
ATOM     18  O   UNL     1       6.807   4.738  18.025  0.00  0.00    +0.000 OA
ATOM     19  N   UNL     1       4.842   5.007  16.784  0.00  0.00    +0.000 N 
ATOM     20  H   UNL     1       4.494   5.085  15.839  0.00  0.00    +0.000 HD
BRANCH  17  22
ATOM     21  C   UNL     1       6.321   4.812  14.552  0.00  0.00    +0.000 C 
ATOM     22  C   UNL     1       6.923   4.461  15.700  0.00  0.00    +0.000 C 
BRANCH  21  24
ATOM     23  O   UNL     1       6.652   3.660  12.499  0.00  0.00    +0.000 OA
ATOM     24  C   UNL     1       6.962   4.566  13.251  0.00  0.00    +0.000 C 
BRANCH  24  25
ATOM     25  O   UNL     1       7.940   5.458  12.988  0.00  0.00    +0.000 OA
ATOM     26  H   UNL     1       8.800   5.080  12.718  0.00  0.00    +0.000 HD
ENDBRANCH  24  25
ENDBRANCH  21  24
ENDBRANCH  17  22
ENDBRANCH   1  19
TORSDOF 5
ENDMDL
