MODEL 1
REMARK VINA RESULT:      -7.2      0.000      0.000
REMARK  Name = 
REMARK  8 active torsions:
REMARK  status: ('A' for Active; 'I' for Inactive)
REMARK    1  A    between atoms: C_1  and  C_2
REMARK    2  A    between atoms: C_5  and  C_6
REMARK    3  A    between atoms: C_6  and  C_7
REMARK    4  A    between atoms: C_6  and  N_8
REMARK    5  A    between atoms: N_8  and  C_9
REMARK    6  A    between atoms: C_9  and  C_10
REMARK    7  A    between atoms: C_17  and  C_18
REMARK    8  A    between atoms: C_18  and  O_20
REMARK                            x       y       z     vdW  Elec       q    Type
REMARK                         _______ _______ _______ _____ _____    ______ ____
ROOT
ATOM      1  C   UNL     1       5.106   4.538  16.027  0.00  0.00    +0.000 C 
ATOM      2  C   UNL     1       5.959   3.754  15.009  0.00  0.00    +0.000 C 
ENDROOT
BRANCH   1   7
ATOM      3  C   UNL     1       8.152   8.028  18.244  0.00  0.00    +0.000 C 
ATOM      4  C   UNL     1       7.131   7.281  17.448  0.00  0.00    +0.000 A 
ATOM      5  N   UNL     1       6.245   7.899  16.652  0.00  0.00    +0.000 NA
ATOM      6  O   UNL     1       5.503   6.982  16.108  0.00  0.00    +0.000 OA
ATOM      7  C   UNL     1       5.842   5.774  16.506  0.00  0.00    +0.000 A 
ATOM      8  C   UNL     1       6.915   5.907  17.399  0.00  0.00    +0.000 A 
BRANCH   8   9
ATOM      9  C   UNL     1       7.696   4.879  18.155  0.00  0.00    +0.000 C 
ATOM     10  O   UNL     1       7.762   4.965  19.371  0.00  0.00    +0.000 OA
BRANCH   9  11
ATOM     11  O   UNL     1       8.329   3.845  17.564  0.00  0.00    +0.000 OA
ATOM     12  H   UNL     1       7.913   3.229  16.956  0.00  0.00    +0.000 HD
ENDBRANCH   9  11
ENDBRANCH   8   9
ENDBRANCH   1   7
BRANCH   1  13
ATOM     13  N   UNL     1       4.653   3.670  17.135  0.00  0.00    +0.000 NA
ATOM     14  H   UNL     1       4.944   4.105  18.044  0.00  0.00    +0.000 HD
BRANCH  13  15
ATOM     15  C   UNL     1       3.217   3.369  17.175  0.00  0.00    +0.000 C 
BRANCH  15  16
ATOM     16  C   UNL     1       2.623   3.920  18.450  0.00  0.00    +0.000 A 
ATOM     17  C   UNL     1       2.098   3.047  19.418  0.00  0.00    +0.000 A 
ATOM     18  C   UNL     1       1.555   3.553  20.605  0.00  0.00    +0.000 A 
ATOM     19  C   UNL     1       1.530   4.931  20.834  0.00  0.00    +0.000 A 
ATOM     20  C   UNL     1       2.050   5.808  19.877  0.00  0.00    +0.000 A 
ATOM     21 CL   UNL     1       2.020   7.538  20.167  0.00  0.00    +0.000 Cl
ATOM     22  C   UNL     1       2.595   5.306  18.688  0.00  0.00    +0.000 A 
ENDBRANCH  15  16
ENDBRANCH  13  15
ENDBRANCH   1  13
TORSDOF 6
ENDMDL
MODEL 2
REMARK VINA RESULT:      -7.2      1.771      2.797
REMARK  Name = 
REMARK  8 active torsions:
REMARK  status: ('A' for Active; 'I' for Inactive)
REMARK    1  A    between atoms: C_1  and  C_2
REMARK    2  A    between atoms: C_5  and  C_6
REMARK    3  A    between atoms: C_6  and  C_7
REMARK    4  A    between atoms: C_6  and  N_8
REMARK    5  A    between atoms: N_8  and  C_9
REMARK    6  A    between atoms: C_9  and  C_10
REMARK    7  A    between atoms: C_17  and  C_18
REMARK    8  A    between atoms: C_18  and  O_20
REMARK                            x       y       z     vdW  Elec       q    Type
REMARK                         _______ _______ _______ _____ _____    ______ ____
ROOT
ATOM      1  C   UNL     1       4.605   3.319  17.962  0.00  0.00    +0.000 C 
ATOM      2  C   UNL     1       4.150   2.485  19.177  0.00  0.00    +0.000 C 
ENDROOT
BRANCH   1   7
ATOM      3  C   UNL     1       8.022   7.135  18.333  0.00  0.00    +0.000 C 
ATOM      4  C   UNL     1       7.098   5.980  18.551  0.00  0.00    +0.000 A 
ATOM      5  N   UNL     1       6.998   5.350  19.731  0.00  0.00    +0.000 NA
ATOM      6  O   UNL     1       6.121   4.400  19.594  0.00  0.00    +0.000 OA
ATOM      7  C   UNL     1       5.631   4.357  18.374  0.00  0.00    +0.000 A 
ATOM      8  C   UNL     1       6.240   5.379  17.633  0.00  0.00    +0.000 A 
BRANCH   8   9
ATOM      9  C   UNL     1       6.071   5.792  16.206  0.00  0.00    +0.000 C 
ATOM     10  O   UNL     1       5.041   6.357  15.873  0.00  0.00    +0.000 OA
BRANCH   9  11
ATOM     11  O   UNL     1       7.006   5.582  15.257  0.00  0.00    +0.000 OA
ATOM     12  H   UNL     1       6.844   5.128  14.427  0.00  0.00    +0.000 HD
ENDBRANCH   9  11
ENDBRANCH   8   9
ENDBRANCH   1   7
BRANCH   1  13
ATOM     13  N   UNL     1       3.451   3.902  17.244  0.00  0.00    +0.000 NA
ATOM     14  H   UNL     1       3.309   3.375  16.348  0.00  0.00    +0.000 HD
BRANCH  13  15
ATOM     15  C   UNL     1       2.186   3.953  17.987  0.00  0.00    +0.000 C 
BRANCH  15  16
ATOM     16  C   UNL     1       2.084   5.273  18.714  0.00  0.00    +0.000 A 
ATOM     17  C   UNL     1       1.818   5.299  20.095  0.00  0.00    +0.000 A 
ATOM     18  C   UNL     1       1.731   6.519  20.775  0.00  0.00    +0.000 A 
ATOM     19  C   UNL     1       1.908   7.721  20.085  0.00  0.00    +0.000 A 
ATOM     20  C   UNL     1       2.173   7.706  18.712  0.00  0.00    +0.000 A 
ATOM     21 CL   UNL     1       2.398   9.217  17.848  0.00  0.00    +0.000 Cl
ATOM     22  C   UNL     1       2.261   6.487  18.028  0.00  0.00    +0.000 A 
ENDBRANCH  15  16
ENDBRANCH  13  15
ENDBRANCH   1  13
TORSDOF 6
ENDMDL
MODEL 3
REMARK VINA RESULT:      -7.1      1.596      2.001
REMARK  Name = 
REMARK  8 active torsions:
REMARK  status: ('A' for Active; 'I' for Inactive)
REMARK    1  A    between atoms: C_1  and  C_2
REMARK    2  A    between atoms: C_5  and  C_6
REMARK    3  A    between atoms: C_6  and  C_7
REMARK    4  A    between atoms: C_6  and  N_8
REMARK    5  A    between atoms: N_8  and  C_9
REMARK    6  A    between atoms: C_9  and  C_10
REMARK    7  A    between atoms: C_17  and  C_18
REMARK    8  A    between atoms: C_18  and  O_20
REMARK                            x       y       z     vdW  Elec       q    Type
REMARK                         _______ _______ _______ _____ _____    ______ ____
ROOT
ATOM      1  C   UNL     1       5.452   4.479  16.302  0.00  0.00    +0.000 C 
ATOM      2  C   UNL     1       6.200   3.813  15.129  0.00  0.00    +0.000 C 
ENDROOT
BRANCH   1   7
ATOM      3  C   UNL     1       8.321   8.243  18.295  0.00  0.00    +0.000 C 
ATOM      4  C   UNL     1       7.339   7.399  17.548  0.00  0.00    +0.000 A 
ATOM      5  N   UNL     1       6.427   7.923  16.715  0.00  0.00    +0.000 NA
ATOM      6  O   UNL     1       5.731   6.939  16.230  0.00  0.00    +0.000 OA
ATOM      7  C   UNL     1       6.126   5.777  16.703  0.00  0.00    +0.000 A 
ATOM      8  C   UNL     1       7.190   6.016  17.585  0.00  0.00    +0.000 A 
BRANCH   8   9
ATOM      9  C   UNL     1       8.017   5.076  18.404  0.00  0.00    +0.000 C 
ATOM     10  O   UNL     1       8.479   4.079  17.872  0.00  0.00    +0.000 OA
BRANCH   9  11
ATOM     11  O   UNL     1       8.291   5.275  19.710  0.00  0.00    +0.000 OA
ATOM     12  H   UNL     1       7.767   4.925  20.434  0.00  0.00    +0.000 HD
ENDBRANCH   9  11
ENDBRANCH   8   9
ENDBRANCH   1   7
BRANCH   1  13
ATOM     13  N   UNL     1       5.281   3.544  17.435  0.00  0.00    +0.000 NA
ATOM     14  H   UNL     1       6.186   3.039  17.596  0.00  0.00    +0.000 HD
BRANCH  13  15
ATOM     15  C   UNL     1       4.819   4.134  18.697  0.00  0.00    +0.000 C 
BRANCH  15  16
ATOM     16  C   UNL     1       3.402   3.688  18.971  0.00  0.00    +0.000 A 
ATOM     17  C   UNL     1       2.465   3.634  17.925  0.00  0.00    +0.000 A 
ATOM     18  C   UNL     1       1.153   3.213  18.172  0.00  0.00    +0.000 A 
ATOM     19  C   UNL     1       0.767   2.845  19.463  0.00  0.00    +0.000 A 
ATOM     20  C   UNL     1       1.691   2.895  20.511  0.00  0.00    +0.000 A 
ATOM     21 CL   UNL     1       1.204   2.429  22.131  0.00  0.00    +0.000 Cl
ATOM     22  C   UNL     1       3.005   3.315  20.267  0.00  0.00    +0.000 A 
ENDBRANCH  15  16
ENDBRANCH  13  15
ENDBRANCH   1  13
TORSDOF 6
ENDMDL
MODEL 4
REMARK VINA RESULT:      -7.0      3.446      6.553
REMARK  Name = 
REMARK  8 active torsions:
REMARK  status: ('A' for Active; 'I' for Inactive)
REMARK    1  A    between atoms: C_1  and  C_2
REMARK    2  A    between atoms: C_5  and  C_6
REMARK    3  A    between atoms: C_6  and  C_7
REMARK    4  A    between atoms: C_6  and  N_8
REMARK    5  A    between atoms: N_8  and  C_9
REMARK    6  A    between atoms: C_9  and  C_10
REMARK    7  A    between atoms: C_17  and  C_18
REMARK    8  A    between atoms: C_18  and  O_20
REMARK                            x       y       z     vdW  Elec       q    Type
REMARK                         _______ _______ _______ _____ _____    ______ ____
ROOT
ATOM      1  C   UNL     1       4.255   4.505  16.475  0.00  0.00    +0.000 C 
ATOM      2  C   UNL     1       4.519   5.990  16.796  0.00  0.00    +0.000 C 
ENDROOT
BRANCH   1   7
ATOM      3  C   UNL     1       1.645   2.333  20.327  0.00  0.00    +0.000 C 
ATOM      4  C   UNL     1       2.101   2.990  19.064  0.00  0.00    +0.000 A 
ATOM      5  N   UNL     1       1.257   3.301  18.069  0.00  0.00    +0.000 NA
ATOM      6  O   UNL     1       1.955   3.853  17.122  0.00  0.00    +0.000 OA
ATOM      7  C   UNL     1       3.233   3.921  17.430  0.00  0.00    +0.000 A 
ATOM      8  C   UNL     1       3.394   3.363  18.707  0.00  0.00    +0.000 A 
BRANCH   8   9
ATOM      9  C   UNL     1       4.615   3.175  19.549  0.00  0.00    +0.000 C 
ATOM     10  O   UNL     1       4.724   2.155  20.212  0.00  0.00    +0.000 OA
BRANCH   9  11
ATOM     11  O   UNL     1       5.618   4.075  19.613  0.00  0.00    +0.000 OA
ATOM     12  H   UNL     1       6.443   4.003  19.127  0.00  0.00    +0.000 HD
ENDBRANCH   9  11
ENDBRANCH   8   9
ENDBRANCH   1   7
BRANCH   1  13
ATOM     13  N   UNL     1       5.513   3.729  16.431  0.00  0.00    +0.000 NA
ATOM     14  H   UNL     1       5.378   2.901  15.802  0.00  0.00    +0.000 HD
BRANCH  13  15
ATOM     15  C   UNL     1       6.714   4.466  16.019  0.00  0.00    +0.000 C 
BRANCH  15  16
ATOM     16  C   UNL     1       6.839   4.419  14.514  0.00  0.00    +0.000 A 
ATOM     17  C   UNL     1       7.680   5.327  13.847  0.00  0.00    +0.000 A 
ATOM     18  C   UNL     1       7.806   5.282  12.454  0.00  0.00    +0.000 A 
ATOM     19  C   UNL     1       7.095   4.332  11.716  0.00  0.00    +0.000 A 
ATOM     20  C   UNL     1       6.257   3.424  12.369  0.00  0.00    +0.000 A 
ATOM     21 CL   UNL     1       5.367   2.231  11.441  0.00  0.00    +0.000 Cl
ATOM     22  C   UNL     1       6.128   3.466  13.763  0.00  0.00    +0.000 A 
ENDBRANCH  15  16
ENDBRANCH  13  15
ENDBRANCH   1  13
TORSDOF 6
ENDMDL
MODEL 5
REMARK VINA RESULT:      -7.0      1.302      1.378
REMARK  Name = 
REMARK  8 active torsions:
REMARK  status: ('A' for Active; 'I' for Inactive)
REMARK    1  A    between atoms: C_1  and  C_2
REMARK    2  A    between atoms: C_5  and  C_6
REMARK    3  A    between atoms: C_6  and  C_7
REMARK    4  A    between atoms: C_6  and  N_8
REMARK    5  A    between atoms: N_8  and  C_9
REMARK    6  A    between atoms: C_9  and  C_10
REMARK    7  A    between atoms: C_17  and  C_18
REMARK    8  A    between atoms: C_18  and  O_20
REMARK                            x       y       z     vdW  Elec       q    Type
REMARK                         _______ _______ _______ _____ _____    ______ ____
ROOT
ATOM      1  C   UNL     1       4.855   4.491  15.744  0.00  0.00    +0.000 C 
ATOM      2  C   UNL     1       5.372   3.809  14.461  0.00  0.00    +0.000 C 
ENDROOT
BRANCH   1   7
ATOM      3  C   UNL     1       8.166   6.867  18.869  0.00  0.00    +0.000 C 
ATOM      4  C   UNL     1       7.372   6.337  17.719  0.00  0.00    +0.000 A 
ATOM      5  N   UNL     1       7.611   6.702  16.450  0.00  0.00    +0.000 NA
ATOM      6  O   UNL     1       6.759   6.075  15.696  0.00  0.00    +0.000 OA
ATOM      7  C   UNL     1       5.952   5.309  16.398  0.00  0.00    +0.000 A 
ATOM      8  C   UNL     1       6.307   5.440  17.748  0.00  0.00    +0.000 A 
BRANCH   8   9
ATOM      9  C   UNL     1       5.738   4.811  18.979  0.00  0.00    +0.000 C 
ATOM     10  O   UNL     1       5.262   5.530  19.844  0.00  0.00    +0.000 OA
BRANCH   9  11
ATOM     11  O   UNL     1       5.711   3.478  19.187  0.00  0.00    +0.000 OA
ATOM     12  H   UNL     1       6.492   2.923  19.244  0.00  0.00    +0.000 HD
ENDBRANCH   9  11
ENDBRANCH   8   9
ENDBRANCH   1   7
BRANCH   1  13
ATOM     13  N   UNL     1       4.236   3.514  16.665  0.00  0.00    +0.000 NA
ATOM     14  H   UNL     1       4.603   3.684  17.633  0.00  0.00    +0.000 HD
BRANCH  13  15
ATOM     15  C   UNL     1       2.769   3.492  16.694  0.00  0.00    +0.000 C 
BRANCH  15  16
ATOM     16  C   UNL     1       2.293   3.628  18.121  0.00  0.00    +0.000 A 
ATOM     17  C   UNL     1       1.998   2.481  18.879  0.00  0.00    +0.000 A 
ATOM     18  C   UNL     1       1.565   2.601  20.205  0.00  0.00    +0.000 A 
ATOM     19  C   UNL     1       1.423   3.865  20.783  0.00  0.00    +0.000 A 
ATOM     20  C   UNL     1       1.713   5.012  20.039  0.00  0.00    +0.000 A 
ATOM     21 CL   UNL     1       1.535   6.598  20.769  0.00  0.00    +0.000 Cl
ATOM     22  C   UNL     1       2.147   4.896  18.712  0.00  0.00    +0.000 A 
ENDBRANCH  15  16
ENDBRANCH  13  15
ENDBRANCH   1  13
TORSDOF 6
ENDMDL
MODEL 6
REMARK VINA RESULT:      -7.0      1.960      3.298
REMARK  Name = 
REMARK  8 active torsions:
REMARK  status: ('A' for Active; 'I' for Inactive)
REMARK    1  A    between atoms: C_1  and  C_2
REMARK    2  A    between atoms: C_5  and  C_6
REMARK    3  A    between atoms: C_6  and  C_7
REMARK    4  A    between atoms: C_6  and  N_8
REMARK    5  A    between atoms: N_8  and  C_9
REMARK    6  A    between atoms: C_9  and  C_10
REMARK    7  A    between atoms: C_17  and  C_18
REMARK    8  A    between atoms: C_18  and  O_20
REMARK                            x       y       z     vdW  Elec       q    Type
REMARK                         _______ _______ _______ _____ _____    ______ ____
ROOT
ATOM      1  C   UNL     1       4.446   3.281  18.627  0.00  0.00    +0.000 C 
ATOM      2  C   UNL     1       4.388   2.431  19.912  0.00  0.00    +0.000 C 
ENDROOT
BRANCH   1   7
ATOM      3  C   UNL     1       7.863   7.057  17.960  0.00  0.00    +0.000 C 
ATOM      4  C   UNL     1       6.982   5.962  18.470  0.00  0.00    +0.000 A 
ATOM      5  N   UNL     1       7.045   5.518  19.734  0.00  0.00    +0.000 NA
ATOM      6  O   UNL     1       6.162   4.572  19.860  0.00  0.00    +0.000 OA
ATOM      7  C   UNL     1       5.512   4.353  18.737  0.00  0.00    +0.000 A 
ATOM      8  C   UNL     1       6.012   5.244  17.776  0.00  0.00    +0.000 A 
BRANCH   8   9
ATOM      9  C   UNL     1       5.651   5.441  16.338  0.00  0.00    +0.000 C 
ATOM     10  O   UNL     1       6.010   4.609  15.519  0.00  0.00    +0.000 OA
BRANCH   9  11
ATOM     11  O   UNL     1       4.934   6.492  15.891  0.00  0.00    +0.000 OA
ATOM     12  H   UNL     1       5.315   7.319  15.587  0.00  0.00    +0.000 HD
ENDBRANCH   9  11
ENDBRANCH   8   9
ENDBRANCH   1   7
BRANCH   1  13
ATOM     13  N   UNL     1       3.115   3.825  18.278  0.00  0.00    +0.000 NA
ATOM     14  H   UNL     1       2.595   3.108  17.717  0.00  0.00    +0.000 HD
BRANCH  13  15
ATOM     15  C   UNL     1       2.282   4.266  19.403  0.00  0.00    +0.000 C 
BRANCH  15  16
ATOM     16  C   UNL     1       2.152   5.771  19.372  0.00  0.00    +0.000 A 
ATOM     17  C   UNL     1       2.423   6.478  18.187  0.00  0.00    +0.000 A 
ATOM     18  C   UNL     1       2.296   7.871  18.151  0.00  0.00    +0.000 A 
ATOM     19  C   UNL     1       1.899   8.569  19.294  0.00  0.00    +0.000 A 
ATOM     20  C   UNL     1       1.627   7.875  20.477  0.00  0.00    +0.000 A 
ATOM     21 CL   UNL     1       1.125   8.754  21.911  0.00  0.00    +0.000 Cl
ATOM     22  C   UNL     1       1.752   6.481  20.517  0.00  0.00    +0.000 A 
ENDBRANCH  15  16
ENDBRANCH  13  15
ENDBRANCH   1  13
TORSDOF 6
ENDMDL
MODEL 7
REMARK VINA RESULT:      -7.0      3.412      6.195
REMARK  Name = 
REMARK  8 active torsions:
REMARK  status: ('A' for Active; 'I' for Inactive)
REMARK    1  A    between atoms: C_1  and  C_2
REMARK    2  A    between atoms: C_5  and  C_6
REMARK    3  A    between atoms: C_6  and  C_7
REMARK    4  A    between atoms: C_6  and  N_8
REMARK    5  A    between atoms: N_8  and  C_9
REMARK    6  A    between atoms: C_9  and  C_10
REMARK    7  A    between atoms: C_17  and  C_18
REMARK    8  A    between atoms: C_18  and  O_20
REMARK                            x       y       z     vdW  Elec       q    Type
REMARK                         _______ _______ _______ _____ _____    ______ ____
ROOT
ATOM      1  C   UNL     1       5.735   5.554  18.272  0.00  0.00    +0.000 C 
ATOM      2  C   UNL     1       6.844   5.437  19.337  0.00  0.00    +0.000 C 
ENDROOT
BRANCH   1   7
ATOM      3  C   UNL     1       1.438   3.595  20.291  0.00  0.00    +0.000 C 
ATOM      4  C   UNL     1       2.527   4.458  19.738  0.00  0.00    +0.000 A 
ATOM      5  N   UNL     1       2.396   5.786  19.606  0.00  0.00    +0.000 NA
ATOM      6  O   UNL     1       3.504   6.240  19.100  0.00  0.00    +0.000 OA
ATOM      7  C   UNL     1       4.373   5.277  18.879  0.00  0.00    +0.000 A 
ATOM      8  C   UNL     1       3.783   4.070  19.281  0.00  0.00    +0.000 A 
BRANCH   8   9
ATOM      9  C   UNL     1       4.303   2.668  19.259  0.00  0.00    +0.000 C 
ATOM     10  O   UNL     1       4.925   2.253  20.224  0.00  0.00    +0.000 OA
BRANCH   9  11
ATOM     11  O   UNL     1       4.113   1.823  18.224  0.00  0.00    +0.000 OA
ATOM     12  H   UNL     1       3.303   1.764  17.713  0.00  0.00    +0.000 HD
ENDBRANCH   9  11
ENDBRANCH   8   9
ENDBRANCH   1   7
BRANCH   1  13
ATOM     13  N   UNL     1       6.024   4.707  17.094  0.00  0.00    +0.000 NA
ATOM     14  H   UNL     1       6.109   3.710  17.409  0.00  0.00    +0.000 HD
BRANCH  13  15
ATOM     15  C   UNL     1       5.064   4.791  15.987  0.00  0.00    +0.000 C 
BRANCH  15  16
ATOM     16  C   UNL     1       5.783   4.546  14.681  0.00  0.00    +0.000 A 
ATOM     17  C   UNL     1       6.993   5.207  14.407  0.00  0.00    +0.000 A 
ATOM     18  C   UNL     1       7.667   4.977  13.202  0.00  0.00    +0.000 A 
ATOM     19  C   UNL     1       7.140   4.087  12.262  0.00  0.00    +0.000 A 
ATOM     20  C   UNL     1       5.937   3.425  12.525  0.00  0.00    +0.000 A 
ATOM     21 CL   UNL     1       5.278   2.306  11.344  0.00  0.00    +0.000 Cl
ATOM     22  C   UNL     1       5.260   3.652  13.730  0.00  0.00    +0.000 A 
ENDBRANCH  15  16
ENDBRANCH  13  15
ENDBRANCH   1  13
TORSDOF 6
ENDMDL
MODEL 8
REMARK VINA RESULT:      -7.0      3.296      6.440
REMARK  Name = 
REMARK  8 active torsions:
REMARK  status: ('A' for Active; 'I' for Inactive)
REMARK    1  A    between atoms: C_1  and  C_2
REMARK    2  A    between atoms: C_5  and  C_6
REMARK    3  A    between atoms: C_6  and  C_7
REMARK    4  A    between atoms: C_6  and  N_8
REMARK    5  A    between atoms: N_8  and  C_9
REMARK    6  A    between atoms: C_9  and  C_10
REMARK    7  A    between atoms: C_17  and  C_18
REMARK    8  A    between atoms: C_18  and  O_20
REMARK                            x       y       z     vdW  Elec       q    Type
REMARK                         _______ _______ _______ _____ _____    ______ ____
ROOT
ATOM      1  C   UNL     1       6.245   6.380  17.863  0.00  0.00    +0.000 C 
ATOM      2  C   UNL     1       7.669   6.487  18.446  0.00  0.00    +0.000 C 
ENDROOT
BRANCH   1   7
ATOM      3  C   UNL     1       2.795   3.456  20.297  0.00  0.00    +0.000 C 
ATOM      4  C   UNL     1       3.994   4.035  19.617  0.00  0.00    +0.000 A 
ATOM      5  N   UNL     1       5.140   3.354  19.477  0.00  0.00    +0.000 NA
ATOM      6  O   UNL     1       5.980   4.125  18.852  0.00  0.00    +0.000 OA
ATOM      7  C   UNL     1       5.453   5.298  18.571  0.00  0.00    +0.000 A 
ATOM      8  C   UNL     1       4.137   5.301  19.055  0.00  0.00    +0.000 A 
BRANCH   8   9
ATOM      9  C   UNL     1       3.080   6.358  19.019  0.00  0.00    +0.000 C 
ATOM     10  O   UNL     1       2.647   6.724  17.938  0.00  0.00    +0.000 OA
BRANCH   9  11
ATOM     11  O   UNL     1       2.566   6.931  20.127  0.00  0.00    +0.000 OA
ATOM     12  H   UNL     1       1.926   6.513  20.707  0.00  0.00    +0.000 HD
ENDBRANCH   9  11
ENDBRANCH   8   9
ENDBRANCH   1   7
BRANCH   1  13
ATOM     13  N   UNL     1       6.273   6.207  16.395  0.00  0.00    +0.000 NA
ATOM     14  H   UNL     1       7.270   6.228  16.072  0.00  0.00    +0.000 HD
BRANCH  13  15
ATOM     15  C   UNL     1       5.614   5.004  15.873  0.00  0.00    +0.000 C 
BRANCH  15  16
ATOM     16  C   UNL     1       6.166   4.684  14.504  0.00  0.00    +0.000 A 
ATOM     17  C   UNL     1       7.306   5.354  14.028  0.00  0.00    +0.000 A 
ATOM     18  C   UNL     1       7.827   5.054  12.764  0.00  0.00    +0.000 A 
ATOM     19  C   UNL     1       7.214   4.086  11.965  0.00  0.00    +0.000 A 
ATOM     20  C   UNL     1       6.079   3.414  12.428  0.00  0.00    +0.000 A 
ATOM     21 CL   UNL     1       5.312   2.196  11.424  0.00  0.00    +0.000 Cl
ATOM     22  C   UNL     1       5.555   3.710  13.693  0.00  0.00    +0.000 A 
ENDBRANCH  15  16
ENDBRANCH  13  15
ENDBRANCH   1  13
TORSDOF 6
ENDMDL
MODEL 9
REMARK VINA RESULT:      -6.9      3.409      6.599
REMARK  Name = 
REMARK  8 active torsions:
REMARK  status: ('A' for Active; 'I' for Inactive)
REMARK    1  A    between atoms: C_1  and  C_2
REMARK    2  A    between atoms: C_5  and  C_6
REMARK    3  A    between atoms: C_6  and  C_7
REMARK    4  A    between atoms: C_6  and  N_8
REMARK    5  A    between atoms: N_8  and  C_9
REMARK    6  A    between atoms: C_9  and  C_10
REMARK    7  A    between atoms: C_17  and  C_18
REMARK    8  A    between atoms: C_18  and  O_20
REMARK                            x       y       z     vdW  Elec       q    Type
REMARK                         _______ _______ _______ _____ _____    ______ ____
ROOT
ATOM      1  C   UNL     1       5.801   5.087  18.400  0.00  0.00    +0.000 C 
ATOM      2  C   UNL     1       7.045   5.394  19.257  0.00  0.00    +0.000 C 
ENDROOT
BRANCH   1   7
ATOM      3  C   UNL     1       1.782   3.220  20.998  0.00  0.00    +0.000 C 
ATOM      4  C   UNL     1       3.086   3.462  20.306  0.00  0.00    +0.000 A 
ATOM      5  N   UNL     1       4.068   2.549  20.283  0.00  0.00    +0.000 NA
ATOM      6  O   UNL     1       5.059   3.058  19.612  0.00  0.00    +0.000 OA
ATOM      7  C   UNL     1       4.791   4.275  19.189  0.00  0.00    +0.000 A 
ATOM      8  C   UNL     1       3.497   4.600  19.619  0.00  0.00    +0.000 A 
BRANCH   8   9
ATOM      9  C   UNL     1       2.683   5.841  19.430  0.00  0.00    +0.000 C 
ATOM     10  O   UNL     1       2.320   6.144  18.305  0.00  0.00    +0.000 OA
BRANCH   9  11
ATOM     11  O   UNL     1       2.314   6.648  20.446  0.00  0.00    +0.000 OA
ATOM     12  H   UNL     1       1.463   7.087  20.510  0.00  0.00    +0.000 HD
ENDBRANCH   9  11
ENDBRANCH   8   9
ENDBRANCH   1   7
BRANCH   1  13
ATOM     13  N   UNL     1       6.171   4.455  17.115  0.00  0.00    +0.000 NA
ATOM     14  H   UNL     1       6.427   3.454  17.293  0.00  0.00    +0.000 HD
BRANCH  13  15
ATOM     15  C   UNL     1       5.165   4.522  16.049  0.00  0.00    +0.000 C 
BRANCH  15  16
ATOM     16  C   UNL     1       5.845   4.378  14.707  0.00  0.00    +0.000 A 
ATOM     17  C   UNL     1       6.997   5.130  14.417  0.00  0.00    +0.000 A 
ATOM     18  C   UNL     1       7.636   4.994  13.179  0.00  0.00    +0.000 A 
ATOM     19  C   UNL     1       7.131   4.109  12.222  0.00  0.00    +0.000 A 
ATOM     20  C   UNL     1       5.986   3.357  12.502  0.00  0.00    +0.000 A 
ATOM     21 CL   UNL     1       5.355   2.245  11.300  0.00  0.00    +0.000 Cl
ATOM     22  C   UNL     1       5.344   3.490  13.739  0.00  0.00    +0.000 A 
ENDBRANCH  15  16
ENDBRANCH  13  15
ENDBRANCH   1  13
TORSDOF 6
ENDMDL
