MODEL 1
REMARK VINA RESULT:      -5.8      0.000      0.000
REMARK  Name = 
REMARK  9 active torsions:
REMARK  status: ('A' for Active; 'I' for Inactive)
REMARK    1  A    between atoms: C_1  and  C_2
REMARK    2  A    between atoms: C_2  and  O_3
REMARK    3  A    between atoms: O_3  and  C_4
REMARK    4  A    between atoms: C_8  and  O_9
REMARK    5  A    between atoms: O_9  and  C_10
REMARK    6  A    between atoms: C_10  and  C_11
REMARK    7  A    between atoms: C_12  and  C_13
REMARK    8  A    between atoms: C_13  and  N_14
REMARK    9  A    between atoms: N_14  and  C_15
REMARK                            x       y       z     vdW  Elec       q    Type
REMARK                         _______ _______ _______ _____ _____    ______ ____
ROOT
ATOM      1  C   UNL     1       2.707   3.495  18.546  0.00  0.00    +0.000 A 
ATOM      2  C   UNL     1       2.189   4.791  18.515  0.00  0.00    +0.000 A 
ATOM      3  C   UNL     1       2.914   5.829  17.930  0.00  0.00    +0.000 A 
ATOM      4  C   UNL     1       4.161   5.569  17.357  0.00  0.00    +0.000 A 
ATOM      5  C   UNL     1       4.676   4.273  17.362  0.00  0.00    +0.000 A 
ATOM      6  C   UNL     1       3.955   3.245  17.974  0.00  0.00    +0.000 A 
ENDROOT
BRANCH   1   7
ATOM      7  O   UNL     1       1.913   2.558  19.156  0.00  0.00    +0.000 OA
BRANCH   7   9
ATOM      8  C   UNL     1       1.532   2.727  21.516  0.00  0.00    +0.000 C 
ATOM      9  C   UNL     1       0.993   3.045  20.135  0.00  0.00    +0.000 C 
ENDBRANCH   7   9
ENDBRANCH   1   7
BRANCH   5  10
ATOM     10  O   UNL     1       5.904   4.119  16.777  0.00  0.00    +0.000 OA
BRANCH  10  11
ATOM     11  C   UNL     1       6.188   5.038  15.724  0.00  0.00    +0.000 C 
BRANCH  11  12
ATOM     12  C   UNL     1       5.997   4.342  14.386  0.00  0.00    +0.000 C 
ATOM     13  C   UNL     1       5.833   3.745  13.238  0.00  0.00    +0.000 C 
BRANCH  13  14
ATOM     14  C   UNL     1       5.650   3.064  11.950  0.00  0.00    +0.000 C 
BRANCH  14  15
ATOM     15  N   UNL     1       6.744   2.125  11.725  0.00  0.00    +0.000 NA
ATOM     16  C   UNL     1       6.268   0.903  11.098  0.00  0.00    +0.000 C 
ATOM     17  H   UNL     1       7.178   1.906  12.621  0.00  0.00    +0.000 HD
ENDBRANCH  14  15
ENDBRANCH  13  14
ENDBRANCH  11  12
ENDBRANCH  10  11
ENDBRANCH   5  10
TORSDOF 7
ENDMDL
MODEL 2
REMARK VINA RESULT:      -5.7      1.106      1.295
REMARK  Name = 
REMARK  9 active torsions:
REMARK  status: ('A' for Active; 'I' for Inactive)
REMARK    1  A    between atoms: C_1  and  C_2
REMARK    2  A    between atoms: C_2  and  O_3
REMARK    3  A    between atoms: O_3  and  C_4
REMARK    4  A    between atoms: C_8  and  O_9
REMARK    5  A    between atoms: O_9  and  C_10
REMARK    6  A    between atoms: C_10  and  C_11
REMARK    7  A    between atoms: C_12  and  C_13
REMARK    8  A    between atoms: C_13  and  N_14
REMARK    9  A    between atoms: N_14  and  C_15
REMARK                            x       y       z     vdW  Elec       q    Type
REMARK                         _______ _______ _______ _____ _____    ______ ____
ROOT
ATOM      1  C   UNL     1       3.383   3.877  17.416  0.00  0.00    +0.000 A 
ATOM      2  C   UNL     1       3.105   5.218  17.691  0.00  0.00    +0.000 A 
ATOM      3  C   UNL     1       4.059   6.204  17.441  0.00  0.00    +0.000 A 
ATOM      4  C   UNL     1       5.296   5.852  16.897  0.00  0.00    +0.000 A 
ATOM      5  C   UNL     1       5.575   4.519  16.597  0.00  0.00    +0.000 A 
ATOM      6  C   UNL     1       4.624   3.534  16.875  0.00  0.00    +0.000 A 
ENDROOT
BRANCH   1   7
ATOM      7  O   UNL     1       2.377   2.994  17.711  0.00  0.00    +0.000 OA
BRANCH   7   9
ATOM      8  C   UNL     1       1.038   2.891  19.696  0.00  0.00    +0.000 C 
ATOM      9  C   UNL     1       1.215   3.541  18.338  0.00  0.00    +0.000 C 
ENDBRANCH   7   9
ENDBRANCH   1   7
BRANCH   5  10
ATOM     10  O   UNL     1       6.814   4.275  16.068  0.00  0.00    +0.000 OA
BRANCH  10  11
ATOM     11  C   UNL     1       7.075   4.922  14.825  0.00  0.00    +0.000 C 
BRANCH  11  12
ATOM     12  C   UNL     1       6.397   4.149  13.706  0.00  0.00    +0.000 C 
ATOM     13  C   UNL     1       5.815   3.485  12.746  0.00  0.00    +0.000 C 
BRANCH  13  14
ATOM     14  C   UNL     1       5.152   2.736  11.670  0.00  0.00    +0.000 C 
BRANCH  14  15
ATOM     15  N   UNL     1       5.832   1.463  11.458  0.00  0.00    +0.000 NA
ATOM     16  C   UNL     1       7.204   1.666  11.020  0.00  0.00    +0.000 C 
ATOM     17  H   UNL     1       5.321   0.932  10.754  0.00  0.00    +0.000 HD
ENDBRANCH  14  15
ENDBRANCH  13  14
ENDBRANCH  11  12
ENDBRANCH  10  11
ENDBRANCH   5  10
TORSDOF 7
ENDMDL
MODEL 3
REMARK VINA RESULT:      -5.6      3.232      6.742
REMARK  Name = 
REMARK  9 active torsions:
REMARK  status: ('A' for Active; 'I' for Inactive)
REMARK    1  A    between atoms: C_1  and  C_2
REMARK    2  A    between atoms: C_2  and  O_3
REMARK    3  A    between atoms: O_3  and  C_4
REMARK    4  A    between atoms: C_8  and  O_9
REMARK    5  A    between atoms: O_9  and  C_10
REMARK    6  A    between atoms: C_10  and  C_11
REMARK    7  A    between atoms: C_12  and  C_13
REMARK    8  A    between atoms: C_13  and  N_14
REMARK    9  A    between atoms: N_14  and  C_15
REMARK                            x       y       z     vdW  Elec       q    Type
REMARK                         _______ _______ _______ _____ _____    ______ ____
ROOT
ATOM      1  C   UNL     1       6.107   4.504  15.685  0.00  0.00    +0.000 A 
ATOM      2  C   UNL     1       7.233   4.716  16.483  0.00  0.00    +0.000 A 
ATOM      3  C   UNL     1       7.206   5.664  17.506  0.00  0.00    +0.000 A 
ATOM      4  C   UNL     1       6.041   6.396  17.746  0.00  0.00    +0.000 A 
ATOM      5  C   UNL     1       4.904   6.174  16.970  0.00  0.00    +0.000 A 
ATOM      6  C   UNL     1       4.947   5.242  15.930  0.00  0.00    +0.000 A 
ENDROOT
BRANCH   1   7
ATOM      7  O   UNL     1       6.249   3.557  14.704  0.00  0.00    +0.000 OA
BRANCH   7   9
ATOM      8  C   UNL     1       5.818   3.294  12.361  0.00  0.00    +0.000 C 
ATOM      9  C   UNL     1       6.623   4.036  13.410  0.00  0.00    +0.000 C 
ENDBRANCH   7   9
ENDBRANCH   1   7
BRANCH   5  10
ATOM     10  O   UNL     1       3.813   6.941  17.281  0.00  0.00    +0.000 OA
BRANCH  10  11
ATOM     11  C   UNL     1       3.324   6.779  18.610  0.00  0.00    +0.000 C 
BRANCH  11  12
ATOM     12  C   UNL     1       2.558   5.470  18.706  0.00  0.00    +0.000 C 
ATOM     13  C   UNL     1       1.899   4.347  18.789  0.00  0.00    +0.000 C 
BRANCH  13  14
ATOM     14  C   UNL     1       1.155   3.083  18.873  0.00  0.00    +0.000 C 
BRANCH  14  15
ATOM     15  N   UNL     1       0.450   3.006  20.148  0.00  0.00    +0.000 NA
ATOM     16  C   UNL     1       1.381   2.863  21.256  0.00  0.00    +0.000 C 
ATOM     17  H   UNL     1      -0.182   2.206  20.125  0.00  0.00    +0.000 HD
ENDBRANCH  14  15
ENDBRANCH  13  14
ENDBRANCH  11  12
ENDBRANCH  10  11
ENDBRANCH   5  10
TORSDOF 7
ENDMDL
MODEL 4
REMARK VINA RESULT:      -5.6      3.940      5.426
REMARK  Name = 
REMARK  9 active torsions:
REMARK  status: ('A' for Active; 'I' for Inactive)
REMARK    1  A    between atoms: C_1  and  C_2
REMARK    2  A    between atoms: C_2  and  O_3
REMARK    3  A    between atoms: O_3  and  C_4
REMARK    4  A    between atoms: C_8  and  O_9
REMARK    5  A    between atoms: O_9  and  C_10
REMARK    6  A    between atoms: C_10  and  C_11
REMARK    7  A    between atoms: C_12  and  C_13
REMARK    8  A    between atoms: C_13  and  N_14
REMARK    9  A    between atoms: N_14  and  C_15
REMARK                            x       y       z     vdW  Elec       q    Type
REMARK                         _______ _______ _______ _____ _____    ______ ____
ROOT
ATOM      1  C   UNL     1       3.213   2.941  19.192  0.00  0.00    +0.000 A 
ATOM      2  C   UNL     1       2.848   2.965  17.844  0.00  0.00    +0.000 A 
ATOM      3  C   UNL     1       3.671   3.579  16.900  0.00  0.00    +0.000 A 
ATOM      4  C   UNL     1       4.875   4.160  17.300  0.00  0.00    +0.000 A 
ATOM      5  C   UNL     1       5.260   4.120  18.640  0.00  0.00    +0.000 A 
ATOM      6  C   UNL     1       4.418   3.527  19.584  0.00  0.00    +0.000 A 
ENDROOT
BRANCH   1   7
ATOM      7  O   UNL     1       2.324   2.321  20.032  0.00  0.00    +0.000 OA
BRANCH   7   9
ATOM      8  C   UNL     1       1.330   4.462  20.443  0.00  0.00    +0.000 C 
ATOM      9  C   UNL     1       1.073   2.983  20.233  0.00  0.00    +0.000 C 
ENDBRANCH   7   9
ENDBRANCH   1   7
BRANCH   5  10
ATOM     10  O   UNL     1       6.457   4.717  18.934  0.00  0.00    +0.000 OA
BRANCH  10  11
ATOM     11  C   UNL     1       7.244   5.074  17.800  0.00  0.00    +0.000 C 
BRANCH  11  12
ATOM     12  C   UNL     1       7.608   6.547  17.887  0.00  0.00    +0.000 C 
ATOM     13  C   UNL     1       7.919   7.812  17.960  0.00  0.00    +0.000 C 
BRANCH  13  14
ATOM     14  C   UNL     1       8.264   9.236  18.051  0.00  0.00    +0.000 C 
BRANCH  14  15
ATOM     15  N   UNL     1       9.083   9.474  19.236  0.00  0.00    +0.000 NA
ATOM     16  C   UNL     1       9.711  10.785  19.186  0.00  0.00    +0.000 C 
ATOM     17  H   UNL     1       9.799   8.751  19.290  0.00  0.00    +0.000 HD
ENDBRANCH  14  15
ENDBRANCH  13  14
ENDBRANCH  11  12
ENDBRANCH  10  11
ENDBRANCH   5  10
TORSDOF 7
ENDMDL
MODEL 5
REMARK VINA RESULT:      -5.6      2.758      6.149
REMARK  Name = 
REMARK  9 active torsions:
REMARK  status: ('A' for Active; 'I' for Inactive)
REMARK    1  A    between atoms: C_1  and  C_2
REMARK    2  A    between atoms: C_2  and  O_3
REMARK    3  A    between atoms: O_3  and  C_4
REMARK    4  A    between atoms: C_8  and  O_9
REMARK    5  A    between atoms: O_9  and  C_10
REMARK    6  A    between atoms: C_10  and  C_11
REMARK    7  A    between atoms: C_12  and  C_13
REMARK    8  A    between atoms: C_13  and  N_14
REMARK    9  A    between atoms: N_14  and  C_15
REMARK                            x       y       z     vdW  Elec       q    Type
REMARK                         _______ _______ _______ _____ _____    ______ ____
ROOT
ATOM      1  C   UNL     1       6.095   5.207  15.673  0.00  0.00    +0.000 A 
ATOM      2  C   UNL     1       7.119   4.625  16.421  0.00  0.00    +0.000 A 
ATOM      3  C   UNL     1       7.129   4.734  17.812  0.00  0.00    +0.000 A 
ATOM      4  C   UNL     1       6.099   5.417  18.462  0.00  0.00    +0.000 A 
ATOM      5  C   UNL     1       5.059   5.982  17.725  0.00  0.00    +0.000 A 
ATOM      6  C   UNL     1       5.071   5.891  16.331  0.00  0.00    +0.000 A 
ENDROOT
BRANCH   1   7
ATOM      7  O   UNL     1       6.192   5.046  14.314  0.00  0.00    +0.000 OA
BRANCH   7   9
ATOM      8  C   UNL     1       6.495   3.684  12.366  0.00  0.00    +0.000 C 
ATOM      9  C   UNL     1       6.085   3.707  13.825  0.00  0.00    +0.000 C 
ENDBRANCH   7   9
ENDBRANCH   1   7
BRANCH   5  10
ATOM     10  O   UNL     1       4.098   6.632  18.453  0.00  0.00    +0.000 OA
BRANCH  10  11
ATOM     11  C   UNL     1       2.776   6.533  17.926  0.00  0.00    +0.000 C 
BRANCH  11  12
ATOM     12  C   UNL     1       2.242   5.131  18.173  0.00  0.00    +0.000 C 
ATOM     13  C   UNL     1       1.784   3.929  18.383  0.00  0.00    +0.000 C 
BRANCH  13  14
ATOM     14  C   UNL     1       1.277   2.571  18.622  0.00  0.00    +0.000 C 
BRANCH  14  15
ATOM     15  N   UNL     1       2.174   1.592  18.017  0.00  0.00    +0.000 NA
ATOM     16  C   UNL     1       3.509   1.678  18.588  0.00  0.00    +0.000 C 
ATOM     17  H   UNL     1       2.218   1.764  17.013  0.00  0.00    +0.000 HD
ENDBRANCH  14  15
ENDBRANCH  13  14
ENDBRANCH  11  12
ENDBRANCH  10  11
ENDBRANCH   5  10
TORSDOF 7
ENDMDL
MODEL 6
REMARK VINA RESULT:      -5.5      4.566      6.094
REMARK  Name = 
REMARK  9 active torsions:
REMARK  status: ('A' for Active; 'I' for Inactive)
REMARK    1  A    between atoms: C_1  and  C_2
REMARK    2  A    between atoms: C_2  and  O_3
REMARK    3  A    between atoms: O_3  and  C_4
REMARK    4  A    between atoms: C_8  and  O_9
REMARK    5  A    between atoms: O_9  and  C_10
REMARK    6  A    between atoms: C_10  and  C_11
REMARK    7  A    between atoms: C_12  and  C_13
REMARK    8  A    between atoms: C_13  and  N_14
REMARK    9  A    between atoms: N_14  and  C_15
REMARK                            x       y       z     vdW  Elec       q    Type
REMARK                         _______ _______ _______ _____ _____    ______ ____
ROOT
ATOM      1  C   UNL     1       3.750   4.978  19.037  0.00  0.00    +0.000 A 
ATOM      2  C   UNL     1       2.612   5.786  19.012  0.00  0.00    +0.000 A 
ATOM      3  C   UNL     1       2.576   6.933  18.219  0.00  0.00    +0.000 A 
ATOM      4  C   UNL     1       3.680   7.269  17.433  0.00  0.00    +0.000 A 
ATOM      5  C   UNL     1       4.812   6.455  17.433  0.00  0.00    +0.000 A 
ATOM      6  C   UNL     1       4.850   5.322  18.250  0.00  0.00    +0.000 A 
ENDROOT
BRANCH   1   7
ATOM      7  O   UNL     1       3.678   3.883  19.859  0.00  0.00    +0.000 OA
BRANCH   7   9
ATOM      8  C   UNL     1       2.877   1.957  18.678  0.00  0.00    +0.000 C 
ATOM      9  C   UNL     1       4.086   2.636  19.292  0.00  0.00    +0.000 C 
ENDBRANCH   7   9
ENDBRANCH   1   7
BRANCH   5  10
ATOM     10  O   UNL     1       5.842   6.868  16.630  0.00  0.00    +0.000 OA
BRANCH  10  11
ATOM     11  C   UNL     1       7.146   6.599  17.140  0.00  0.00    +0.000 C 
BRANCH  11  12
ATOM     12  C   UNL     1       7.773   7.896  17.623  0.00  0.00    +0.000 C 
ATOM     13  C   UNL     1       8.310   9.010  18.038  0.00  0.00    +0.000 C 
BRANCH  13  14
ATOM     14  C   UNL     1       8.920  10.259  18.512  0.00  0.00    +0.000 C 
BRANCH  14  15
ATOM     15  N   UNL     1       9.384  10.095  19.886  0.00  0.00    +0.000 NA
ATOM     16  C   UNL     1       9.562  11.383  20.538  0.00  0.00    +0.000 C 
ATOM     17  H   UNL     1      10.270   9.590  19.875  0.00  0.00    +0.000 HD
ENDBRANCH  14  15
ENDBRANCH  13  14
ENDBRANCH  11  12
ENDBRANCH  10  11
ENDBRANCH   5  10
TORSDOF 7
ENDMDL
MODEL 7
REMARK VINA RESULT:      -5.5      1.976      2.625
REMARK  Name = 
REMARK  9 active torsions:
REMARK  status: ('A' for Active; 'I' for Inactive)
REMARK    1  A    between atoms: C_1  and  C_2
REMARK    2  A    between atoms: C_2  and  O_3
REMARK    3  A    between atoms: O_3  and  C_4
REMARK    4  A    between atoms: C_8  and  O_9
REMARK    5  A    between atoms: O_9  and  C_10
REMARK    6  A    between atoms: C_10  and  C_11
REMARK    7  A    between atoms: C_12  and  C_13
REMARK    8  A    between atoms: C_13  and  N_14
REMARK    9  A    between atoms: N_14  and  C_15
REMARK                            x       y       z     vdW  Elec       q    Type
REMARK                         _______ _______ _______ _____ _____    ______ ____
ROOT
ATOM      1  C   UNL     1       3.889   4.352  17.667  0.00  0.00    +0.000 A 
ATOM      2  C   UNL     1       3.971   5.742  17.563  0.00  0.00    +0.000 A 
ATOM      3  C   UNL     1       4.773   6.332  16.585  0.00  0.00    +0.000 A 
ATOM      4  C   UNL     1       5.487   5.528  15.694  0.00  0.00    +0.000 A 
ATOM      5  C   UNL     1       5.393   4.139  15.775  0.00  0.00    +0.000 A 
ATOM      6  C   UNL     1       4.609   3.556  16.773  0.00  0.00    +0.000 A 
ENDROOT
BRANCH   1   7
ATOM      7  O   UNL     1       3.080   3.883  18.669  0.00  0.00    +0.000 OA
BRANCH   7   9
ATOM      8  C   UNL     1       0.928   3.321  19.564  0.00  0.00    +0.000 C 
ATOM      9  C   UNL     1       1.733   3.570  18.304  0.00  0.00    +0.000 C 
ENDBRANCH   7   9
ENDBRANCH   1   7
BRANCH   5  10
ATOM     10  O   UNL     1       6.131   3.438  14.859  0.00  0.00    +0.000 OA
BRANCH  10  11
ATOM     11  C   UNL     1       6.399   4.135  13.643  0.00  0.00    +0.000 C 
BRANCH  11  12
ATOM     12  C   UNL     1       5.349   3.762  12.610  0.00  0.00    +0.000 C 
ATOM     13  C   UNL     1       4.449   3.440  11.723  0.00  0.00    +0.000 C 
BRANCH  13  14
ATOM     14  C   UNL     1       3.429   3.075  10.731  0.00  0.00    +0.000 C 
BRANCH  14  15
ATOM     15  N   UNL     1       3.545   3.935   9.559  0.00  0.00    +0.000 NA
ATOM     16  C   UNL     1       2.323   4.693   9.338  0.00  0.00    +0.000 C 
ATOM     17  H   UNL     1       3.742   3.355   8.744  0.00  0.00    +0.000 HD
ENDBRANCH  14  15
ENDBRANCH  13  14
ENDBRANCH  11  12
ENDBRANCH  10  11
ENDBRANCH   5  10
TORSDOF 7
ENDMDL
MODEL 8
REMARK VINA RESULT:      -5.4      1.183      1.408
REMARK  Name = 
REMARK  9 active torsions:
REMARK  status: ('A' for Active; 'I' for Inactive)
REMARK    1  A    between atoms: C_1  and  C_2
REMARK    2  A    between atoms: C_2  and  O_3
REMARK    3  A    between atoms: O_3  and  C_4
REMARK    4  A    between atoms: C_8  and  O_9
REMARK    5  A    between atoms: O_9  and  C_10
REMARK    6  A    between atoms: C_10  and  C_11
REMARK    7  A    between atoms: C_12  and  C_13
REMARK    8  A    between atoms: C_13  and  N_14
REMARK    9  A    between atoms: N_14  and  C_15
REMARK                            x       y       z     vdW  Elec       q    Type
REMARK                         _______ _______ _______ _____ _____    ______ ____
ROOT
ATOM      1  C   UNL     1       3.249   4.506  18.700  0.00  0.00    +0.000 A 
ATOM      2  C   UNL     1       2.491   5.619  18.333  0.00  0.00    +0.000 A 
ATOM      3  C   UNL     1       3.103   6.736  17.763  0.00  0.00    +0.000 A 
ATOM      4  C   UNL     1       4.482   6.736  17.543  0.00  0.00    +0.000 A 
ATOM      5  C   UNL     1       5.244   5.620  17.884  0.00  0.00    +0.000 A 
ATOM      6  C   UNL     1       4.628   4.516  18.479  0.00  0.00    +0.000 A 
ENDROOT
BRANCH   1   7
ATOM      7  O   UNL     1       2.546   3.471  19.260  0.00  0.00    +0.000 OA
BRANCH   7   9
ATOM      8  C   UNL     1       2.187   3.011  21.584  0.00  0.00    +0.000 C 
ATOM      9  C   UNL     1       3.131   2.854  20.409  0.00  0.00    +0.000 C 
ENDBRANCH   7   9
ENDBRANCH   1   7
BRANCH   5  10
ATOM     10  O   UNL     1       6.587   5.716  17.631  0.00  0.00    +0.000 OA
BRANCH  10  11
ATOM     11  C   UNL     1       7.180   4.542  17.081  0.00  0.00    +0.000 C 
BRANCH  11  12
ATOM     12  C   UNL     1       6.610   4.295  15.694  0.00  0.00    +0.000 C 
ATOM     13  C   UNL     1       6.121   4.083  14.503  0.00  0.00    +0.000 C 
BRANCH  13  14
ATOM     14  C   UNL     1       5.572   3.835  13.164  0.00  0.00    +0.000 C 
BRANCH  14  15
ATOM     15  N   UNL     1       6.401   2.862  12.459  0.00  0.00    +0.000 NA
ATOM     16  C   UNL     1       5.622   2.114  11.485  0.00  0.00    +0.000 C 
ATOM     17  H   UNL     1       6.806   2.222  13.141  0.00  0.00    +0.000 HD
ENDBRANCH  14  15
ENDBRANCH  13  14
ENDBRANCH  11  12
ENDBRANCH  10  11
ENDBRANCH   5  10
TORSDOF 7
ENDMDL
MODEL 9
REMARK VINA RESULT:      -5.4      4.966      7.541
REMARK  Name = 
REMARK  9 active torsions:
REMARK  status: ('A' for Active; 'I' for Inactive)
REMARK    1  A    between atoms: C_1  and  C_2
REMARK    2  A    between atoms: C_2  and  O_3
REMARK    3  A    between atoms: O_3  and  C_4
REMARK    4  A    between atoms: C_8  and  O_9
REMARK    5  A    between atoms: O_9  and  C_10
REMARK    6  A    between atoms: C_10  and  C_11
REMARK    7  A    between atoms: C_12  and  C_13
REMARK    8  A    between atoms: C_13  and  N_14
REMARK    9  A    between atoms: N_14  and  C_15
REMARK                            x       y       z     vdW  Elec       q    Type
REMARK                         _______ _______ _______ _____ _____    ______ ____
ROOT
ATOM      1  C   UNL     1       5.578   4.411  15.636  0.00  0.00    +0.000 A 
ATOM      2  C   UNL     1       4.510   4.076  16.471  0.00  0.00    +0.000 A 
ATOM      3  C   UNL     1       4.132   4.926  17.511  0.00  0.00    +0.000 A 
ATOM      4  C   UNL     1       4.815   6.128  17.710  0.00  0.00    +0.000 A 
ATOM      5  C   UNL     1       5.867   6.482  16.866  0.00  0.00    +0.000 A 
ATOM      6  C   UNL     1       6.257   5.613  15.844  0.00  0.00    +0.000 A 
ENDROOT
BRANCH   1   7
ATOM      7  O   UNL     1       5.869   3.498  14.655  0.00  0.00    +0.000 OA
BRANCH   7   9
ATOM      8  C   UNL     1       5.972   3.230  12.276  0.00  0.00    +0.000 C 
ATOM      9  C   UNL     1       6.480   4.014  13.470  0.00  0.00    +0.000 C 
ENDBRANCH   7   9
ENDBRANCH   1   7
BRANCH   5  10
ATOM     10  O   UNL     1       6.474   7.678  17.142  0.00  0.00    +0.000 OA
BRANCH  10  11
ATOM     11  C   UNL     1       7.768   7.573  17.734  0.00  0.00    +0.000 C 
BRANCH  11  12
ATOM     12  C   UNL     1       8.313   8.967  17.997  0.00  0.00    +0.000 C 
ATOM     13  C   UNL     1       8.780  10.164  18.224  0.00  0.00    +0.000 C 
BRANCH  13  14
ATOM     14  C   UNL     1       9.317  11.507  18.479  0.00  0.00    +0.000 C 
BRANCH  14  15
ATOM     15  N   UNL     1      10.128  11.496  19.691  0.00  0.00    +0.000 NA
ATOM     16  C   UNL     1       9.339  11.109  20.850  0.00  0.00    +0.000 C 
ATOM     17  H   UNL     1      10.516  12.428  19.835  0.00  0.00    +0.000 HD
ENDBRANCH  14  15
ENDBRANCH  13  14
ENDBRANCH  11  12
ENDBRANCH  10  11
ENDBRANCH   5  10
TORSDOF 7
ENDMDL
