MODEL 1
REMARK VINA RESULT:      -7.5      0.000      0.000
REMARK  Name = 
REMARK  7 active torsions:
REMARK  status: ('A' for Active; 'I' for Inactive)
REMARK    1  A    between atoms: C_1  and  C_2
REMARK    2  A    between atoms: C_2  and  N_3
REMARK    3  A    between atoms: C_2  and  C_18
REMARK    4  A    between atoms: N_3  and  C_4
REMARK    5  A    between atoms: C_9  and  O_10
REMARK    6  A    between atoms: O_10  and  C_11
REMARK    7  A    between atoms: C_11  and  C_12
REMARK                            x       y       z     vdW  Elec       q    Type
REMARK                         _______ _______ _______ _____ _____    ______ ____
ROOT
ATOM      1  C   UNL     1       6.494   5.777  16.683  0.00  0.00    +0.000 A 
ATOM      2  C   UNL     1       7.510   6.615  17.164  0.00  0.00    +0.000 A 
ATOM      3  C   UNL     1       7.896   6.590  18.508  0.00  0.00    +0.000 A 
ATOM      4  C   UNL     1       7.256   5.740  19.400  0.00  0.00    +0.000 A 
ATOM      5  C   UNL     1       6.178   4.975  18.968  0.00  0.00    +0.000 A 
ATOM      6  C   UNL     1       5.747   5.042  17.634  0.00  0.00    +0.000 A 
ENDROOT
BRANCH   1   7
ATOM      7  N   UNL     1       6.138   5.730  15.315  0.00  0.00    +0.000 N 
ATOM      8  H   UNL     1       5.117   5.802  15.264  0.00  0.00    +0.000 HD
BRANCH   7  10
ATOM      9  C   UNL     1       5.512   3.865  13.760  0.00  0.00    +0.000 C 
ATOM     10  C   UNL     1       6.643   4.598  14.480  0.00  0.00    +0.000 C 
BRANCH  10  11
ATOM     11  C   UNL     1       7.635   5.104  13.404  0.00  0.00    +0.000 C 
ATOM     12  N   UNL     1       7.428   4.643  12.134  0.00  0.00    +0.000 N 
ATOM     13  O   UNL     1       8.566   5.868  13.638  0.00  0.00    +0.000 OA
ATOM     14  H   UNL     1       6.508   4.292  11.902  0.00  0.00    +0.000 HD
ATOM     15  H   UNL     1       8.004   5.037  11.402  0.00  0.00    +0.000 HD
ENDBRANCH  10  11
ENDBRANCH   7  10
ENDBRANCH   1   7
BRANCH   6  16
ATOM     16  O   UNL     1       4.612   4.391  17.186  0.00  0.00    +0.000 OA
BRANCH  16  17
ATOM     17  C   UNL     1       3.391   5.086  17.493  0.00  0.00    +0.000 C 
BRANCH  17  18
ATOM     18  C   UNL     1       2.554   4.372  18.529  0.00  0.00    +0.000 A 
ATOM     19  C   UNL     1       2.536   4.844  19.854  0.00  0.00    +0.000 A 
ATOM     20  C   UNL     1       1.708   4.253  20.809  0.00  0.00    +0.000 A 
ATOM     21  C   UNL     1       0.880   3.193  20.451  0.00  0.00    +0.000 A 
ATOM     22  C   UNL     1       0.872   2.729  19.136  0.00  0.00    +0.000 A 
ATOM     23  C   UNL     1       1.698   3.321  18.178  0.00  0.00    +0.000 A 
ENDBRANCH  17  18
ENDBRANCH  16  17
ENDBRANCH   6  16
TORSDOF 6
ENDMDL
MODEL 2
REMARK VINA RESULT:      -7.5      0.095      1.083
REMARK  Name = 
REMARK  7 active torsions:
REMARK  status: ('A' for Active; 'I' for Inactive)
REMARK    1  A    between atoms: C_1  and  C_2
REMARK    2  A    between atoms: C_2  and  N_3
REMARK    3  A    between atoms: C_2  and  C_18
REMARK    4  A    between atoms: N_3  and  C_4
REMARK    5  A    between atoms: C_9  and  O_10
REMARK    6  A    between atoms: O_10  and  C_11
REMARK    7  A    between atoms: C_11  and  C_12
REMARK                            x       y       z     vdW  Elec       q    Type
REMARK                         _______ _______ _______ _____ _____    ______ ____
ROOT
ATOM      1  C   UNL     1       6.442   5.782  16.703  0.00  0.00    +0.000 A 
ATOM      2  C   UNL     1       7.482   6.607  17.155  0.00  0.00    +0.000 A 
ATOM      3  C   UNL     1       7.887   6.595  18.494  0.00  0.00    +0.000 A 
ATOM      4  C   UNL     1       7.243   5.774  19.409  0.00  0.00    +0.000 A 
ATOM      5  C   UNL     1       6.143   5.023  19.006  0.00  0.00    +0.000 A 
ATOM      6  C   UNL     1       5.694   5.078  17.677  0.00  0.00    +0.000 A 
ENDROOT
BRANCH   1   7
ATOM      7  N   UNL     1       6.064   5.720  15.341  0.00  0.00    +0.000 N 
ATOM      8  H   UNL     1       5.044   5.803  15.305  0.00  0.00    +0.000 HD
BRANCH   7  10
ATOM      9  C   UNL     1       5.397   3.860  13.799  0.00  0.00    +0.000 C 
ATOM     10  C   UNL     1       6.544   4.571  14.515  0.00  0.00    +0.000 C 
BRANCH  10  11
ATOM     11  C   UNL     1       7.549   5.045  13.437  0.00  0.00    +0.000 C 
ATOM     12  N   UNL     1       7.364   4.540  12.181  0.00  0.00    +0.000 N 
ATOM     13  O   UNL     1       8.471   5.824  13.658  0.00  0.00    +0.000 OA
ATOM     14  H   UNL     1       6.449   4.174  11.948  0.00  0.00    +0.000 HD
ATOM     15  H   UNL     1       7.948   4.912  11.445  0.00  0.00    +0.000 HD
ENDBRANCH  10  11
ENDBRANCH   7  10
ENDBRANCH   1   7
BRANCH   6  16
ATOM     16  O   UNL     1       4.539   4.444  17.256  0.00  0.00    +0.000 OA
BRANCH  16  17
ATOM     17  C   UNL     1       3.341   5.190  17.529  0.00  0.00    +0.000 C 
BRANCH  17  18
ATOM     18  C   UNL     1       2.450   4.518  18.548  0.00  0.00    +0.000 A 
ATOM     19  C   UNL     1       1.668   3.413  18.165  0.00  0.00    +0.000 A 
ATOM     20  C   UNL     1       0.901   2.724  19.106  0.00  0.00    +0.000 A 
ATOM     21  C   UNL     1       0.916   3.120  20.440  0.00  0.00    +0.000 A 
ATOM     22  C   UNL     1       1.705   4.200  20.837  0.00  0.00    +0.000 A 
ATOM     23  C   UNL     1       2.474   4.890  19.898  0.00  0.00    +0.000 A 
ENDBRANCH  17  18
ENDBRANCH  16  17
ENDBRANCH   6  16
TORSDOF 6
ENDMDL
MODEL 3
REMARK VINA RESULT:      -7.3      3.033      4.686
REMARK  Name = 
REMARK  7 active torsions:
REMARK  status: ('A' for Active; 'I' for Inactive)
REMARK    1  A    between atoms: C_1  and  C_2
REMARK    2  A    between atoms: C_2  and  N_3
REMARK    3  A    between atoms: C_2  and  C_18
REMARK    4  A    between atoms: N_3  and  C_4
REMARK    5  A    between atoms: C_9  and  O_10
REMARK    6  A    between atoms: O_10  and  C_11
REMARK    7  A    between atoms: C_11  and  C_12
REMARK                            x       y       z     vdW  Elec       q    Type
REMARK                         _______ _______ _______ _____ _____    ______ ____
ROOT
ATOM      1  C   UNL     1       3.579   4.043  17.455  0.00  0.00    +0.000 A 
ATOM      2  C   UNL     1       3.784   2.673  17.670  0.00  0.00    +0.000 A 
ATOM      3  C   UNL     1       2.797   1.875  18.259  0.00  0.00    +0.000 A 
ATOM      4  C   UNL     1       1.595   2.440  18.663  0.00  0.00    +0.000 A 
ATOM      5  C   UNL     1       1.409   3.814  18.553  0.00  0.00    +0.000 A 
ATOM      6  C   UNL     1       2.420   4.629  18.020  0.00  0.00    +0.000 A 
ENDROOT
BRANCH   1   7
ATOM      7  N   UNL     1       4.530   4.855  16.795  0.00  0.00    +0.000 N 
ATOM      8  H   UNL     1       4.026   5.403  16.091  0.00  0.00    +0.000 HD
BRANCH   7  10
ATOM      9  C   UNL     1       5.749   4.272  14.682  0.00  0.00    +0.000 C 
ATOM     10  C   UNL     1       5.743   4.207  16.209  0.00  0.00    +0.000 C 
BRANCH  10  11
ATOM     11  C   UNL     1       7.036   4.893  16.713  0.00  0.00    +0.000 C 
ATOM     12  N   UNL     1       7.643   4.310  17.790  0.00  0.00    +0.000 N 
ATOM     13  O   UNL     1       7.516   5.903  16.207  0.00  0.00    +0.000 OA
ATOM     14  H   UNL     1       7.432   3.339  17.984  0.00  0.00    +0.000 HD
ATOM     15  H   UNL     1       8.539   4.686  18.072  0.00  0.00    +0.000 HD
ENDBRANCH  10  11
ENDBRANCH   7  10
ENDBRANCH   1   7
BRANCH   6  16
ATOM     16  O   UNL     1       2.330   6.008  17.998  0.00  0.00    +0.000 OA
BRANCH  16  17
ATOM     17  C   UNL     1       2.644   6.626  19.258  0.00  0.00    +0.000 C 
BRANCH  17  18
ATOM     18  C   UNL     1       1.904   7.925  19.476  0.00  0.00    +0.000 A 
ATOM     19  C   UNL     1       1.431   8.248  20.761  0.00  0.00    +0.000 A 
ATOM     20  C   UNL     1       0.817   9.478  21.005  0.00  0.00    +0.000 A 
ATOM     21  C   UNL     1       0.681  10.403  19.975  0.00  0.00    +0.000 A 
ATOM     22  C   UNL     1       1.166  10.104  18.702  0.00  0.00    +0.000 A 
ATOM     23  C   UNL     1       1.782   8.876  18.455  0.00  0.00    +0.000 A 
ENDBRANCH  17  18
ENDBRANCH  16  17
ENDBRANCH   6  16
TORSDOF 6
ENDMDL
MODEL 4
REMARK VINA RESULT:      -7.3      2.825      4.862
REMARK  Name = 
REMARK  7 active torsions:
REMARK  status: ('A' for Active; 'I' for Inactive)
REMARK    1  A    between atoms: C_1  and  C_2
REMARK    2  A    between atoms: C_2  and  N_3
REMARK    3  A    between atoms: C_2  and  C_18
REMARK    4  A    between atoms: N_3  and  C_4
REMARK    5  A    between atoms: C_9  and  O_10
REMARK    6  A    between atoms: O_10  and  C_11
REMARK    7  A    between atoms: C_11  and  C_12
REMARK                            x       y       z     vdW  Elec       q    Type
REMARK                         _______ _______ _______ _____ _____    ______ ____
ROOT
ATOM      1  C   UNL     1       3.833   3.824  18.524  0.00  0.00    +0.000 A 
ATOM      2  C   UNL     1       3.602   2.575  17.930  0.00  0.00    +0.000 A 
ATOM      3  C   UNL     1       2.371   1.924  18.066  0.00  0.00    +0.000 A 
ATOM      4  C   UNL     1       1.357   2.502  18.817  0.00  0.00    +0.000 A 
ATOM      5  C   UNL     1       1.598   3.691  19.498  0.00  0.00    +0.000 A 
ATOM      6  C   UNL     1       2.851   4.317  19.416  0.00  0.00    +0.000 A 
ENDROOT
BRANCH   1   7
ATOM      7  N   UNL     1       5.041   4.536  18.338  0.00  0.00    +0.000 N 
ATOM      8  H   UNL     1       4.958   5.416  18.858  0.00  0.00    +0.000 HD
BRANCH   7  10
ATOM      9  C   UNL     1       5.134   6.156  16.427  0.00  0.00    +0.000 C 
ATOM     10  C   UNL     1       5.528   4.774  16.946  0.00  0.00    +0.000 C 
BRANCH  10  11
ATOM     11  C   UNL     1       7.071   4.667  16.872  0.00  0.00    +0.000 C 
ATOM     12  N   UNL     1       7.700   4.284  18.023  0.00  0.00    +0.000 N 
ATOM     13  O   UNL     1       7.725   4.908  15.862  0.00  0.00    +0.000 OA
ATOM     14  H   UNL     1       7.155   3.794  18.721  0.00  0.00    +0.000 HD
ATOM     15  H   UNL     1       8.696   4.114  17.968  0.00  0.00    +0.000 HD
ENDBRANCH  10  11
ENDBRANCH   7  10
ENDBRANCH   1   7
BRANCH   6  16
ATOM     16  O   UNL     1       3.175   5.434  20.164  0.00  0.00    +0.000 OA
BRANCH  16  17
ATOM     17  C   UNL     1       2.033   6.215  20.557  0.00  0.00    +0.000 C 
BRANCH  17  18
ATOM     18  C   UNL     1       1.914   7.509  19.784  0.00  0.00    +0.000 A 
ATOM     19  C   UNL     1       2.400   7.578  18.467  0.00  0.00    +0.000 A 
ATOM     20  C   UNL     1       2.227   8.734  17.704  0.00  0.00    +0.000 A 
ATOM     21  C   UNL     1       1.557   9.829  18.243  0.00  0.00    +0.000 A 
ATOM     22  C   UNL     1       1.051   9.765  19.541  0.00  0.00    +0.000 A 
ATOM     23  C   UNL     1       1.220   8.608  20.304  0.00  0.00    +0.000 A 
ENDBRANCH  17  18
ENDBRANCH  16  17
ENDBRANCH   6  16
TORSDOF 6
ENDMDL
MODEL 5
REMARK VINA RESULT:      -7.3      2.966      4.747
REMARK  Name = 
REMARK  7 active torsions:
REMARK  status: ('A' for Active; 'I' for Inactive)
REMARK    1  A    between atoms: C_1  and  C_2
REMARK    2  A    between atoms: C_2  and  N_3
REMARK    3  A    between atoms: C_2  and  C_18
REMARK    4  A    between atoms: N_3  and  C_4
REMARK    5  A    between atoms: C_9  and  O_10
REMARK    6  A    between atoms: O_10  and  C_11
REMARK    7  A    between atoms: C_11  and  C_12
REMARK                            x       y       z     vdW  Elec       q    Type
REMARK                         _______ _______ _______ _____ _____    ______ ____
ROOT
ATOM      1  C   UNL     1       3.604   3.979  17.358  0.00  0.00    +0.000 A 
ATOM      2  C   UNL     1       3.714   2.593  17.542  0.00  0.00    +0.000 A 
ATOM      3  C   UNL     1       2.687   1.857  18.141  0.00  0.00    +0.000 A 
ATOM      4  C   UNL     1       1.539   2.498  18.586  0.00  0.00    +0.000 A 
ATOM      5  C   UNL     1       1.451   3.884  18.506  0.00  0.00    +0.000 A 
ATOM      6  C   UNL     1       2.505   4.634  17.962  0.00  0.00    +0.000 A 
ENDROOT
BRANCH   1   7
ATOM      7  N   UNL     1       4.596   4.733  16.687  0.00  0.00    +0.000 N 
ATOM      8  H   UNL     1       4.146   5.177  15.881  0.00  0.00    +0.000 HD
BRANCH   7  10
ATOM      9  C   UNL     1       6.049   4.012  14.775  0.00  0.00    +0.000 C 
ATOM     10  C   UNL     1       5.868   4.055  16.292  0.00  0.00    +0.000 C 
BRANCH  10  11
ATOM     11  C   UNL     1       7.094   4.786  16.891  0.00  0.00    +0.000 C 
ATOM     12  N   UNL     1       7.463   5.946  16.270  0.00  0.00    +0.000 N 
ATOM     13  O   UNL     1       7.725   4.378  17.862  0.00  0.00    +0.000 OA
ATOM     14  H   UNL     1       6.771   6.420  15.703  0.00  0.00    +0.000 HD
ATOM     15  H   UNL     1       8.199   6.486  16.705  0.00  0.00    +0.000 HD
ENDBRANCH  10  11
ENDBRANCH   7  10
ENDBRANCH   1   7
BRANCH   6  16
ATOM     16  O   UNL     1       2.514   6.017  17.968  0.00  0.00    +0.000 OA
BRANCH  16  17
ATOM     17  C   UNL     1       2.656   6.586  19.281  0.00  0.00    +0.000 C 
BRANCH  17  18
ATOM     18  C   UNL     1       1.984   7.933  19.412  0.00  0.00    +0.000 A 
ATOM     19  C   UNL     1       1.854   8.758  18.281  0.00  0.00    +0.000 A 
ATOM     20  C   UNL     1       1.164   9.969  18.358  0.00  0.00    +0.000 A 
ATOM     21  C   UNL     1       0.586  10.364  19.561  0.00  0.00    +0.000 A 
ATOM     22  C   UNL     1       0.688   9.544  20.685  0.00  0.00    +0.000 A 
ATOM     23  C   UNL     1       1.376   8.332  20.609  0.00  0.00    +0.000 A 
ENDBRANCH  17  18
ENDBRANCH  16  17
ENDBRANCH   6  16
TORSDOF 6
ENDMDL
MODEL 6
REMARK VINA RESULT:      -7.3      2.879      4.591
REMARK  Name = 
REMARK  7 active torsions:
REMARK  status: ('A' for Active; 'I' for Inactive)
REMARK    1  A    between atoms: C_1  and  C_2
REMARK    2  A    between atoms: C_2  and  N_3
REMARK    3  A    between atoms: C_2  and  C_18
REMARK    4  A    between atoms: N_3  and  C_4
REMARK    5  A    between atoms: C_9  and  O_10
REMARK    6  A    between atoms: O_10  and  C_11
REMARK    7  A    between atoms: C_11  and  C_12
REMARK                            x       y       z     vdW  Elec       q    Type
REMARK                         _______ _______ _______ _____ _____    ______ ____
ROOT
ATOM      1  C   UNL     1       4.397   3.740  18.199  0.00  0.00    +0.000 A 
ATOM      2  C   UNL     1       3.902   2.430  18.125  0.00  0.00    +0.000 A 
ATOM      3  C   UNL     1       2.537   2.178  17.949  0.00  0.00    +0.000 A 
ATOM      4  C   UNL     1       1.640   3.234  17.867  0.00  0.00    +0.000 A 
ATOM      5  C   UNL     1       2.094   4.538  18.039  0.00  0.00    +0.000 A 
ATOM      6  C   UNL     1       3.454   4.792  18.277  0.00  0.00    +0.000 A 
ENDROOT
BRANCH   1   7
ATOM      7  N   UNL     1       5.779   4.021  18.300  0.00  0.00    +0.000 N 
ATOM      8  H   UNL     1       5.884   4.799  18.958  0.00  0.00    +0.000 HD
BRANCH   7  10
ATOM      9  C   UNL     1       5.712   4.036  15.794  0.00  0.00    +0.000 C 
ATOM     10  C   UNL     1       6.556   4.263  17.047  0.00  0.00    +0.000 C 
BRANCH  10  11
ATOM     11  C   UNL     1       7.089   5.715  16.997  0.00  0.00    +0.000 C 
ATOM     12  N   UNL     1       7.055   6.407  18.176  0.00  0.00    +0.000 N 
ATOM     13  O   UNL     1       7.520   6.251  15.981  0.00  0.00    +0.000 OA
ATOM     14  H   UNL     1       7.007   5.875  19.036  0.00  0.00    +0.000 HD
ATOM     15  H   UNL     1       7.488   7.321  18.185  0.00  0.00    +0.000 HD
ENDBRANCH  10  11
ENDBRANCH   7  10
ENDBRANCH   1   7
BRANCH   6  16
ATOM     16  O   UNL     1       3.934   6.056  18.570  0.00  0.00    +0.000 OA
BRANCH  16  17
ATOM     17  C   UNL     1       3.369   7.091  17.747  0.00  0.00    +0.000 C 
BRANCH  17  18
ATOM     18  C   UNL     1       2.454   8.017  18.515  0.00  0.00    +0.000 A 
ATOM     19  C   UNL     1       1.860   9.109  17.856  0.00  0.00    +0.000 A 
ATOM     20  C   UNL     1       0.947   9.930  18.521  0.00  0.00    +0.000 A 
ATOM     21  C   UNL     1       0.608   9.663  19.845  0.00  0.00    +0.000 A 
ATOM     22  C   UNL     1       1.173   8.571  20.501  0.00  0.00    +0.000 A 
ATOM     23  C   UNL     1       2.085   7.747  19.838  0.00  0.00    +0.000 A 
ENDBRANCH  17  18
ENDBRANCH  16  17
ENDBRANCH   6  16
TORSDOF 6
ENDMDL
MODEL 7
REMARK VINA RESULT:      -7.3      2.864      4.738
REMARK  Name = 
REMARK  7 active torsions:
REMARK  status: ('A' for Active; 'I' for Inactive)
REMARK    1  A    between atoms: C_1  and  C_2
REMARK    2  A    between atoms: C_2  and  N_3
REMARK    3  A    between atoms: C_2  and  C_18
REMARK    4  A    between atoms: N_3  and  C_4
REMARK    5  A    between atoms: C_9  and  O_10
REMARK    6  A    between atoms: O_10  and  C_11
REMARK    7  A    between atoms: C_11  and  C_12
REMARK                            x       y       z     vdW  Elec       q    Type
REMARK                         _______ _______ _______ _____ _____    ______ ____
ROOT
ATOM      1  C   UNL     1       4.337   5.827  17.316  0.00  0.00    +0.000 A 
ATOM      2  C   UNL     1       5.455   6.662  17.453  0.00  0.00    +0.000 A 
ATOM      3  C   UNL     1       6.697   6.305  16.919  0.00  0.00    +0.000 A 
ATOM      4  C   UNL     1       6.848   5.095  16.256  0.00  0.00    +0.000 A 
ATOM      5  C   UNL     1       5.781   4.206  16.196  0.00  0.00    +0.000 A 
ATOM      6  C   UNL     1       4.549   4.532  16.784  0.00  0.00    +0.000 A 
ENDROOT
BRANCH   1   7
ATOM      7  N   UNL     1       3.054   6.199  17.781  0.00  0.00    +0.000 N 
ATOM      8  H   UNL     1       2.408   6.117  16.990  0.00  0.00    +0.000 HD
BRANCH   7  10
ATOM      9  C   UNL     1       2.032   8.486  17.674  0.00  0.00    +0.000 C 
ATOM     10  C   UNL     1       2.896   7.513  18.475  0.00  0.00    +0.000 C 
BRANCH  10  11
ATOM     11  C   UNL     1       2.233   7.330  19.863  0.00  0.00    +0.000 C 
ATOM     12  N   UNL     1       2.497   6.151  20.502  0.00  0.00    +0.000 N 
ATOM     13  O   UNL     1       1.506   8.167  20.389  0.00  0.00    +0.000 OA
ATOM     14  H   UNL     1       3.320   5.633  20.220  0.00  0.00    +0.000 HD
ATOM     15  H   UNL     1       2.154   6.054  21.448  0.00  0.00    +0.000 HD
ENDBRANCH  10  11
ENDBRANCH   7  10
ENDBRANCH   1   7
BRANCH   6  16
ATOM     16  O   UNL     1       3.497   3.637  16.853  0.00  0.00    +0.000 OA
BRANCH  16  17
ATOM     17  C   UNL     1       3.705   2.576  17.802  0.00  0.00    +0.000 C 
BRANCH  17  18
ATOM     18  C   UNL     1       2.883   2.744  19.059  0.00  0.00    +0.000 A 
ATOM     19  C   UNL     1       1.496   2.952  18.959  0.00  0.00    +0.000 A 
ATOM     20  C   UNL     1       0.703   3.027  20.106  0.00  0.00    +0.000 A 
ATOM     21  C   UNL     1       1.284   2.882  21.363  0.00  0.00    +0.000 A 
ATOM     22  C   UNL     1       2.655   2.653  21.474  0.00  0.00    +0.000 A 
ATOM     23  C   UNL     1       3.449   2.576  20.329  0.00  0.00    +0.000 A 
ENDBRANCH  17  18
ENDBRANCH  16  17
ENDBRANCH   6  16
TORSDOF 6
ENDMDL
MODEL 8
REMARK VINA RESULT:      -7.2      2.886      4.697
REMARK  Name = 
REMARK  7 active torsions:
REMARK  status: ('A' for Active; 'I' for Inactive)
REMARK    1  A    between atoms: C_1  and  C_2
REMARK    2  A    between atoms: C_2  and  N_3
REMARK    3  A    between atoms: C_2  and  C_18
REMARK    4  A    between atoms: N_3  and  C_4
REMARK    5  A    between atoms: C_9  and  O_10
REMARK    6  A    between atoms: O_10  and  C_11
REMARK    7  A    between atoms: C_11  and  C_12
REMARK                            x       y       z     vdW  Elec       q    Type
REMARK                         _______ _______ _______ _____ _____    ______ ____
ROOT
ATOM      1  C   UNL     1       4.312   5.786  17.349  0.00  0.00    +0.000 A 
ATOM      2  C   UNL     1       5.430   6.625  17.459  0.00  0.00    +0.000 A 
ATOM      3  C   UNL     1       6.651   6.288  16.864  0.00  0.00    +0.000 A 
ATOM      4  C   UNL     1       6.780   5.095  16.167  0.00  0.00    +0.000 A 
ATOM      5  C   UNL     1       5.715   4.200  16.132  0.00  0.00    +0.000 A 
ATOM      6  C   UNL     1       4.508   4.505  16.779  0.00  0.00    +0.000 A 
ENDROOT
BRANCH   1   7
ATOM      7  N   UNL     1       3.048   6.139  17.876  0.00  0.00    +0.000 N 
ATOM      8  H   UNL     1       2.357   5.994  17.133  0.00  0.00    +0.000 HD
BRANCH   7  10
ATOM      9  C   UNL     1       2.044   8.426  17.652  0.00  0.00    +0.000 C 
ATOM     10  C   UNL     1       2.885   7.482  18.511  0.00  0.00    +0.000 C 
BRANCH  10  11
ATOM     11  C   UNL     1       2.194   7.362  19.891  0.00  0.00    +0.000 C 
ATOM     12  N   UNL     1       2.396   6.189  20.563  0.00  0.00    +0.000 N 
ATOM     13  O   UNL     1       1.497   8.243  20.385  0.00  0.00    +0.000 OA
ATOM     14  H   UNL     1       3.199   5.629  20.307  0.00  0.00    +0.000 HD
ATOM     15  H   UNL     1       2.034   6.130  21.505  0.00  0.00    +0.000 HD
ENDBRANCH  10  11
ENDBRANCH   7  10
ENDBRANCH   1   7
BRANCH   6  16
ATOM     16  O   UNL     1       3.465   3.602  16.870  0.00  0.00    +0.000 OA
BRANCH  16  17
ATOM     17  C   UNL     1       3.709   2.532  17.800  0.00  0.00    +0.000 C 
BRANCH  17  18
ATOM     18  C   UNL     1       2.834   2.611  19.029  0.00  0.00    +0.000 A 
ATOM     19  C   UNL     1       3.420   2.527  20.305  0.00  0.00    +0.000 A 
ATOM     20  C   UNL     1       2.644   2.680  21.456  0.00  0.00    +0.000 A 
ATOM     21  C   UNL     1       1.280   2.932  21.345  0.00  0.00    +0.000 A 
ATOM     22  C   UNL     1       0.691   3.039  20.086  0.00  0.00    +0.000 A 
ATOM     23  C   UNL     1       1.465   2.889  18.934  0.00  0.00    +0.000 A 
ENDBRANCH  17  18
ENDBRANCH  16  17
ENDBRANCH   6  16
TORSDOF 6
ENDMDL
MODEL 9
REMARK VINA RESULT:      -7.2      2.794      4.808
REMARK  Name = 
REMARK  7 active torsions:
REMARK  status: ('A' for Active; 'I' for Inactive)
REMARK    1  A    between atoms: C_1  and  C_2
REMARK    2  A    between atoms: C_2  and  N_3
REMARK    3  A    between atoms: C_2  and  C_18
REMARK    4  A    between atoms: N_3  and  C_4
REMARK    5  A    between atoms: C_9  and  O_10
REMARK    6  A    between atoms: O_10  and  C_11
REMARK    7  A    between atoms: C_11  and  C_12
REMARK                            x       y       z     vdW  Elec       q    Type
REMARK                         _______ _______ _______ _____ _____    ______ ____
ROOT
ATOM      1  C   UNL     1       3.884   3.379  18.533  0.00  0.00    +0.000 A 
ATOM      2  C   UNL     1       3.447   2.100  18.161  0.00  0.00    +0.000 A 
ATOM      3  C   UNL     1       2.095   1.748  18.227  0.00  0.00    +0.000 A 
ATOM      4  C   UNL     1       1.159   2.664  18.687  0.00  0.00    +0.000 A 
ATOM      5  C   UNL     1       1.582   3.903  19.157  0.00  0.00    +0.000 A 
ATOM      6  C   UNL     1       2.945   4.239  19.151  0.00  0.00    +0.000 A 
ENDROOT
BRANCH   1   7
ATOM      7  N   UNL     1       5.234   3.783  18.404  0.00  0.00    +0.000 N 
ATOM      8  H   UNL     1       5.401   4.512  19.104  0.00  0.00    +0.000 HD
BRANCH   7  10
ATOM      9  C   UNL     1       4.850   5.277  16.427  0.00  0.00    +0.000 C 
ATOM     10  C   UNL     1       5.732   4.201  17.059  0.00  0.00    +0.000 C 
BRANCH  10  11
ATOM     11  C   UNL     1       7.170   4.769  17.152  0.00  0.00    +0.000 C 
ATOM     12  N   UNL     1       7.480   5.765  16.269  0.00  0.00    +0.000 N 
ATOM     13  O   UNL     1       8.010   4.372  17.955  0.00  0.00    +0.000 OA
ATOM     14  H   UNL     1       6.717   6.284  15.854  0.00  0.00    +0.000 HD
ATOM     15  H   UNL     1       8.379   6.214  16.380  0.00  0.00    +0.000 HD
ENDBRANCH  10  11
ENDBRANCH   7  10
ENDBRANCH   1   7
BRANCH   6  16
ATOM     16  O   UNL     1       3.425   5.407  19.713  0.00  0.00    +0.000 OA
BRANCH  16  17
ATOM     17  C   UNL     1       2.423   6.162  20.416  0.00  0.00    +0.000 C 
BRANCH  17  18
ATOM     18  C   UNL     1       2.027   7.428  19.691  0.00  0.00    +0.000 A 
ATOM     19  C   UNL     1       1.321   8.430  20.380  0.00  0.00    +0.000 A 
ATOM     20  C   UNL     1       1.017   9.643  19.757  0.00  0.00    +0.000 A 
ATOM     21  C   UNL     1       1.426   9.873  18.447  0.00  0.00    +0.000 A 
ATOM     22  C   UNL     1       2.147   8.896  17.761  0.00  0.00    +0.000 A 
ATOM     23  C   UNL     1       2.454   7.684  18.382  0.00  0.00    +0.000 A 
ENDBRANCH  17  18
ENDBRANCH  16  17
ENDBRANCH   6  16
TORSDOF 6
ENDMDL
