MODEL 1
REMARK VINA RESULT:      -6.3      0.000      0.000
REMARK  Name = 
REMARK  11 active torsions:
REMARK  status: ('A' for Active; 'I' for Inactive)
REMARK    1  A    between atoms: C_1  and  C_2
REMARK    2  A    between atoms: C_6  and  C_7
REMARK    3  A    between atoms: C_8  and  C_9
REMARK    4  A    between atoms: C_17  and  C_18
REMARK    5  A    between atoms: C_18  and  C_19
REMARK    6  A    between atoms: C_19  and  O_21
REMARK    7  A    between atoms: O_21  and  C_22
REMARK    8  A    between atoms: C_22  and  C_23
REMARK    9  A    between atoms: C_22  and  C_24
REMARK   10  A    between atoms: C_22  and  C_25
REMARK   11  A    between atoms: C_29  and  C_30
REMARK                            x       y       z     vdW  Elec       q    Type
REMARK                         _______ _______ _______ _____ _____    ______ ____
ROOT
ATOM      1  C   UNL     1       1.310   9.261  19.273  0.00  0.00    +0.000 C 
ATOM      2  C   UNL     1       0.155  10.206  19.153  0.00  0.00    +0.000 A 
ATOM      3  S   UNL     1      -1.057   9.916  17.996  0.00  0.00    +0.000 S 
ATOM      4  C   UNL     1      -1.937  11.286  18.459  0.00  0.00    +0.000 A 
ATOM      5  C   UNL     1      -1.296  12.031  19.442  0.00  0.00    +0.000 A 
ATOM      6  C   UNL     1      -0.081  11.360  19.889  0.00  0.00    +0.000 A 
ATOM      7  C   UNL     1       0.850  11.815  20.975  0.00  0.00    +0.000 C 
ATOM      8  C   UNL     1      -1.746  13.347  19.900  0.00  0.00    +0.000 C 
ATOM      9  C   UNL     1      -3.060  13.620  20.070  0.00  0.00    +0.000 C 
ATOM     10  C   UNL     1      -4.168  12.603  19.944  0.00  0.00    +0.000 C 
ATOM     11  C   UNL     1      -4.273  12.108  18.538  0.00  0.00    +0.000 A 
ATOM     12  N   UNL     1      -5.339  12.113  17.770  0.00  0.00    +0.000 NA
ATOM     13  N   UNL     1      -5.004  11.516  16.591  0.00  0.00    +0.000 NA
ATOM     14  C   UNL     1      -3.739  11.152  16.650  0.00  0.00    +0.000 A 
ATOM     15  C   UNL     1      -2.993  10.583  15.502  0.00  0.00    +0.000 C 
ATOM     16  N   UNL     1      -3.207  11.496  17.891  0.00  0.00    +0.000 N 
ENDROOT
BRANCH   8  17
ATOM     17  C   UNL     1      -0.826  14.515  20.125  0.00  0.00    +0.000 A 
ATOM     18  C   UNL     1      -0.731  15.148  21.381  0.00  0.00    +0.000 A 
ATOM     19  C   UNL     1       0.130  16.228  21.588  0.00  0.00    +0.000 A 
ATOM     20  C   UNL     1       0.945  16.664  20.550  0.00  0.00    +0.000 A 
ATOM     21 CL   UNL     1       2.027  17.976  20.809  0.00  0.00    +0.000 Cl
ATOM     22  C   UNL     1       0.895  16.039  19.308  0.00  0.00    +0.000 A 
ATOM     23  C   UNL     1       0.003  14.981  19.093  0.00  0.00    +0.000 A 
ENDBRANCH   8  17
BRANCH  10  24
ATOM     24  C   UNL     1      -5.502  13.162  20.459  0.00  0.00    +0.000 C 
BRANCH  24  25
ATOM     25  C   UNL     1      -5.663  12.924  21.940  0.00  0.00    +0.000 C 
ATOM     26  O   UNL     1      -6.603  13.368  22.584  0.00  0.00    +0.000 OA
BRANCH  25  27
ATOM     27  O   UNL     1      -4.625  12.202  22.443  0.00  0.00    +0.000 OA
BRANCH  27  28
ATOM     28  C   UNL     1      -3.835  12.732  23.544  0.00  0.00    +0.000 C 
ATOM     29  C   UNL     1      -4.426  12.319  24.896  0.00  0.00    +0.000 C 
ATOM     30  C   UNL     1      -2.446  12.085  23.404  0.00  0.00    +0.000 C 
ATOM     31  C   UNL     1      -3.662  14.252  23.427  0.00  0.00    +0.000 C 
ENDBRANCH  27  28
ENDBRANCH  25  27
ENDBRANCH  24  25
ENDBRANCH  10  24
TORSDOF 5
ENDMDL
MODEL 2
REMARK VINA RESULT:      -6.2      1.004      1.606
REMARK  Name = 
REMARK  11 active torsions:
REMARK  status: ('A' for Active; 'I' for Inactive)
REMARK    1  A    between atoms: C_1  and  C_2
REMARK    2  A    between atoms: C_6  and  C_7
REMARK    3  A    between atoms: C_8  and  C_9
REMARK    4  A    between atoms: C_17  and  C_18
REMARK    5  A    between atoms: C_18  and  C_19
REMARK    6  A    between atoms: C_19  and  O_21
REMARK    7  A    between atoms: O_21  and  C_22
REMARK    8  A    between atoms: C_22  and  C_23
REMARK    9  A    between atoms: C_22  and  C_24
REMARK   10  A    between atoms: C_22  and  C_25
REMARK   11  A    between atoms: C_29  and  C_30
REMARK                            x       y       z     vdW  Elec       q    Type
REMARK                         _______ _______ _______ _____ _____    ______ ____
ROOT
ATOM      1  C   UNL     1       1.289   9.308  18.221  0.00  0.00    +0.000 C 
ATOM      2  C   UNL     1       0.154  10.251  18.473  0.00  0.00    +0.000 A 
ATOM      3  S   UNL     1      -1.317  10.043  17.644  0.00  0.00    +0.000 S 
ATOM      4  C   UNL     1      -2.031  11.368  18.419  0.00  0.00    +0.000 A 
ATOM      5  C   UNL     1      -1.151  12.039  19.260  0.00  0.00    +0.000 A 
ATOM      6  C   UNL     1       0.128  11.344  19.330  0.00  0.00    +0.000 A 
ATOM      7  C   UNL     1       1.311  11.721  20.173  0.00  0.00    +0.000 C 
ATOM      8  C   UNL     1      -1.452  13.313  19.917  0.00  0.00    +0.000 C 
ATOM      9  C   UNL     1      -2.676  13.563  20.436  0.00  0.00    +0.000 C 
ATOM     10  C   UNL     1      -3.793  12.552  20.520  0.00  0.00    +0.000 C 
ATOM     11  C   UNL     1      -4.259  12.166  19.153  0.00  0.00    +0.000 A 
ATOM     12  N   UNL     1      -5.485  12.222  18.685  0.00  0.00    +0.000 NA
ATOM     13  N   UNL     1      -5.470  11.720  17.419  0.00  0.00    +0.000 NA
ATOM     14  C   UNL     1      -4.236  11.361  17.125  0.00  0.00    +0.000 A 
ATOM     15  C   UNL     1      -3.815  10.888  15.785  0.00  0.00    +0.000 C 
ATOM     16  N   UNL     1      -3.401  11.612  18.211  0.00  0.00    +0.000 N 
ENDROOT
BRANCH   8  17
ATOM     17  C   UNL     1      -0.490  14.466  19.988  0.00  0.00    +0.000 A 
ATOM     18  C   UNL     1      -0.055  14.988  21.223  0.00  0.00    +0.000 A 
ATOM     19  C   UNL     1       0.845  16.055  21.284  0.00  0.00    +0.000 A 
ATOM     20  C   UNL     1       1.359  16.588  20.108  0.00  0.00    +0.000 A 
ATOM     21 CL   UNL     1       2.488  17.883  20.181  0.00  0.00    +0.000 Cl
ATOM     22  C   UNL     1       0.970  16.073  18.875  0.00  0.00    +0.000 A 
ATOM     23  C   UNL     1       0.039  15.029  18.815  0.00  0.00    +0.000 A 
ENDBRANCH   8  17
BRANCH  10  24
ATOM     24  C   UNL     1      -4.944  13.060  21.399  0.00  0.00    +0.000 C 
BRANCH  24  25
ATOM     25  C   UNL     1      -4.548  13.101  22.854  0.00  0.00    +0.000 C 
ATOM     26  O   UNL     1      -4.052  12.144  23.433  0.00  0.00    +0.000 OA
BRANCH  25  27
ATOM     27  O   UNL     1      -4.850  14.302  23.418  0.00  0.00    +0.000 OA
BRANCH  27  28
ATOM     28  C   UNL     1      -3.810  15.302  23.604  0.00  0.00    +0.000 C 
ATOM     29  C   UNL     1      -3.703  16.220  22.381  0.00  0.00    +0.000 C 
ATOM     30  C   UNL     1      -4.259  16.148  24.807  0.00  0.00    +0.000 C 
ATOM     31  C   UNL     1      -2.466  14.651  23.959  0.00  0.00    +0.000 C 
ENDBRANCH  27  28
ENDBRANCH  25  27
ENDBRANCH  24  25
ENDBRANCH  10  24
TORSDOF 5
ENDMDL
MODEL 3
REMARK VINA RESULT:      -6.1      1.999      3.123
REMARK  Name = 
REMARK  11 active torsions:
REMARK  status: ('A' for Active; 'I' for Inactive)
REMARK    1  A    between atoms: C_1  and  C_2
REMARK    2  A    between atoms: C_6  and  C_7
REMARK    3  A    between atoms: C_8  and  C_9
REMARK    4  A    between atoms: C_17  and  C_18
REMARK    5  A    between atoms: C_18  and  C_19
REMARK    6  A    between atoms: C_19  and  O_21
REMARK    7  A    between atoms: O_21  and  C_22
REMARK    8  A    between atoms: C_22  and  C_23
REMARK    9  A    between atoms: C_22  and  C_24
REMARK   10  A    between atoms: C_22  and  C_25
REMARK   11  A    between atoms: C_29  and  C_30
REMARK                            x       y       z     vdW  Elec       q    Type
REMARK                         _______ _______ _______ _____ _____    ______ ____
ROOT
ATOM      1  C   UNL     1      -2.771   9.370  16.030  0.00  0.00    +0.000 C 
ATOM      2  C   UNL     1      -3.096  10.395  17.071  0.00  0.00    +0.000 A 
ATOM      3  S   UNL     1      -4.605  11.179  17.043  0.00  0.00    +0.000 S 
ATOM      4  C   UNL     1      -4.246  12.089  18.425  0.00  0.00    +0.000 A 
ATOM      5  C   UNL     1      -2.954  11.877  18.889  0.00  0.00    +0.000 A 
ATOM      6  C   UNL     1      -2.292  10.833  18.116  0.00  0.00    +0.000 A 
ATOM      7  C   UNL     1      -0.916  10.278  18.347  0.00  0.00    +0.000 C 
ATOM      8  C   UNL     1      -2.325  12.657  19.958  0.00  0.00    +0.000 C 
ATOM      9  C   UNL     1      -3.022  13.035  21.053  0.00  0.00    +0.000 C 
ATOM     10  C   UNL     1      -4.434  12.602  21.361  0.00  0.00    +0.000 C 
ATOM     11  C   UNL     1      -5.387  13.153  20.349  0.00  0.00    +0.000 A 
ATOM     12  N   UNL     1      -6.460  13.876  20.578  0.00  0.00    +0.000 NA
ATOM     13  N   UNL     1      -7.066  14.111  19.380  0.00  0.00    +0.000 NA
ATOM     14  C   UNL     1      -6.358  13.530  18.432  0.00  0.00    +0.000 A 
ATOM     15  C   UNL     1      -6.645  13.679  16.985  0.00  0.00    +0.000 C 
ATOM     16  N   UNL     1      -5.261  12.881  18.993  0.00  0.00    +0.000 N 
ENDROOT
BRANCH   8  17
ATOM     17  C   UNL     1      -0.917  13.180  19.895  0.00  0.00    +0.000 A 
ATOM     18  C   UNL     1       0.062  12.774  20.825  0.00  0.00    +0.000 A 
ATOM     19  C   UNL     1       1.371  13.257  20.759  0.00  0.00    +0.000 A 
ATOM     20  C   UNL     1       1.734  14.120  19.732  0.00  0.00    +0.000 A 
ATOM     21 CL   UNL     1       3.352  14.695  19.632  0.00  0.00    +0.000 Cl
ATOM     22  C   UNL     1       0.796  14.514  18.782  0.00  0.00    +0.000 A 
ATOM     23  C   UNL     1      -0.525  14.059  18.873  0.00  0.00    +0.000 A 
ENDBRANCH   8  17
BRANCH  10  24
ATOM     24  C   UNL     1      -4.836  12.977  22.794  0.00  0.00    +0.000 C 
BRANCH  24  25
ATOM     25  C   UNL     1      -3.738  12.650  23.776  0.00  0.00    +0.000 C 
ATOM     26  O   UNL     1      -3.115  11.598  23.747  0.00  0.00    +0.000 OA
BRANCH  25  27
ATOM     27  O   UNL     1      -3.575  13.645  24.690  0.00  0.00    +0.000 OA
BRANCH  27  28
ATOM     28  C   UNL     1      -2.641  14.729  24.428  0.00  0.00    +0.000 C 
ATOM     29  C   UNL     1      -3.284  15.813  23.555  0.00  0.00    +0.000 C 
ATOM     30  C   UNL     1      -2.321  15.341  25.802  0.00  0.00    +0.000 C 
ATOM     31  C   UNL     1      -1.330  14.205  23.827  0.00  0.00    +0.000 C 
ENDBRANCH  27  28
ENDBRANCH  25  27
ENDBRANCH  24  25
ENDBRANCH  10  24
TORSDOF 5
ENDMDL
MODEL 4
REMARK VINA RESULT:      -5.9      0.544      1.022
REMARK  Name = 
REMARK  11 active torsions:
REMARK  status: ('A' for Active; 'I' for Inactive)
REMARK    1  A    between atoms: C_1  and  C_2
REMARK    2  A    between atoms: C_6  and  C_7
REMARK    3  A    between atoms: C_8  and  C_9
REMARK    4  A    between atoms: C_17  and  C_18
REMARK    5  A    between atoms: C_18  and  C_19
REMARK    6  A    between atoms: C_19  and  O_21
REMARK    7  A    between atoms: O_21  and  C_22
REMARK    8  A    between atoms: C_22  and  C_23
REMARK    9  A    between atoms: C_22  and  C_24
REMARK   10  A    between atoms: C_22  and  C_25
REMARK   11  A    between atoms: C_29  and  C_30
REMARK                            x       y       z     vdW  Elec       q    Type
REMARK                         _______ _______ _______ _____ _____    ______ ____
ROOT
ATOM      1  C   UNL     1       1.272   9.237  19.100  0.00  0.00    +0.000 C 
ATOM      2  C   UNL     1       0.145  10.222  19.064  0.00  0.00    +0.000 A 
ATOM      3  S   UNL     1      -1.150   9.984  17.988  0.00  0.00    +0.000 S 
ATOM      4  C   UNL     1      -1.948  11.380  18.518  0.00  0.00    +0.000 A 
ATOM      5  C   UNL     1      -1.218  12.093  19.461  0.00  0.00    +0.000 A 
ATOM      6  C   UNL     1      -0.001  11.377  19.821  0.00  0.00    +0.000 A 
ATOM      7  C   UNL     1       1.016  11.790  20.846  0.00  0.00    +0.000 C 
ATOM      8  C   UNL     1      -1.590  13.420  19.957  0.00  0.00    +0.000 C 
ATOM      9  C   UNL     1      -2.879  13.736  20.215  0.00  0.00    +0.000 C 
ATOM     10  C   UNL     1      -4.029  12.760  20.157  0.00  0.00    +0.000 C 
ATOM     11  C   UNL     1      -4.244  12.281  18.757  0.00  0.00    +0.000 A 
ATOM     12  N   UNL     1      -5.358  12.330  18.062  0.00  0.00    +0.000 NA
ATOM     13  N   UNL     1      -5.123  11.732  16.860  0.00  0.00    +0.000 NA
ATOM     14  C   UNL     1      -3.870  11.324  16.832  0.00  0.00    +0.000 A 
ATOM     15  C   UNL     1      -3.222  10.741  15.634  0.00  0.00    +0.000 C 
ATOM     16  N   UNL     1      -3.245  11.639  18.037  0.00  0.00    +0.000 N 
ENDROOT
BRANCH   8  17
ATOM     17  C   UNL     1      -0.617  14.553  20.128  0.00  0.00    +0.000 A 
ATOM     18  C   UNL     1       0.131  15.052  19.044  0.00  0.00    +0.000 A 
ATOM     19  C   UNL     1       1.029  16.110  19.206  0.00  0.00    +0.000 A 
ATOM     20  C   UNL     1       1.159  16.716  20.450  0.00  0.00    +0.000 A 
ATOM     21 CL   UNL     1       2.243  18.037  20.646  0.00  0.00    +0.000 Cl
ATOM     22  C   UNL     1       0.410  16.264  21.532  0.00  0.00    +0.000 A 
ATOM     23  C   UNL     1      -0.461  15.179  21.376  0.00  0.00    +0.000 A 
ENDBRANCH   8  17
BRANCH  10  24
ATOM     24  C   UNL     1      -5.305  13.360  20.763  0.00  0.00    +0.000 C 
BRANCH  24  25
ATOM     25  C   UNL     1      -5.476  12.947  22.204  0.00  0.00    +0.000 C 
ATOM     26  O   UNL     1      -6.194  12.018  22.547  0.00  0.00    +0.000 OA
BRANCH  25  27
ATOM     27  O   UNL     1      -4.770  13.757  23.040  0.00  0.00    +0.000 OA
BRANCH  27  28
ATOM     28  C   UNL     1      -3.871  13.179  24.027  0.00  0.00    +0.000 C 
ATOM     29  C   UNL     1      -4.647  12.374  25.076  0.00  0.00    +0.000 C 
ATOM     30  C   UNL     1      -2.966  12.211  23.246  0.00  0.00    +0.000 C 
ATOM     31  C   UNL     1      -2.978  14.251  24.665  0.00  0.00    +0.000 C 
ENDBRANCH  27  28
ENDBRANCH  25  27
ENDBRANCH  24  25
ENDBRANCH  10  24
TORSDOF 5
ENDMDL
MODEL 5
REMARK VINA RESULT:      -5.8      8.346     10.695
REMARK  Name = 
REMARK  11 active torsions:
REMARK  status: ('A' for Active; 'I' for Inactive)
REMARK    1  A    between atoms: C_1  and  C_2
REMARK    2  A    between atoms: C_6  and  C_7
REMARK    3  A    between atoms: C_8  and  C_9
REMARK    4  A    between atoms: C_17  and  C_18
REMARK    5  A    between atoms: C_18  and  C_19
REMARK    6  A    between atoms: C_19  and  O_21
REMARK    7  A    between atoms: O_21  and  C_22
REMARK    8  A    between atoms: C_22  and  C_23
REMARK    9  A    between atoms: C_22  and  C_24
REMARK   10  A    between atoms: C_22  and  C_25
REMARK   11  A    between atoms: C_29  and  C_30
REMARK                            x       y       z     vdW  Elec       q    Type
REMARK                         _______ _______ _______ _____ _____    ______ ____
ROOT
ATOM      1  C   UNL     1      11.616  11.804  18.955  0.00  0.00    +0.000 C 
ATOM      2  C   UNL     1      10.565  12.823  19.270  0.00  0.00    +0.000 A 
ATOM      3  S   UNL     1      10.662  14.377  18.587  0.00  0.00    +0.000 S 
ATOM      4  C   UNL     1       9.233  14.883  19.340  0.00  0.00    +0.000 A 
ATOM      5  C   UNL     1       8.696  13.916  20.181  0.00  0.00    +0.000 A 
ATOM      6  C   UNL     1       9.459  12.677  20.098  0.00  0.00    +0.000 A 
ATOM      7  C   UNL     1       9.160  11.388  20.806  0.00  0.00    +0.000 C 
ATOM      8  C   UNL     1       7.566  14.148  21.084  0.00  0.00    +0.000 C 
ATOM      9  C   UNL     1       6.504  14.894  20.703  0.00  0.00    +0.000 C 
ATOM     10  C   UNL     1       6.299  15.443  19.312  0.00  0.00    +0.000 C 
ATOM     11  C   UNL     1       7.350  16.454  18.984  0.00  0.00    +0.000 A 
ATOM     12  N   UNL     1       7.166  17.692  18.584  0.00  0.00    +0.000 NA
ATOM     13  N   UNL     1       8.391  18.237  18.342  0.00  0.00    +0.000 NA
ATOM     14  C   UNL     1       9.312  17.327  18.595  0.00  0.00    +0.000 A 
ATOM     15  C   UNL     1      10.768  17.602  18.564  0.00  0.00    +0.000 C 
ATOM     16  N   UNL     1       8.704  16.143  19.005  0.00  0.00    +0.000 N 
ENDROOT
BRANCH   8  17
ATOM     17  C   UNL     1       7.523  13.675  22.511  0.00  0.00    +0.000 A 
ATOM     18  C   UNL     1       8.499  14.070  23.448  0.00  0.00    +0.000 A 
ATOM     19  C   UNL     1       8.452  13.634  24.774  0.00  0.00    +0.000 A 
ATOM     20  C   UNL     1       7.400  12.830  25.196  0.00  0.00    +0.000 A 
ATOM     21 CL   UNL     1       7.324  12.315  26.835  0.00  0.00    +0.000 Cl
ATOM     22  C   UNL     1       6.405  12.449  24.300  0.00  0.00    +0.000 A 
ATOM     23  C   UNL     1       6.476  12.856  22.962  0.00  0.00    +0.000 A 
ENDBRANCH   8  17
BRANCH  10  24
ATOM     24  C   UNL     1       4.882  16.007  19.136  0.00  0.00    +0.000 C 
BRANCH  24  25
ATOM     25  C   UNL     1       4.115  15.245  18.084  0.00  0.00    +0.000 C 
ATOM     26  O   UNL     1       3.764  15.747  17.025  0.00  0.00    +0.000 OA
BRANCH  25  27
ATOM     27  O   UNL     1       3.845  13.974  18.489  0.00  0.00    +0.000 OA
BRANCH  27  28
ATOM     28  C   UNL     1       2.624  13.687  19.226  0.00  0.00    +0.000 C 
ATOM     29  C   UNL     1       2.879  13.692  20.738  0.00  0.00    +0.000 C 
ATOM     30  C   UNL     1       1.660  14.838  18.894  0.00  0.00    +0.000 C 
ATOM     31  C   UNL     1       1.979  12.378  18.752  0.00  0.00    +0.000 C 
ENDBRANCH  27  28
ENDBRANCH  25  27
ENDBRANCH  24  25
ENDBRANCH  10  24
TORSDOF 5
ENDMDL
MODEL 6
REMARK VINA RESULT:      -5.8      1.112      1.678
REMARK  Name = 
REMARK  11 active torsions:
REMARK  status: ('A' for Active; 'I' for Inactive)
REMARK    1  A    between atoms: C_1  and  C_2
REMARK    2  A    between atoms: C_6  and  C_7
REMARK    3  A    between atoms: C_8  and  C_9
REMARK    4  A    between atoms: C_17  and  C_18
REMARK    5  A    between atoms: C_18  and  C_19
REMARK    6  A    between atoms: C_19  and  O_21
REMARK    7  A    between atoms: O_21  and  C_22
REMARK    8  A    between atoms: C_22  and  C_23
REMARK    9  A    between atoms: C_22  and  C_24
REMARK   10  A    between atoms: C_22  and  C_25
REMARK   11  A    between atoms: C_29  and  C_30
REMARK                            x       y       z     vdW  Elec       q    Type
REMARK                         _______ _______ _______ _____ _____    ______ ____
ROOT
ATOM      1  C   UNL     1       0.893   9.451  20.120  0.00  0.00    +0.000 C 
ATOM      2  C   UNL     1      -0.278  10.336  19.827  0.00  0.00    +0.000 A 
ATOM      3  S   UNL     1      -1.221  10.059  18.439  0.00  0.00    +0.000 S 
ATOM      4  C   UNL     1      -2.264  11.344  18.796  0.00  0.00    +0.000 A 
ATOM      5  C   UNL     1      -1.877  12.054  19.926  0.00  0.00    +0.000 A 
ATOM      6  C   UNL     1      -0.730  11.422  20.565  0.00  0.00    +0.000 A 
ATOM      7  C   UNL     1      -0.059  11.853  21.837  0.00  0.00    +0.000 C 
ATOM      8  C   UNL     1      -2.495  13.309  20.359  0.00  0.00    +0.000 C 
ATOM      9  C   UNL     1      -3.832  13.497  20.281  0.00  0.00    +0.000 C 
ATOM     10  C   UNL     1      -4.824  12.432  19.882  0.00  0.00    +0.000 C 
ATOM     11  C   UNL     1      -4.621  12.029  18.457  0.00  0.00    +0.000 A 
ATOM     12  N   UNL     1      -5.516  12.027  17.495  0.00  0.00    +0.000 NA
ATOM     13  N   UNL     1      -4.920  11.531  16.375  0.00  0.00    +0.000 NA
ATOM     14  C   UNL     1      -3.668  11.234  16.662  0.00  0.00    +0.000 A 
ATOM     15  C   UNL     1      -2.678  10.788  15.654  0.00  0.00    +0.000 C 
ATOM     16  N   UNL     1      -3.411  11.522  18.000  0.00  0.00    +0.000 N 
ENDROOT
BRANCH   8  17
ATOM     17  C   UNL     1      -1.717  14.508  20.827  0.00  0.00    +0.000 A 
ATOM     18  C   UNL     1      -0.765  15.137  20.000  0.00  0.00    +0.000 A 
ATOM     19  C   UNL     1      -0.049  16.255  20.436  0.00  0.00    +0.000 A 
ATOM     20  C   UNL     1      -0.308  16.789  21.692  0.00  0.00    +0.000 A 
ATOM     21 CL   UNL     1       0.551  18.182  22.221  0.00  0.00    +0.000 Cl
ATOM     22  C   UNL     1      -1.265  16.207  22.519  0.00  0.00    +0.000 A 
ATOM     23  C   UNL     1      -1.953  15.063  22.095  0.00  0.00    +0.000 A 
ENDBRANCH   8  17
BRANCH  10  24
ATOM     24  C   UNL     1      -6.267  12.880  20.154  0.00  0.00    +0.000 C 
BRANCH  24  25
ATOM     25  C   UNL     1      -6.733  12.435  21.518  0.00  0.00    +0.000 C 
ATOM     26  O   UNL     1      -7.915  12.373  21.826  0.00  0.00    +0.000 OA
BRANCH  25  27
ATOM     27  O   UNL     1      -5.682  12.160  22.337  0.00  0.00    +0.000 OA
BRANCH  27  28
ATOM     28  C   UNL     1      -5.482  12.937  23.551  0.00  0.00    +0.000 C 
ATOM     29  C   UNL     1      -5.643  14.437  23.279  0.00  0.00    +0.000 C 
ATOM     30  C   UNL     1      -6.598  12.496  24.513  0.00  0.00    +0.000 C 
ATOM     31  C   UNL     1      -4.134  12.609  24.208  0.00  0.00    +0.000 C 
ENDBRANCH  27  28
ENDBRANCH  25  27
ENDBRANCH  24  25
ENDBRANCH  10  24
TORSDOF 5
ENDMDL
MODEL 7
REMARK VINA RESULT:      -5.8      1.380      1.796
REMARK  Name = 
REMARK  11 active torsions:
REMARK  status: ('A' for Active; 'I' for Inactive)
REMARK    1  A    between atoms: C_1  and  C_2
REMARK    2  A    between atoms: C_6  and  C_7
REMARK    3  A    between atoms: C_8  and  C_9
REMARK    4  A    between atoms: C_17  and  C_18
REMARK    5  A    between atoms: C_18  and  C_19
REMARK    6  A    between atoms: C_19  and  O_21
REMARK    7  A    between atoms: O_21  and  C_22
REMARK    8  A    between atoms: C_22  and  C_23
REMARK    9  A    between atoms: C_22  and  C_24
REMARK   10  A    between atoms: C_22  and  C_25
REMARK   11  A    between atoms: C_29  and  C_30
REMARK                            x       y       z     vdW  Elec       q    Type
REMARK                         _______ _______ _______ _____ _____    ______ ____
ROOT
ATOM      1  C   UNL     1       0.945   9.604  19.967  0.00  0.00    +0.000 C 
ATOM      2  C   UNL     1      -0.285  10.424  19.727  0.00  0.00    +0.000 A 
ATOM      3  S   UNL     1      -1.231  10.142  18.341  0.00  0.00    +0.000 S 
ATOM      4  C   UNL     1      -2.346  11.343  18.764  0.00  0.00    +0.000 A 
ATOM      5  C   UNL     1      -1.987  12.032  19.916  0.00  0.00    +0.000 A 
ATOM      6  C   UNL     1      -0.792  11.450  20.513  0.00  0.00    +0.000 A 
ATOM      7  C   UNL     1      -0.129  11.873  21.792  0.00  0.00    +0.000 C 
ATOM      8  C   UNL     1      -2.675  13.228  20.408  0.00  0.00    +0.000 C 
ATOM      9  C   UNL     1      -4.022  13.333  20.355  0.00  0.00    +0.000 C 
ATOM     10  C   UNL     1      -4.952  12.223  19.928  0.00  0.00    +0.000 C 
ATOM     11  C   UNL     1      -4.747  11.890  18.485  0.00  0.00    +0.000 A 
ATOM     12  N   UNL     1      -5.656  11.869  17.537  0.00  0.00    +0.000 NA
ATOM     13  N   UNL     1      -5.048  11.456  16.389  0.00  0.00    +0.000 NA
ATOM     14  C   UNL     1      -3.776  11.228  16.647  0.00  0.00    +0.000 A 
ATOM     15  C   UNL     1      -2.775  10.885  15.608  0.00  0.00    +0.000 C 
ATOM     16  N   UNL     1      -3.515  11.479  17.992  0.00  0.00    +0.000 N 
ENDROOT
BRANCH   8  17
ATOM     17  C   UNL     1      -1.967  14.454  20.912  0.00  0.00    +0.000 A 
ATOM     18  C   UNL     1      -2.164  14.933  22.223  0.00  0.00    +0.000 A 
ATOM     19  C   UNL     1      -1.498  16.069  22.689  0.00  0.00    +0.000 A 
ATOM     20  C   UNL     1      -0.588  16.719  21.864  0.00  0.00    +0.000 A 
ATOM     21 CL   UNL     1       0.254  18.101  22.445  0.00  0.00    +0.000 Cl
ATOM     22  C   UNL     1      -0.351  16.251  20.575  0.00  0.00    +0.000 A 
ATOM     23  C   UNL     1      -1.048  15.135  20.097  0.00  0.00    +0.000 A 
ENDBRANCH   8  17
BRANCH  10  24
ATOM     24  C   UNL     1      -6.416  12.568  20.237  0.00  0.00    +0.000 C 
BRANCH  24  25
ATOM     25  C   UNL     1      -6.836  12.025  21.580  0.00  0.00    +0.000 C 
ATOM     26  O   UNL     1      -7.689  11.157  21.706  0.00  0.00    +0.000 OA
BRANCH  25  27
ATOM     27  O   UNL     1      -6.180  12.648  22.596  0.00  0.00    +0.000 OA
BRANCH  27  28
ATOM     28  C   UNL     1      -6.738  13.850  23.196  0.00  0.00    +0.000 C 
ATOM     29  C   UNL     1      -7.640  13.505  24.386  0.00  0.00    +0.000 C 
ATOM     30  C   UNL     1      -5.533  14.651  23.717  0.00  0.00    +0.000 C 
ATOM     31  C   UNL     1      -7.462  14.711  22.151  0.00  0.00    +0.000 C 
ENDBRANCH  27  28
ENDBRANCH  25  27
ENDBRANCH  24  25
ENDBRANCH  10  24
TORSDOF 5
ENDMDL
MODEL 8
REMARK VINA RESULT:      -5.7      1.222      1.683
REMARK  Name = 
REMARK  11 active torsions:
REMARK  status: ('A' for Active; 'I' for Inactive)
REMARK    1  A    between atoms: C_1  and  C_2
REMARK    2  A    between atoms: C_6  and  C_7
REMARK    3  A    between atoms: C_8  and  C_9
REMARK    4  A    between atoms: C_17  and  C_18
REMARK    5  A    between atoms: C_18  and  C_19
REMARK    6  A    between atoms: C_19  and  O_21
REMARK    7  A    between atoms: O_21  and  C_22
REMARK    8  A    between atoms: C_22  and  C_23
REMARK    9  A    between atoms: C_22  and  C_24
REMARK   10  A    between atoms: C_22  and  C_25
REMARK   11  A    between atoms: C_29  and  C_30
REMARK                            x       y       z     vdW  Elec       q    Type
REMARK                         _______ _______ _______ _____ _____    ______ ____
ROOT
ATOM      1  C   UNL     1       1.305   9.518  18.390  0.00  0.00    +0.000 C 
ATOM      2  C   UNL     1       0.106  10.391  18.591  0.00  0.00    +0.000 A 
ATOM      3  S   UNL     1      -1.301  10.120  17.673  0.00  0.00    +0.000 S 
ATOM      4  C   UNL     1      -2.131  11.387  18.428  0.00  0.00    +0.000 A 
ATOM      5  C   UNL     1      -1.341  12.088  19.330  0.00  0.00    +0.000 A 
ATOM      6  C   UNL     1      -0.031  11.463  19.463  0.00  0.00    +0.000 A 
ATOM      7  C   UNL     1       1.079  11.887  20.381  0.00  0.00    +0.000 C 
ATOM      8  C   UNL     1      -1.750  13.331  19.990  0.00  0.00    +0.000 C 
ATOM      9  C   UNL     1      -3.013  13.503  20.440  0.00  0.00    +0.000 C 
ATOM     10  C   UNL     1      -4.075  12.430  20.441  0.00  0.00    +0.000 C 
ATOM     11  C   UNL     1      -4.439  12.047  19.043  0.00  0.00    +0.000 A 
ATOM     12  N   UNL     1      -5.638  12.046  18.504  0.00  0.00    +0.000 NA
ATOM     13  N   UNL     1      -5.521  11.571  17.233  0.00  0.00    +0.000 NA
ATOM     14  C   UNL     1      -4.254  11.286  17.006  0.00  0.00    +0.000 A 
ATOM     15  C   UNL     1      -3.730  10.864  15.685  0.00  0.00    +0.000 C 
ATOM     16  N   UNL     1      -3.499  11.561  18.144  0.00  0.00    +0.000 N 
ENDROOT
BRANCH   8  17
ATOM     17  C   UNL     1      -0.860  14.533  20.137  0.00  0.00    +0.000 A 
ATOM     18  C   UNL     1      -0.534  15.059  21.404  0.00  0.00    +0.000 A 
ATOM     19  C   UNL     1       0.299  16.172  21.536  0.00  0.00    +0.000 A 
ATOM     20  C   UNL     1       0.858  16.751  20.403  0.00  0.00    +0.000 A 
ATOM     21 CL   UNL     1       1.907  18.104  20.565  0.00  0.00    +0.000 Cl
ATOM     22  C   UNL     1       0.578  16.234  19.141  0.00  0.00    +0.000 A 
ATOM     23  C   UNL     1      -0.288  15.142  19.008  0.00  0.00    +0.000 A 
ENDBRANCH   8  17
BRANCH  10  24
ATOM     24  C   UNL     1      -5.302  12.857  21.259  0.00  0.00    +0.000 C 
BRANCH  24  25
ATOM     25  C   UNL     1      -4.938  13.121  22.699  0.00  0.00    +0.000 C 
ATOM     26  O   UNL     1      -4.650  12.228  23.484  0.00  0.00    +0.000 OA
BRANCH  25  27
ATOM     27  O   UNL     1      -5.013  14.447  22.996  0.00  0.00    +0.000 OA
BRANCH  27  28
ATOM     28  C   UNL     1      -6.302  15.059  23.277  0.00  0.00    +0.000 C 
ATOM     29  C   UNL     1      -7.212  14.099  24.050  0.00  0.00    +0.000 C 
ATOM     30  C   UNL     1      -5.998  16.269  24.177  0.00  0.00    +0.000 C 
ATOM     31  C   UNL     1      -6.965  15.579  21.994  0.00  0.00    +0.000 C 
ENDBRANCH  27  28
ENDBRANCH  25  27
ENDBRANCH  24  25
ENDBRANCH  10  24
TORSDOF 5
ENDMDL
MODEL 9
REMARK VINA RESULT:      -5.7      3.429      5.891
REMARK  Name = 
REMARK  11 active torsions:
REMARK  status: ('A' for Active; 'I' for Inactive)
REMARK    1  A    between atoms: C_1  and  C_2
REMARK    2  A    between atoms: C_6  and  C_7
REMARK    3  A    between atoms: C_8  and  C_9
REMARK    4  A    between atoms: C_17  and  C_18
REMARK    5  A    between atoms: C_18  and  C_19
REMARK    6  A    between atoms: C_19  and  O_21
REMARK    7  A    between atoms: O_21  and  C_22
REMARK    8  A    between atoms: C_22  and  C_23
REMARK    9  A    between atoms: C_22  and  C_24
REMARK   10  A    between atoms: C_22  and  C_25
REMARK   11  A    between atoms: C_29  and  C_30
REMARK                            x       y       z     vdW  Elec       q    Type
REMARK                         _______ _______ _______ _____ _____    ______ ____
ROOT
ATOM      1  C   UNL     1       0.772  17.369  20.028  0.00  0.00    +0.000 C 
ATOM      2  C   UNL     1      -0.108  16.300  20.597  0.00  0.00    +0.000 A 
ATOM      3  S   UNL     1      -0.691  16.444  22.189  0.00  0.00    +0.000 S 
ATOM      4  C   UNL     1      -1.547  14.987  22.090  0.00  0.00    +0.000 A 
ATOM      5  C   UNL     1      -1.349  14.326  20.884  0.00  0.00    +0.000 A 
ATOM      6  C   UNL     1      -0.538  15.132  19.980  0.00  0.00    +0.000 A 
ATOM      7  C   UNL     1      -0.156  14.792  18.569  0.00  0.00    +0.000 C 
ATOM      8  C   UNL     1      -1.828  12.971  20.600  0.00  0.00    +0.000 C 
ATOM      9  C   UNL     1      -3.044  12.554  21.021  0.00  0.00    +0.000 C 
ATOM     10  C   UNL     1      -4.069  13.439  21.686  0.00  0.00    +0.000 C 
ATOM     11  C   UNL     1      -3.576  13.909  23.017  0.00  0.00    +0.000 A 
ATOM     12  N   UNL     1      -4.176  13.779  24.179  0.00  0.00    +0.000 NA
ATOM     13  N   UNL     1      -3.406  14.401  25.115  0.00  0.00    +0.000 NA
ATOM     14  C   UNL     1      -2.345  14.905  24.518  0.00  0.00    +0.000 A 
ATOM     15  C   UNL     1      -1.220  15.545  25.242  0.00  0.00    +0.000 C 
ATOM     16  N   UNL     1      -2.398  14.632  23.153  0.00  0.00    +0.000 N 
ENDROOT
BRANCH   8  17
ATOM     17  C   UNL     1      -1.000  11.915  19.922  0.00  0.00    +0.000 A 
ATOM     18  C   UNL     1      -1.446  11.267  18.752  0.00  0.00    +0.000 A 
ATOM     19  C   UNL     1      -0.671  10.291  18.121  0.00  0.00    +0.000 A 
ATOM     20  C   UNL     1       0.587   9.981  18.626  0.00  0.00    +0.000 A 
ATOM     21 CL   UNL     1       1.556   8.801  17.835  0.00  0.00    +0.000 Cl
ATOM     22  C   UNL     1       1.066  10.627  19.761  0.00  0.00    +0.000 A 
ATOM     23  C   UNL     1       0.271  11.577  20.414  0.00  0.00    +0.000 A 
ENDBRANCH   8  17
BRANCH  10  24
ATOM     24  C   UNL     1      -5.431  12.738  21.791  0.00  0.00    +0.000 C 
BRANCH  24  25
ATOM     25  C   UNL     1      -6.446  13.369  20.871  0.00  0.00    +0.000 C 
ATOM     26  O   UNL     1      -7.541  13.754  21.257  0.00  0.00    +0.000 OA
BRANCH  25  27
ATOM     27  O   UNL     1      -5.996  13.409  19.587  0.00  0.00    +0.000 OA
BRANCH  27  28
ATOM     28  C   UNL     1      -6.406  12.385  18.639  0.00  0.00    +0.000 C 
ATOM     29  C   UNL     1      -7.259  12.983  17.515  0.00  0.00    +0.000 C 
ATOM     30  C   UNL     1      -5.103  11.846  18.024  0.00  0.00    +0.000 C 
ATOM     31  C   UNL     1      -7.113  11.220  19.345  0.00  0.00    +0.000 C 
ENDBRANCH  27  28
ENDBRANCH  25  27
ENDBRANCH  24  25
ENDBRANCH  10  24
TORSDOF 5
ENDMDL
