MODEL 1
REMARK VINA RESULT:      -7.2      0.000      0.000
REMARK  Name = 
REMARK  7 active torsions:
REMARK  status: ('A' for Active; 'I' for Inactive)
REMARK    1  A    between atoms: C_1  and  C_2
REMARK    2  A    between atoms: C_5  and  C_6
REMARK    3  A    between atoms: N_11  and  C_12
REMARK    4  A    between atoms: C_12  and  C_13
REMARK    5  A    between atoms: N_15  and  C_16
REMARK    6  A    between atoms: C_20  and  C_21
REMARK    7  A    between atoms: C_21  and  O_23
REMARK                            x       y       z     vdW  Elec       q    Type
REMARK                         _______ _______ _______ _____ _____    ______ ____
ROOT
ATOM      1  C   UNL     1       1.881   6.382  20.465  0.00  0.00    +0.000 C 
ATOM      2  C   UNL     1       1.475   7.657  20.389  0.00  0.00    +0.000 C 
ATOM      3  S   UNL     1       0.661   8.445  21.689  0.00  0.00    +0.000 S 
ATOM      4  C   UNL     1       0.769  10.024  20.923  0.00  0.00    +0.000 C 
ATOM      5  S   UNL     1       0.325  11.424  21.710  0.00  0.00    +0.000 S 
ATOM      6  N   UNL     1       1.259   9.884  19.644  0.00  0.00    +0.000 N 
ATOM      7  C   UNL     1       1.694   8.622  19.280  0.00  0.00    +0.000 C 
ATOM      8  O   UNL     1       2.245   8.374  18.215  0.00  0.00    +0.000 OA
ENDROOT
BRANCH   1  13
ATOM      9  C   UNL     1       5.027   3.838  16.355  0.00  0.00    +0.000 C 
ATOM     10  C   UNL     1       4.207   4.446  17.454  0.00  0.00    +0.000 A 
ATOM     11  C   UNL     1       2.812   4.342  17.450  0.00  0.00    +0.000 A 
ATOM     12  C   UNL     1       2.056   4.955  18.453  0.00  0.00    +0.000 A 
ATOM     13  C   UNL     1       2.687   5.680  19.469  0.00  0.00    +0.000 A 
ATOM     14  C   UNL     1       4.080   5.767  19.490  0.00  0.00    +0.000 A 
ATOM     15  C   UNL     1       4.836   5.153  18.487  0.00  0.00    +0.000 A 
ENDBRANCH   1  13
BRANCH   6  16
ATOM     16  C   UNL     1       1.377  10.975  18.676  0.00  0.00    +0.000 C 
BRANCH  16  17
ATOM     17  C   UNL     1       0.017  11.521  18.230  0.00  0.00    +0.000 C 
ATOM     18  O   UNL     1      -0.237  12.720  18.311  0.00  0.00    +0.000 OA
ATOM     19  N   UNL     1      -0.926  10.552  17.917  0.00  0.00    +0.000 N 
ATOM     20  H   UNL     1      -0.778   9.629  18.331  0.00  0.00    +0.000 HD
BRANCH  19  21
ATOM     21  C   UNL     1      -2.236  10.869  17.514  0.00  0.00    +0.000 A 
ATOM     22  C   UNL     1      -2.582  10.683  16.173  0.00  0.00    +0.000 A 
ATOM     23  C   UNL     1      -3.889  10.927  15.749  0.00  0.00    +0.000 A 
ATOM     24  C   UNL     1      -4.835  11.413  16.652  0.00  0.00    +0.000 A 
ATOM     25  C   UNL     1      -4.483  11.649  17.985  0.00  0.00    +0.000 A 
ATOM     26  C   UNL     1      -3.178  11.374  18.417  0.00  0.00    +0.000 A 
BRANCH  25  27
ATOM     27  C   UNL     1      -5.504  12.248  18.883  0.00  0.00    +0.000 C 
ATOM     28  O   UNL     1      -6.460  11.622  19.298  0.00  0.00    +0.000 OA
BRANCH  27  29
ATOM     29  O   UNL     1      -5.258  13.534  19.219  0.00  0.00    +0.000 OA
ATOM     30  H   UNL     1      -5.605  14.201  18.605  0.00  0.00    +0.000 HD
ENDBRANCH  27  29
ENDBRANCH  25  27
ENDBRANCH  19  21
ENDBRANCH  16  17
ENDBRANCH   6  16
TORSDOF 6
ENDMDL
MODEL 2
REMARK VINA RESULT:      -7.1      3.890      6.079
REMARK  Name = 
REMARK  7 active torsions:
REMARK  status: ('A' for Active; 'I' for Inactive)
REMARK    1  A    between atoms: C_1  and  C_2
REMARK    2  A    between atoms: C_5  and  C_6
REMARK    3  A    between atoms: N_11  and  C_12
REMARK    4  A    between atoms: C_12  and  C_13
REMARK    5  A    between atoms: N_15  and  C_16
REMARK    6  A    between atoms: C_20  and  C_21
REMARK    7  A    between atoms: C_21  and  O_23
REMARK                            x       y       z     vdW  Elec       q    Type
REMARK                         _______ _______ _______ _____ _____    ______ ____
ROOT
ATOM      1  C   UNL     1       5.515   4.893  17.077  0.00  0.00    +0.000 C 
ATOM      2  C   UNL     1       4.487   4.456  17.816  0.00  0.00    +0.000 C 
ATOM      3  S   UNL     1       3.544   3.084  17.366  0.00  0.00    +0.000 S 
ATOM      4  C   UNL     1       2.699   3.041  18.907  0.00  0.00    +0.000 C 
ATOM      5  S   UNL     1       1.678   1.793  19.325  0.00  0.00    +0.000 S 
ATOM      6  N   UNL     1       3.027   4.158  19.644  0.00  0.00    +0.000 N 
ATOM      7  C   UNL     1       4.020   4.972  19.130  0.00  0.00    +0.000 C 
ATOM      8  O   UNL     1       4.482   5.938  19.724  0.00  0.00    +0.000 OA
ENDROOT
BRANCH   1  13
ATOM      9  C   UNL     1       8.981   9.195  18.736  0.00  0.00    +0.000 C 
ATOM     10  C   UNL     1       8.116   8.068  18.256  0.00  0.00    +0.000 A 
ATOM     11  C   UNL     1       7.108   8.288  17.311  0.00  0.00    +0.000 A 
ATOM     12  C   UNL     1       6.276   7.240  16.908  0.00  0.00    +0.000 A 
ATOM     13  C   UNL     1       6.443   5.961  17.447  0.00  0.00    +0.000 A 
ATOM     14  C   UNL     1       7.462   5.729  18.373  0.00  0.00    +0.000 A 
ATOM     15  C   UNL     1       8.294   6.779  18.775  0.00  0.00    +0.000 A 
ENDBRANCH   1  13
BRANCH   6  16
ATOM     16  C   UNL     1       2.425   4.509  20.931  0.00  0.00    +0.000 C 
BRANCH  16  17
ATOM     17  C   UNL     1       1.444   5.680  20.826  0.00  0.00    +0.000 C 
ATOM     18  O   UNL     1       0.291   5.502  20.439  0.00  0.00    +0.000 OA
ATOM     19  N   UNL     1       2.008   6.933  21.020  0.00  0.00    +0.000 N 
ATOM     20  H   UNL     1       3.016   7.003  20.859  0.00  0.00    +0.000 HD
BRANCH  19  21
ATOM     21  C   UNL     1       1.263   8.123  20.934  0.00  0.00    +0.000 A 
ATOM     22  C   UNL     1       0.790   8.697  22.117  0.00  0.00    +0.000 A 
ATOM     23  C   UNL     1       0.100   9.909  22.078  0.00  0.00    +0.000 A 
ATOM     24  C   UNL     1      -0.166  10.520  20.852  0.00  0.00    +0.000 A 
ATOM     25  C   UNL     1       0.261   9.926  19.660  0.00  0.00    +0.000 A 
ATOM     26  C   UNL     1       0.981   8.724  19.702  0.00  0.00    +0.000 A 
BRANCH  25  27
ATOM     27  C   UNL     1      -0.124  10.573  18.379  0.00  0.00    +0.000 C 
ATOM     28  O   UNL     1      -0.833  10.026  17.556  0.00  0.00    +0.000 OA
BRANCH  27  29
ATOM     29  O   UNL     1       0.355  11.828  18.228  0.00  0.00    +0.000 OA
ATOM     30  H   UNL     1      -0.220  12.439  17.739  0.00  0.00    +0.000 HD
ENDBRANCH  27  29
ENDBRANCH  25  27
ENDBRANCH  19  21
ENDBRANCH  16  17
ENDBRANCH   6  16
TORSDOF 6
ENDMDL
MODEL 3
REMARK VINA RESULT:      -7.0      1.767      2.387
REMARK  Name = 
REMARK  7 active torsions:
REMARK  status: ('A' for Active; 'I' for Inactive)
REMARK    1  A    between atoms: C_1  and  C_2
REMARK    2  A    between atoms: C_5  and  C_6
REMARK    3  A    between atoms: N_11  and  C_12
REMARK    4  A    between atoms: C_12  and  C_13
REMARK    5  A    between atoms: N_15  and  C_16
REMARK    6  A    between atoms: C_20  and  C_21
REMARK    7  A    between atoms: C_21  and  O_23
REMARK                            x       y       z     vdW  Elec       q    Type
REMARK                         _______ _______ _______ _____ _____    ______ ____
ROOT
ATOM      1  C   UNL     1       1.972   5.900  20.226  0.00  0.00    +0.000 C 
ATOM      2  C   UNL     1       1.506   7.153  20.315  0.00  0.00    +0.000 C 
ATOM      3  S   UNL     1       0.435   7.653  21.571  0.00  0.00    +0.000 S 
ATOM      4  C   UNL     1       0.571   9.352  21.140  0.00  0.00    +0.000 C 
ATOM      5  S   UNL     1      -0.086  10.561  22.079  0.00  0.00    +0.000 S 
ATOM      6  N   UNL     1       1.278   9.474  19.964  0.00  0.00    +0.000 N 
ATOM      7  C   UNL     1       1.848   8.320  19.458  0.00  0.00    +0.000 C 
ATOM      8  O   UNL     1       2.585   8.297  18.481  0.00  0.00    +0.000 OA
ENDROOT
BRANCH   1  13
ATOM      9  C   UNL     1       5.916   4.284  16.340  0.00  0.00    +0.000 C 
ATOM     10  C   UNL     1       4.888   4.646  17.371  0.00  0.00    +0.000 A 
ATOM     11  C   UNL     1       3.523   4.481  17.112  0.00  0.00    +0.000 A 
ATOM     12  C   UNL     1       2.572   4.868  18.060  0.00  0.00    +0.000 A 
ATOM     13  C   UNL     1       2.977   5.426  19.277  0.00  0.00    +0.000 A 
ATOM     14  C   UNL     1       4.339   5.572  19.550  0.00  0.00    +0.000 A 
ATOM     15  C   UNL     1       5.289   5.184  18.601  0.00  0.00    +0.000 A 
ENDBRANCH   1  13
BRANCH   6  16
ATOM     16  C   UNL     1       1.489  10.734  19.250  0.00  0.00    +0.000 C 
BRANCH  16  17
ATOM     17  C   UNL     1       0.249  11.190  18.475  0.00  0.00    +0.000 C 
ATOM     18  O   UNL     1       0.061  12.380  18.234  0.00  0.00    +0.000 OA
ATOM     19  N   UNL     1      -0.694  10.198  18.247  0.00  0.00    +0.000 N 
ATOM     20  H   UNL     1      -0.668   9.397  18.882  0.00  0.00    +0.000 HD
BRANCH  19  21
ATOM     21  C   UNL     1      -1.905  10.441  17.575  0.00  0.00    +0.000 A 
ATOM     22  C   UNL     1      -2.961  11.008  18.294  0.00  0.00    +0.000 A 
ATOM     23  C   UNL     1      -4.157  11.321  17.647  0.00  0.00    +0.000 A 
ATOM     24  C   UNL     1      -4.319  11.016  16.295  0.00  0.00    +0.000 A 
ATOM     25  C   UNL     1      -3.284  10.404  15.581  0.00  0.00    +0.000 A 
ATOM     26  C   UNL     1      -2.072  10.117  16.224  0.00  0.00    +0.000 A 
BRANCH  25  27
ATOM     27  C   UNL     1      -3.541  10.021  14.168  0.00  0.00    +0.000 C 
ATOM     28  O   UNL     1      -2.644   9.794  13.378  0.00  0.00    +0.000 OA
BRANCH  27  29
ATOM     29  O   UNL     1      -4.851   9.918  13.853  0.00  0.00    +0.000 OA
ATOM     30  H   UNL     1      -5.393   9.414  14.480  0.00  0.00    +0.000 HD
ENDBRANCH  27  29
ENDBRANCH  25  27
ENDBRANCH  19  21
ENDBRANCH  16  17
ENDBRANCH   6  16
TORSDOF 6
ENDMDL
MODEL 4
REMARK VINA RESULT:      -6.9      5.277      9.882
REMARK  Name = 
REMARK  7 active torsions:
REMARK  status: ('A' for Active; 'I' for Inactive)
REMARK    1  A    between atoms: C_1  and  C_2
REMARK    2  A    between atoms: C_5  and  C_6
REMARK    3  A    between atoms: N_11  and  C_12
REMARK    4  A    between atoms: C_12  and  C_13
REMARK    5  A    between atoms: N_15  and  C_16
REMARK    6  A    between atoms: C_20  and  C_21
REMARK    7  A    between atoms: C_21  and  O_23
REMARK                            x       y       z     vdW  Elec       q    Type
REMARK                         _______ _______ _______ _____ _____    ______ ____
ROOT
ATOM      1  C   UNL     1       1.630   5.967  20.458  0.00  0.00    +0.000 C 
ATOM      2  C   UNL     1       2.622   5.131  20.124  0.00  0.00    +0.000 C 
ATOM      3  S   UNL     1       2.553   3.439  20.452  0.00  0.00    +0.000 S 
ATOM      4  C   UNL     1       3.986   3.098  19.493  0.00  0.00    +0.000 C 
ATOM      5  S   UNL     1       4.483   1.544  19.161  0.00  0.00    +0.000 S 
ATOM      6  N   UNL     1       4.569   4.283  19.098  0.00  0.00    +0.000 N 
ATOM      7  C   UNL     1       3.871   5.443  19.380  0.00  0.00    +0.000 C 
ATOM      8  O   UNL     1       4.217   6.554  19.000  0.00  0.00    +0.000 OA
ENDROOT
BRANCH   1  13
ATOM      9  C   UNL     1       1.031  11.509  18.977  0.00  0.00    +0.000 C 
ATOM     10  C   UNL     1       1.248  10.077  19.367  0.00  0.00    +0.000 A 
ATOM     11  C   UNL     1       1.603   9.118  18.412  0.00  0.00    +0.000 A 
ATOM     12  C   UNL     1       1.754   7.778  18.779  0.00  0.00    +0.000 A 
ATOM     13  C   UNL     1       1.549   7.383  20.104  0.00  0.00    +0.000 A 
ATOM     14  C   UNL     1       1.216   8.339  21.066  0.00  0.00    +0.000 A 
ATOM     15  C   UNL     1       1.067   9.680  20.698  0.00  0.00    +0.000 A 
ENDBRANCH   1  13
BRANCH   6  16
ATOM     16  C   UNL     1       5.839   4.384  18.379  0.00  0.00    +0.000 C 
BRANCH  16  17
ATOM     17  C   UNL     1       5.660   4.395  16.858  0.00  0.00    +0.000 C 
ATOM     18  O   UNL     1       4.553   4.227  16.354  0.00  0.00    +0.000 OA
ATOM     19  N   UNL     1       6.843   4.425  16.132  0.00  0.00    +0.000 N 
ATOM     20  H   UNL     1       7.677   4.086  16.616  0.00  0.00    +0.000 HD
BRANCH  19  21
ATOM     21  C   UNL     1       6.871   4.414  14.726  0.00  0.00    +0.000 A 
ATOM     22  C   UNL     1       7.689   5.337  14.070  0.00  0.00    +0.000 A 
ATOM     23  C   UNL     1       7.791   5.316  12.679  0.00  0.00    +0.000 A 
ATOM     24  C   UNL     1       7.031   4.409  11.938  0.00  0.00    +0.000 A 
ATOM     25  C   UNL     1       6.172   3.515  12.585  0.00  0.00    +0.000 A 
ATOM     26  C   UNL     1       6.093   3.516  13.985  0.00  0.00    +0.000 A 
BRANCH  25  27
ATOM     27  C   UNL     1       5.321   2.631  11.746  0.00  0.00    +0.000 C 
ATOM     28  O   UNL     1       4.268   3.001  11.263  0.00  0.00    +0.000 OA
BRANCH  27  29
ATOM     29  O   UNL     1       5.837   1.399  11.543  0.00  0.00    +0.000 OA
ATOM     30  H   UNL     1       6.418   1.311  10.770  0.00  0.00    +0.000 HD
ENDBRANCH  27  29
ENDBRANCH  25  27
ENDBRANCH  19  21
ENDBRANCH  16  17
ENDBRANCH   6  16
TORSDOF 6
ENDMDL
MODEL 5
REMARK VINA RESULT:      -6.9      1.979      2.781
REMARK  Name = 
REMARK  7 active torsions:
REMARK  status: ('A' for Active; 'I' for Inactive)
REMARK    1  A    between atoms: C_1  and  C_2
REMARK    2  A    between atoms: C_5  and  C_6
REMARK    3  A    between atoms: N_11  and  C_12
REMARK    4  A    between atoms: C_12  and  C_13
REMARK    5  A    between atoms: N_15  and  C_16
REMARK    6  A    between atoms: C_20  and  C_21
REMARK    7  A    between atoms: C_21  and  O_23
REMARK                            x       y       z     vdW  Elec       q    Type
REMARK                         _______ _______ _______ _____ _____    ______ ____
ROOT
ATOM      1  C   UNL     1       2.594   5.588  19.676  0.00  0.00    +0.000 C 
ATOM      2  C   UNL     1       2.018   6.786  19.843  0.00  0.00    +0.000 C 
ATOM      3  S   UNL     1       0.976   7.132  21.173  0.00  0.00    +0.000 S 
ATOM      4  C   UNL     1       0.928   8.851  20.810  0.00  0.00    +0.000 C 
ATOM      5  S   UNL     1       0.213   9.954  21.833  0.00  0.00    +0.000 S 
ATOM      6  N   UNL     1       1.554   9.086  19.606  0.00  0.00    +0.000 N 
ATOM      7  C   UNL     1       2.201   8.012  19.021  0.00  0.00    +0.000 C 
ATOM      8  O   UNL     1       2.882   8.098  18.008  0.00  0.00    +0.000 OA
ENDROOT
BRANCH   1  13
ATOM      9  C   UNL     1       6.569   4.009  15.806  0.00  0.00    +0.000 C 
ATOM     10  C   UNL     1       5.533   4.475  16.786  0.00  0.00    +0.000 A 
ATOM     11  C   UNL     1       5.900   5.176  17.940  0.00  0.00    +0.000 A 
ATOM     12  C   UNL     1       4.932   5.562  18.870  0.00  0.00    +0.000 A 
ATOM     13  C   UNL     1       3.585   5.249  18.657  0.00  0.00    +0.000 A 
ATOM     14  C   UNL     1       3.211   4.571  17.496  0.00  0.00    +0.000 A 
ATOM     15  C   UNL     1       4.181   4.186  16.565  0.00  0.00    +0.000 A 
ENDBRANCH   1  13
BRANCH   6  16
ATOM     16  C   UNL     1       1.606  10.386  18.937  0.00  0.00    +0.000 C 
BRANCH  16  17
ATOM     17  C   UNL     1       0.243  10.831  18.399  0.00  0.00    +0.000 C 
ATOM     18  O   UNL     1      -0.234  11.918  18.715  0.00  0.00    +0.000 OA
ATOM     19  N   UNL     1      -0.457   9.854  17.704  0.00  0.00    +0.000 N 
ATOM     20  H   UNL     1      -0.200   8.885  17.908  0.00  0.00    +0.000 HD
BRANCH  19  21
ATOM     21  C   UNL     1      -1.736  10.076  17.163  0.00  0.00    +0.000 A 
ATOM     22  C   UNL     1      -2.760  10.479  18.023  0.00  0.00    +0.000 A 
ATOM     23  C   UNL     1      -4.026  10.769  17.513  0.00  0.00    +0.000 A 
ATOM     24  C   UNL     1      -4.285  10.601  16.152  0.00  0.00    +0.000 A 
ATOM     25  C   UNL     1      -3.277  10.151  15.293  0.00  0.00    +0.000 A 
ATOM     26  C   UNL     1      -1.997   9.889  15.801  0.00  0.00    +0.000 A 
BRANCH  25  27
ATOM     27  C   UNL     1      -3.629   9.906  13.870  0.00  0.00    +0.000 C 
ATOM     28  O   UNL     1      -2.790   9.810  12.994  0.00  0.00    +0.000 OA
BRANCH  27  29
ATOM     29  O   UNL     1      -4.955   9.769  13.645  0.00  0.00    +0.000 OA
ATOM     30  H   UNL     1      -5.252   8.869  13.434  0.00  0.00    +0.000 HD
ENDBRANCH  27  29
ENDBRANCH  25  27
ENDBRANCH  19  21
ENDBRANCH  16  17
ENDBRANCH   6  16
TORSDOF 6
ENDMDL
MODEL 6
REMARK VINA RESULT:      -6.8      4.252      6.258
REMARK  Name = 
REMARK  7 active torsions:
REMARK  status: ('A' for Active; 'I' for Inactive)
REMARK    1  A    between atoms: C_1  and  C_2
REMARK    2  A    between atoms: C_5  and  C_6
REMARK    3  A    between atoms: N_11  and  C_12
REMARK    4  A    between atoms: C_12  and  C_13
REMARK    5  A    between atoms: N_15  and  C_16
REMARK    6  A    between atoms: C_20  and  C_21
REMARK    7  A    between atoms: C_21  and  O_23
REMARK                            x       y       z     vdW  Elec       q    Type
REMARK                         _______ _______ _______ _____ _____    ______ ____
ROOT
ATOM      1  C   UNL     1       5.825   5.189  17.026  0.00  0.00    +0.000 C 
ATOM      2  C   UNL     1       4.805   4.621  17.683  0.00  0.00    +0.000 C 
ATOM      3  S   UNL     1       4.021   3.194  17.115  0.00  0.00    +0.000 S 
ATOM      4  C   UNL     1       3.103   2.994  18.601  0.00  0.00    +0.000 C 
ATOM      5  S   UNL     1       2.184   1.637  18.900  0.00  0.00    +0.000 S 
ATOM      6  N   UNL     1       3.285   4.096  19.407  0.00  0.00    +0.000 N 
ATOM      7  C   UNL     1       4.222   5.024  18.990  0.00  0.00    +0.000 C 
ATOM      8  O   UNL     1       4.559   5.995  19.655  0.00  0.00    +0.000 OA
ENDROOT
BRANCH   1  13
ATOM      9  C   UNL     1       9.195   9.562  18.697  0.00  0.00    +0.000 C 
ATOM     10  C   UNL     1       8.283   8.434  18.312  0.00  0.00    +0.000 A 
ATOM     11  C   UNL     1       8.452   7.156  18.854  0.00  0.00    +0.000 A 
ATOM     12  C   UNL     1       7.628   6.102  18.451  0.00  0.00    +0.000 A 
ATOM     13  C   UNL     1       6.626   6.316  17.498  0.00  0.00    +0.000 A 
ATOM     14  C   UNL     1       6.438   7.595  16.971  0.00  0.00    +0.000 A 
ATOM     15  C   UNL     1       7.263   8.648  17.376  0.00  0.00    +0.000 A 
ENDBRANCH   1  13
BRANCH   6  16
ATOM     16  C   UNL     1       2.585   4.322  20.673  0.00  0.00    +0.000 C 
BRANCH  16  17
ATOM     17  C   UNL     1       1.625   5.515  20.613  0.00  0.00    +0.000 C 
ATOM     18  O   UNL     1       0.421   5.344  20.442  0.00  0.00    +0.000 OA
ATOM     19  N   UNL     1       2.241   6.758  20.584  0.00  0.00    +0.000 N 
ATOM     20  H   UNL     1       3.209   6.774  20.253  0.00  0.00    +0.000 HD
BRANCH  19  21
ATOM     21  C   UNL     1       1.518   7.962  20.503  0.00  0.00    +0.000 A 
ATOM     22  C   UNL     1       1.448   8.613  19.269  0.00  0.00    +0.000 A 
ATOM     23  C   UNL     1       0.689   9.776  19.136  0.00  0.00    +0.000 A 
ATOM     24  C   UNL     1       0.046  10.320  20.248  0.00  0.00    +0.000 A 
ATOM     25  C   UNL     1       0.152   9.701  21.497  0.00  0.00    +0.000 A 
ATOM     26  C   UNL     1       0.889   8.515  21.625  0.00  0.00    +0.000 A 
BRANCH  25  27
ATOM     27  C   UNL     1      -0.480  10.369  22.665  0.00  0.00    +0.000 C 
ATOM     28  O   UNL     1      -0.239  10.048  23.813  0.00  0.00    +0.000 OA
BRANCH  27  29
ATOM     29  O   UNL     1      -1.316  11.378  22.338  0.00  0.00    +0.000 OA
ATOM     30  H   UNL     1      -2.038  11.544  22.965  0.00  0.00    +0.000 HD
ENDBRANCH  27  29
ENDBRANCH  25  27
ENDBRANCH  19  21
ENDBRANCH  16  17
ENDBRANCH   6  16
TORSDOF 6
ENDMDL
MODEL 7
REMARK VINA RESULT:      -6.8      1.265      1.430
REMARK  Name = 
REMARK  7 active torsions:
REMARK  status: ('A' for Active; 'I' for Inactive)
REMARK    1  A    between atoms: C_1  and  C_2
REMARK    2  A    between atoms: C_5  and  C_6
REMARK    3  A    between atoms: N_11  and  C_12
REMARK    4  A    between atoms: C_12  and  C_13
REMARK    5  A    between atoms: N_15  and  C_16
REMARK    6  A    between atoms: C_20  and  C_21
REMARK    7  A    between atoms: C_21  and  O_23
REMARK                            x       y       z     vdW  Elec       q    Type
REMARK                         _______ _______ _______ _____ _____    ______ ____
ROOT
ATOM      1  C   UNL     1       2.860   6.257  19.848  0.00  0.00    +0.000 C 
ATOM      2  C   UNL     1       2.109   7.365  19.878  0.00  0.00    +0.000 C 
ATOM      3  S   UNL     1       1.441   7.989  21.341  0.00  0.00    +0.000 S 
ATOM      4  C   UNL     1       0.917   9.483  20.576  0.00  0.00    +0.000 C 
ATOM      5  S   UNL     1       0.301  10.759  21.450  0.00  0.00    +0.000 S 
ATOM      6  N   UNL     1       1.105   9.394  19.214  0.00  0.00    +0.000 N 
ATOM      7  C   UNL     1       1.777   8.277  18.751  0.00  0.00    +0.000 C 
ATOM      8  O   UNL     1       2.104   8.116  17.582  0.00  0.00    +0.000 OA
ENDROOT
BRANCH   1  13
ATOM      9  C   UNL     1       5.484   4.359  15.075  0.00  0.00    +0.000 C 
ATOM     10  C   UNL     1       4.829   4.808  16.348  0.00  0.00    +0.000 A 
ATOM     11  C   UNL     1       3.646   4.212  16.796  0.00  0.00    +0.000 A 
ATOM     12  C   UNL     1       3.019   4.671  17.957  0.00  0.00    +0.000 A 
ATOM     13  C   UNL     1       3.568   5.734  18.681  0.00  0.00    +0.000 A 
ATOM     14  C   UNL     1       4.761   6.318  18.252  0.00  0.00    +0.000 A 
ATOM     15  C   UNL     1       5.388   5.857  17.090  0.00  0.00    +0.000 A 
ENDBRANCH   1  13
BRANCH   6  16
ATOM     16  C   UNL     1       0.678  10.408  18.249  0.00  0.00    +0.000 C 
BRANCH  16  17
ATOM     17  C   UNL     1      -0.823  10.349  17.954  0.00  0.00    +0.000 C 
ATOM     18  O   UNL     1      -1.287   9.475  17.226  0.00  0.00    +0.000 OA
ATOM     19  N   UNL     1      -1.551  11.438  18.413  0.00  0.00    +0.000 N 
ATOM     20  H   UNL     1      -1.022  12.300  18.568  0.00  0.00    +0.000 HD
BRANCH  19  21
ATOM     21  C   UNL     1      -2.937  11.566  18.208  0.00  0.00    +0.000 A 
ATOM     22  C   UNL     1      -3.426  11.489  16.902  0.00  0.00    +0.000 A 
ATOM     23  C   UNL     1      -4.799  11.549  16.666  0.00  0.00    +0.000 A 
ATOM     24  C   UNL     1      -5.682  11.744  17.729  0.00  0.00    +0.000 A 
ATOM     25  C   UNL     1      -5.196  11.871  19.034  0.00  0.00    +0.000 A 
ATOM     26  C   UNL     1      -3.818  11.779  19.275  0.00  0.00    +0.000 A 
BRANCH  25  27
ATOM     27  C   UNL     1      -6.170  12.163  20.118  0.00  0.00    +0.000 C 
ATOM     28  O   UNL     1      -5.932  11.945  21.290  0.00  0.00    +0.000 OA
BRANCH  27  29
ATOM     29  O   UNL     1      -7.324  12.719  19.687  0.00  0.00    +0.000 OA
ATOM     30  H   UNL     1      -7.840  13.189  20.363  0.00  0.00    +0.000 HD
ENDBRANCH  27  29
ENDBRANCH  25  27
ENDBRANCH  19  21
ENDBRANCH  16  17
ENDBRANCH   6  16
TORSDOF 6
ENDMDL
MODEL 8
REMARK VINA RESULT:      -6.7      3.995      6.272
REMARK  Name = 
REMARK  7 active torsions:
REMARK  status: ('A' for Active; 'I' for Inactive)
REMARK    1  A    between atoms: C_1  and  C_2
REMARK    2  A    between atoms: C_5  and  C_6
REMARK    3  A    between atoms: N_11  and  C_12
REMARK    4  A    between atoms: C_12  and  C_13
REMARK    5  A    between atoms: N_15  and  C_16
REMARK    6  A    between atoms: C_20  and  C_21
REMARK    7  A    between atoms: C_21  and  O_23
REMARK                            x       y       z     vdW  Elec       q    Type
REMARK                         _______ _______ _______ _____ _____    ______ ____
ROOT
ATOM      1  C   UNL     1       5.633   5.054  17.134  0.00  0.00    +0.000 C 
ATOM      2  C   UNL     1       4.625   4.518  17.834  0.00  0.00    +0.000 C 
ATOM      3  S   UNL     1       3.813   3.082  17.331  0.00  0.00    +0.000 S 
ATOM      4  C   UNL     1       2.931   2.937  18.845  0.00  0.00    +0.000 C 
ATOM      5  S   UNL     1       2.007   1.601  19.210  0.00  0.00    +0.000 S 
ATOM      6  N   UNL     1       3.144   4.062  19.612  0.00  0.00    +0.000 N 
ATOM      7  C   UNL     1       4.079   4.967  19.143  0.00  0.00    +0.000 C 
ATOM      8  O   UNL     1       4.442   5.955  19.768  0.00  0.00    +0.000 OA
ENDROOT
BRANCH   1  13
ATOM      9  C   UNL     1       9.072   9.460  18.562  0.00  0.00    +0.000 C 
ATOM     10  C   UNL     1       8.147   8.322  18.244  0.00  0.00    +0.000 A 
ATOM     11  C   UNL     1       8.397   7.035  18.732  0.00  0.00    +0.000 A 
ATOM     12  C   UNL     1       7.556   5.973  18.389  0.00  0.00    +0.000 A 
ATOM     13  C   UNL     1       6.457   6.188  17.551  0.00  0.00    +0.000 A 
ATOM     14  C   UNL     1       6.190   7.474  17.079  0.00  0.00    +0.000 A 
ATOM     15  C   UNL     1       7.031   8.536  17.425  0.00  0.00    +0.000 A 
ENDBRANCH   1  13
BRANCH   6  16
ATOM     16  C   UNL     1       2.479   4.335  20.886  0.00  0.00    +0.000 C 
BRANCH  16  17
ATOM     17  C   UNL     1       1.477   5.490  20.796  0.00  0.00    +0.000 C 
ATOM     18  O   UNL     1       0.344   5.306  20.356  0.00  0.00    +0.000 OA
ATOM     19  N   UNL     1       2.005   6.744  21.069  0.00  0.00    +0.000 N 
ATOM     20  H   UNL     1       3.016   6.842  20.951  0.00  0.00    +0.000 HD
BRANCH  19  21
ATOM     21  C   UNL     1       1.238   7.921  21.008  0.00  0.00    +0.000 A 
ATOM     22  C   UNL     1       0.474   8.274  22.123  0.00  0.00    +0.000 A 
ATOM     23  C   UNL     1      -0.251   9.466  22.123  0.00  0.00    +0.000 A 
ATOM     24  C   UNL     1      -0.260  10.277  20.988  0.00  0.00    +0.000 A 
ATOM     25  C   UNL     1       0.462   9.905  19.850  0.00  0.00    +0.000 A 
ATOM     26  C   UNL     1       1.216   8.723  19.861  0.00  0.00    +0.000 A 
BRANCH  25  27
ATOM     27  C   UNL     1       0.349  10.760  18.639  0.00  0.00    +0.000 C 
ATOM     28  O   UNL     1      -0.717  11.173  18.226  0.00  0.00    +0.000 OA
BRANCH  27  29
ATOM     29  O   UNL     1       1.534  11.060  18.063  0.00  0.00    +0.000 OA
ATOM     30  H   UNL     1       1.722  12.007  17.962  0.00  0.00    +0.000 HD
ENDBRANCH  27  29
ENDBRANCH  25  27
ENDBRANCH  19  21
ENDBRANCH  16  17
ENDBRANCH   6  16
TORSDOF 6
ENDMDL
MODEL 9
REMARK VINA RESULT:      -6.7      1.235      1.688
REMARK  Name = 
REMARK  7 active torsions:
REMARK  status: ('A' for Active; 'I' for Inactive)
REMARK    1  A    between atoms: C_1  and  C_2
REMARK    2  A    between atoms: C_5  and  C_6
REMARK    3  A    between atoms: N_11  and  C_12
REMARK    4  A    between atoms: C_12  and  C_13
REMARK    5  A    between atoms: N_15  and  C_16
REMARK    6  A    between atoms: C_20  and  C_21
REMARK    7  A    between atoms: C_21  and  O_23
REMARK                            x       y       z     vdW  Elec       q    Type
REMARK                         _______ _______ _______ _____ _____    ______ ____
ROOT
ATOM      1  C   UNL     1       2.490   6.777  20.231  0.00  0.00    +0.000 C 
ATOM      2  C   UNL     1       1.756   7.897  20.216  0.00  0.00    +0.000 C 
ATOM      3  S   UNL     1       1.197   8.654  21.662  0.00  0.00    +0.000 S 
ATOM      4  C   UNL     1       0.640  10.087  20.809  0.00  0.00    +0.000 C 
ATOM      5  S   UNL     1       0.100  11.443  21.611  0.00  0.00    +0.000 S 
ATOM      6  N   UNL     1       0.735   9.880  19.450  0.00  0.00    +0.000 N 
ATOM      7  C   UNL     1       1.360   8.716  19.040  0.00  0.00    +0.000 C 
ATOM      8  O   UNL     1       1.605   8.452  17.870  0.00  0.00    +0.000 OA
ENDROOT
BRANCH   1  13
ATOM      9  C   UNL     1       5.104   4.123  15.827  0.00  0.00    +0.000 C 
ATOM     10  C   UNL     1       4.402   4.854  16.933  0.00  0.00    +0.000 A 
ATOM     11  C   UNL     1       4.985   5.971  17.540  0.00  0.00    +0.000 A 
ATOM     12  C   UNL     1       4.344   6.614  18.602  0.00  0.00    +0.000 A 
ATOM     13  C   UNL     1       3.112   6.145  19.068  0.00  0.00    +0.000 A 
ATOM     14  C   UNL     1       2.513   5.045  18.451  0.00  0.00    +0.000 A 
ATOM     15  C   UNL     1       3.156   4.404  17.388  0.00  0.00    +0.000 A 
ENDBRANCH   1  13
BRANCH   6  16
ATOM     16  C   UNL     1       0.256  10.817  18.433  0.00  0.00    +0.000 C 
BRANCH  16  17
ATOM     17  C   UNL     1      -1.239  10.660  18.141  0.00  0.00    +0.000 C 
ATOM     18  O   UNL     1      -1.644   9.773  17.395  0.00  0.00    +0.000 OA
ATOM     19  N   UNL     1      -2.039  11.686  18.627  0.00  0.00    +0.000 N 
ATOM     20  H   UNL     1      -1.570  12.578  18.800  0.00  0.00    +0.000 HD
BRANCH  19  21
ATOM     21  C   UNL     1      -3.431  11.721  18.430  0.00  0.00    +0.000 A 
ATOM     22  C   UNL     1      -3.922  11.575  17.130  0.00  0.00    +0.000 A 
ATOM     23  C   UNL     1      -5.298  11.543  16.903  0.00  0.00    +0.000 A 
ATOM     24  C   UNL     1      -6.184  11.715  17.967  0.00  0.00    +0.000 A 
ATOM     25  C   UNL     1      -5.699  11.911  19.264  0.00  0.00    +0.000 A 
ATOM     26  C   UNL     1      -4.317  11.912  19.496  0.00  0.00    +0.000 A 
BRANCH  25  27
ATOM     27  C   UNL     1      -6.684  12.174  20.346  0.00  0.00    +0.000 C 
ATOM     28  O   UNL     1      -6.675  11.571  21.402  0.00  0.00    +0.000 OA
BRANCH  27  29
ATOM     29  O   UNL     1      -7.562  13.162  20.065  0.00  0.00    +0.000 OA
ATOM     30  H   UNL     1      -8.138  13.432  20.799  0.00  0.00    +0.000 HD
ENDBRANCH  27  29
ENDBRANCH  25  27
ENDBRANCH  19  21
ENDBRANCH  16  17
ENDBRANCH   6  16
TORSDOF 6
ENDMDL
