MODEL 1
REMARK VINA RESULT:      -8.7      0.000      0.000
REMARK  Name = 
REMARK  2 active torsions:
REMARK  status: ('A' for Active; 'I' for Inactive)
REMARK    1  A    between atoms: C_2  and  C_3
REMARK    2  A    between atoms: C_11  and  C_12
REMARK                            x       y       z     vdW  Elec       q    Type
REMARK                         _______ _______ _______ _____ _____    ______ ____
ROOT
ATOM      1  O   UNL     1       1.177   6.608  21.262  0.00  0.00    +0.000 OA
ATOM      2  C   UNL     1       1.796   6.920  20.245  0.00  0.00    +0.000 C 
ATOM      3  N   UNL     1       2.520   5.900  19.595  0.00  0.00    +0.000 N 
ATOM      4  C   UNL     1       3.591   6.049  18.729  0.00  0.00    +0.000 A 
ATOM      5  C   UNL     1       3.940   4.817  18.185  0.00  0.00    +0.000 A 
ATOM      6  C   UNL     1       3.050   3.860  18.766  0.00  0.00    +0.000 A 
ATOM      7  C   UNL     1       2.847   2.410  18.621  0.00  0.00    +0.000 A 
ATOM      8  O   UNL     1       3.556   1.721  17.898  0.00  0.00    +0.000 OA
ATOM      9  N   UNL     1       1.782   1.865  19.336  0.00  0.00    +0.000 NA
ATOM     10  C   UNL     1       1.094   2.621  20.130  0.00  0.00    +0.000 A 
ATOM     11  N   UNL     1       1.281   3.958  20.350  0.00  0.00    +0.000 N 
ATOM     12  C   UNL     1       2.256   4.558  19.646  0.00  0.00    +0.000 A 
ATOM     13  H   UNL     1       0.698   4.471  21.015  0.00  0.00    +0.000 HD
ENDROOT
BRANCH   2  14
ATOM     14  C   UNL     1       1.672   8.303  19.717  0.00  0.00    +0.000 A 
ATOM     15  C   UNL     1       1.064   9.294  20.493  0.00  0.00    +0.000 A 
ATOM     16  C   UNL     1       0.862  10.568  19.954  0.00  0.00    +0.000 A 
ATOM     17  C   UNL     1       1.258  10.848  18.645  0.00  0.00    +0.000 A 
ATOM     18  C   UNL     1       1.854   9.858  17.867  0.00  0.00    +0.000 A 
ATOM     19  C   UNL     1       2.053   8.585  18.397  0.00  0.00    +0.000 A 
ENDBRANCH   2  14
BRANCH   5  20
ATOM     20  C   UNL     1       5.005   4.695  17.193  0.00  0.00    +0.000 A 
ATOM     21  C   UNL     1       4.703   4.461  15.841  0.00  0.00    +0.000 A 
ATOM     22  C   UNL     1       5.718   4.321  14.890  0.00  0.00    +0.000 A 
ATOM     23  C   UNL     1       7.051   4.427  15.275  0.00  0.00    +0.000 A 
ATOM     24  C   UNL     1       7.367   4.659  16.611  0.00  0.00    +0.000 A 
ATOM     25  C   UNL     1       6.352   4.778  17.565  0.00  0.00    +0.000 A 
ENDBRANCH   5  20
TORSDOF 2
ENDMDL
MODEL 2
REMARK VINA RESULT:      -8.6      0.445      1.047
REMARK  Name = 
REMARK  2 active torsions:
REMARK  status: ('A' for Active; 'I' for Inactive)
REMARK    1  A    between atoms: C_2  and  C_3
REMARK    2  A    between atoms: C_11  and  C_12
REMARK                            x       y       z     vdW  Elec       q    Type
REMARK                         _______ _______ _______ _____ _____    ______ ____
ROOT
ATOM      1  O   UNL     1       0.994   6.942  21.368  0.00  0.00    +0.000 OA
ATOM      2  C   UNL     1       1.647   7.233  20.366  0.00  0.00    +0.000 C 
ATOM      3  N   UNL     1       2.414   6.207  19.779  0.00  0.00    +0.000 N 
ATOM      4  C   UNL     1       3.515   6.347  18.950  0.00  0.00    +0.000 A 
ATOM      5  C   UNL     1       3.907   5.106  18.462  0.00  0.00    +0.000 A 
ATOM      6  C   UNL     1       3.013   4.151  19.039  0.00  0.00    +0.000 A 
ATOM      7  C   UNL     1       2.842   2.694  18.935  0.00  0.00    +0.000 A 
ATOM      8  O   UNL     1       3.590   1.995  18.264  0.00  0.00    +0.000 OA
ATOM      9  N   UNL     1       1.759   2.152  19.626  0.00  0.00    +0.000 NA
ATOM     10  C   UNL     1       1.027   2.920  20.367  0.00  0.00    +0.000 A 
ATOM     11  N   UNL     1       1.182   4.266  20.550  0.00  0.00    +0.000 N 
ATOM     12  C   UNL     1       2.172   4.862  19.864  0.00  0.00    +0.000 A 
ATOM     13  H   UNL     1       0.563   4.790  21.174  0.00  0.00    +0.000 HD
ENDROOT
BRANCH   2  14
ATOM     14  C   UNL     1       1.519   8.596  19.788  0.00  0.00    +0.000 A 
ATOM     15  C   UNL     1       0.890   9.607  20.519  0.00  0.00    +0.000 A 
ATOM     16  C   UNL     1       0.685  10.859  19.933  0.00  0.00    +0.000 A 
ATOM     17  C   UNL     1       1.099  11.097  18.621  0.00  0.00    +0.000 A 
ATOM     18  C   UNL     1       1.717  10.087  17.887  0.00  0.00    +0.000 A 
ATOM     19  C   UNL     1       1.918   8.834  18.465  0.00  0.00    +0.000 A 
ENDBRANCH   2  14
BRANCH   5  20
ATOM     20  C   UNL     1       5.012   4.971  17.516  0.00  0.00    +0.000 A 
ATOM     21  C   UNL     1       6.301   4.634  17.961  0.00  0.00    +0.000 A 
ATOM     22  C   UNL     1       7.368   4.525  17.063  0.00  0.00    +0.000 A 
ATOM     23  C   UNL     1       7.157   4.739  15.705  0.00  0.00    +0.000 A 
ATOM     24  C   UNL     1       5.885   5.074  15.247  0.00  0.00    +0.000 A 
ATOM     25  C   UNL     1       4.824   5.203  16.148  0.00  0.00    +0.000 A 
ENDBRANCH   5  20
TORSDOF 2
ENDMDL
MODEL 3
REMARK VINA RESULT:      -8.6      0.298      1.424
REMARK  Name = 
REMARK  2 active torsions:
REMARK  status: ('A' for Active; 'I' for Inactive)
REMARK    1  A    between atoms: C_2  and  C_3
REMARK    2  A    between atoms: C_11  and  C_12
REMARK                            x       y       z     vdW  Elec       q    Type
REMARK                         _______ _______ _______ _____ _____    ______ ____
ROOT
ATOM      1  O   UNL     1       1.128   6.846  21.366  0.00  0.00    +0.000 OA
ATOM      2  C   UNL     1       1.721   7.087  20.315  0.00  0.00    +0.000 C 
ATOM      3  N   UNL     1       2.471   6.038  19.745  0.00  0.00    +0.000 N 
ATOM      4  C   UNL     1       3.523   6.145  18.850  0.00  0.00    +0.000 A 
ATOM      5  C   UNL     1       3.907   4.882  18.412  0.00  0.00    +0.000 A 
ATOM      6  C   UNL     1       3.061   3.951  19.091  0.00  0.00    +0.000 A 
ATOM      7  C   UNL     1       2.907   2.488  19.078  0.00  0.00    +0.000 A 
ATOM      8  O   UNL     1       3.629   1.762  18.407  0.00  0.00    +0.000 OA
ATOM      9  N   UNL     1       1.872   1.973  19.858  0.00  0.00    +0.000 NA
ATOM     10  C   UNL     1       1.170   2.774  20.594  0.00  0.00    +0.000 A 
ATOM     11  N   UNL     1       1.313   4.130  20.692  0.00  0.00    +0.000 N 
ATOM     12  C   UNL     1       2.255   4.697  19.920  0.00  0.00    +0.000 A 
ATOM     13  H   UNL     1       0.722   4.680  21.319  0.00  0.00    +0.000 HD
ENDROOT
BRANCH   2  14
ATOM     14  C   UNL     1       1.540   8.413  19.669  0.00  0.00    +0.000 A 
ATOM     15  C   UNL     1       2.072   8.647  18.398  0.00  0.00    +0.000 A 
ATOM     16  C   UNL     1       1.984   9.923  17.835  0.00  0.00    +0.000 A 
ATOM     17  C   UNL     1       1.376  10.962  18.543  0.00  0.00    +0.000 A 
ATOM     18  C   UNL     1       0.856  10.733  19.814  0.00  0.00    +0.000 A 
ATOM     19  C   UNL     1       0.946   9.464  20.382  0.00  0.00    +0.000 A 
ENDBRANCH   2  14
BRANCH   5  20
ATOM     20  C   UNL     1       4.961   4.708  17.415  0.00  0.00    +0.000 A 
ATOM     21  C   UNL     1       6.315   4.780  17.782  0.00  0.00    +0.000 A 
ATOM     22  C   UNL     1       7.328   4.636  16.829  0.00  0.00    +0.000 A 
ATOM     23  C   UNL     1       7.000   4.404  15.497  0.00  0.00    +0.000 A 
ATOM     24  C   UNL     1       5.663   4.330  15.116  0.00  0.00    +0.000 A 
ATOM     25  C   UNL     1       4.651   4.495  16.067  0.00  0.00    +0.000 A 
ENDBRANCH   5  20
TORSDOF 2
ENDMDL
MODEL 4
REMARK VINA RESULT:      -7.9      3.908      7.499
REMARK  Name = 
REMARK  2 active torsions:
REMARK  status: ('A' for Active; 'I' for Inactive)
REMARK    1  A    between atoms: C_2  and  C_3
REMARK    2  A    between atoms: C_11  and  C_12
REMARK                            x       y       z     vdW  Elec       q    Type
REMARK                         _______ _______ _______ _____ _____    ______ ____
ROOT
ATOM      1  O   UNL     1       7.852   4.550  13.871  0.00  0.00    +0.000 OA
ATOM      2  C   UNL     1       6.716   4.091  13.986  0.00  0.00    +0.000 C 
ATOM      3  N   UNL     1       6.096   4.219  15.245  0.00  0.00    +0.000 N 
ATOM      4  C   UNL     1       5.055   3.459  15.753  0.00  0.00    +0.000 A 
ATOM      5  C   UNL     1       4.628   3.985  16.967  0.00  0.00    +0.000 A 
ATOM      6  C   UNL     1       5.466   5.114  17.229  0.00  0.00    +0.000 A 
ATOM      7  C   UNL     1       5.547   6.121  18.298  0.00  0.00    +0.000 A 
ATOM      8  O   UNL     1       4.815   6.091  19.280  0.00  0.00    +0.000 OA
ATOM      9  N   UNL     1       6.491   7.131  18.120  0.00  0.00    +0.000 NA
ATOM     10  C   UNL     1       7.281   7.092  17.095  0.00  0.00    +0.000 A 
ATOM     11  N   UNL     1       7.291   6.145  16.108  0.00  0.00    +0.000 N 
ATOM     12  C   UNL     1       6.365   5.175  16.189  0.00  0.00    +0.000 A 
ATOM     13  H   UNL     1       7.968   6.186  15.344  0.00  0.00    +0.000 HD
ENDROOT
BRANCH   2  14
ATOM     14  C   UNL     1       6.039   3.524  12.792  0.00  0.00    +0.000 A 
ATOM     15  C   UNL     1       4.767   3.977  12.430  0.00  0.00    +0.000 A 
ATOM     16  C   UNL     1       4.094   3.373  11.365  0.00  0.00    +0.000 A 
ATOM     17  C   UNL     1       4.685   2.316  10.670  0.00  0.00    +0.000 A 
ATOM     18  C   UNL     1       5.947   1.855  11.036  0.00  0.00    +0.000 A 
ATOM     19  C   UNL     1       6.620   2.450  12.101  0.00  0.00    +0.000 A 
ENDBRANCH   2  14
BRANCH   5  20
ATOM     20  C   UNL     1       3.500   3.408  17.694  0.00  0.00    +0.000 A 
ATOM     21  C   UNL     1       2.261   4.068  17.737  0.00  0.00    +0.000 A 
ATOM     22  C   UNL     1       1.183   3.532  18.449  0.00  0.00    +0.000 A 
ATOM     23  C   UNL     1       1.327   2.320  19.118  0.00  0.00    +0.000 A 
ATOM     24  C   UNL     1       2.549   1.653  19.086  0.00  0.00    +0.000 A 
ATOM     25  C   UNL     1       3.631   2.200  18.390  0.00  0.00    +0.000 A 
ENDBRANCH   5  20
TORSDOF 2
ENDMDL
MODEL 5
REMARK VINA RESULT:      -7.6      3.978      6.448
REMARK  Name = 
REMARK  2 active torsions:
REMARK  status: ('A' for Active; 'I' for Inactive)
REMARK    1  A    between atoms: C_2  and  C_3
REMARK    2  A    between atoms: C_11  and  C_12
REMARK                            x       y       z     vdW  Elec       q    Type
REMARK                         _______ _______ _______ _____ _____    ______ ____
ROOT
ATOM      1  O   UNL     1      -2.332  12.372  19.534  0.00  0.00    +0.000 OA
ATOM      2  C   UNL     1      -1.925  11.415  18.876  0.00  0.00    +0.000 C 
ATOM      3  N   UNL     1      -0.840  10.686  19.406  0.00  0.00    +0.000 N 
ATOM      4  C   UNL     1       0.047   9.876  18.716  0.00  0.00    +0.000 A 
ATOM      5  C   UNL     1       0.887   9.219  19.608  0.00  0.00    +0.000 A 
ATOM      6  C   UNL     1       0.509   9.666  20.913  0.00  0.00    +0.000 A 
ATOM      7  C   UNL     1       0.952   9.364  22.283  0.00  0.00    +0.000 A 
ATOM      8  O   UNL     1       1.878   8.597  22.515  0.00  0.00    +0.000 OA
ATOM      9  N   UNL     1       0.239   9.982  23.309  0.00  0.00    +0.000 NA
ATOM     10  C   UNL     1      -0.697  10.828  23.016  0.00  0.00    +0.000 A 
ATOM     11  N   UNL     1      -1.103  11.192  21.763  0.00  0.00    +0.000 N 
ATOM     12  C   UNL     1      -0.496  10.588  20.728  0.00  0.00    +0.000 A 
ATOM     13  H   UNL     1      -1.841  11.887  21.628  0.00  0.00    +0.000 HD
ENDROOT
BRANCH   2  14
ATOM     14  C   UNL     1      -2.644  11.031  17.635  0.00  0.00    +0.000 A 
ATOM     15  C   UNL     1      -2.027  10.191  16.703  0.00  0.00    +0.000 A 
ATOM     16  C   UNL     1      -2.668   9.911  15.493  0.00  0.00    +0.000 A 
ATOM     17  C   UNL     1      -3.915  10.474  15.212  0.00  0.00    +0.000 A 
ATOM     18  C   UNL     1      -4.526  11.319  16.134  0.00  0.00    +0.000 A 
ATOM     19  C   UNL     1      -3.889  11.606  17.340  0.00  0.00    +0.000 A 
ENDBRANCH   2  14
BRANCH   5  20
ATOM     20  C   UNL     1       1.884   8.255  19.150  0.00  0.00    +0.000 A 
ATOM     21  C   UNL     1       2.622   8.489  17.978  0.00  0.00    +0.000 A 
ATOM     22  C   UNL     1       3.562   7.560  17.522  0.00  0.00    +0.000 A 
ATOM     23  C   UNL     1       3.787   6.390  18.239  0.00  0.00    +0.000 A 
ATOM     24  C   UNL     1       3.064   6.143  19.403  0.00  0.00    +0.000 A 
ATOM     25  C   UNL     1       2.109   7.062  19.847  0.00  0.00    +0.000 A 
ENDBRANCH   5  20
TORSDOF 2
ENDMDL
MODEL 6
REMARK VINA RESULT:      -7.5      4.072      7.514
REMARK  Name = 
REMARK  2 active torsions:
REMARK  status: ('A' for Active; 'I' for Inactive)
REMARK    1  A    between atoms: C_2  and  C_3
REMARK    2  A    between atoms: C_11  and  C_12
REMARK                            x       y       z     vdW  Elec       q    Type
REMARK                         _______ _______ _______ _____ _____    ______ ____
ROOT
ATOM      1  O   UNL     1       7.784   4.542  13.785  0.00  0.00    +0.000 OA
ATOM      2  C   UNL     1       6.678   4.051  14.007  0.00  0.00    +0.000 C 
ATOM      3  N   UNL     1       6.167   4.183  15.314  0.00  0.00    +0.000 N 
ATOM      4  C   UNL     1       5.199   3.401  15.923  0.00  0.00    +0.000 A 
ATOM      5  C   UNL     1       4.864   3.934  17.163  0.00  0.00    +0.000 A 
ATOM      6  C   UNL     1       5.686   5.091  17.333  0.00  0.00    +0.000 A 
ATOM      7  C   UNL     1       5.829   6.118  18.376  0.00  0.00    +0.000 A 
ATOM      8  O   UNL     1       5.188   6.084  19.419  0.00  0.00    +0.000 OA
ATOM      9  N   UNL     1       6.722   7.153  18.100  0.00  0.00    +0.000 NA
ATOM     10  C   UNL     1       7.419   7.120  17.010  0.00  0.00    +0.000 A 
ATOM     11  N   UNL     1       7.372   6.158  16.040  0.00  0.00    +0.000 N 
ATOM     12  C   UNL     1       6.488   5.162  16.217  0.00  0.00    +0.000 A 
ATOM     13  H   UNL     1       7.978   6.205  15.218  0.00  0.00    +0.000 HD
ENDROOT
BRANCH   2  14
ATOM     14  C   UNL     1       5.916   3.444  12.885  0.00  0.00    +0.000 A 
ATOM     15  C   UNL     1       6.474   2.393  12.152  0.00  0.00    +0.000 A 
ATOM     16  C   UNL     1       5.796   1.890  11.037  0.00  0.00    +0.000 A 
ATOM     17  C   UNL     1       4.571   2.440  10.654  0.00  0.00    +0.000 A 
ATOM     18  C   UNL     1       4.019   3.495  11.377  0.00  0.00    +0.000 A 
ATOM     19  C   UNL     1       4.694   4.004  12.485  0.00  0.00    +0.000 A 
ENDBRANCH   2  14
BRANCH   5  20
ATOM     20  C   UNL     1       3.823   3.336  17.995  0.00  0.00    +0.000 A 
ATOM     21  C   UNL     1       2.495   3.264  17.542  0.00  0.00    +0.000 A 
ATOM     22  C   UNL     1       1.490   2.712  18.343  0.00  0.00    +0.000 A 
ATOM     23  C   UNL     1       1.802   2.212  19.603  0.00  0.00    +0.000 A 
ATOM     24  C   UNL     1       3.114   2.276  20.067  0.00  0.00    +0.000 A 
ATOM     25  C   UNL     1       4.114   2.846  19.274  0.00  0.00    +0.000 A 
ENDBRANCH   5  20
TORSDOF 2
ENDMDL
MODEL 7
REMARK VINA RESULT:      -7.5      4.051      6.537
REMARK  Name = 
REMARK  2 active torsions:
REMARK  status: ('A' for Active; 'I' for Inactive)
REMARK    1  A    between atoms: C_2  and  C_3
REMARK    2  A    between atoms: C_11  and  C_12
REMARK                            x       y       z     vdW  Elec       q    Type
REMARK                         _______ _______ _______ _____ _____    ______ ____
ROOT
ATOM      1  O   UNL     1      -2.323  12.597  19.569  0.00  0.00    +0.000 OA
ATOM      2  C   UNL     1      -1.937  11.641  18.898  0.00  0.00    +0.000 C 
ATOM      3  N   UNL     1      -0.884  10.867  19.428  0.00  0.00    +0.000 N 
ATOM      4  C   UNL     1      -0.013  10.043  18.735  0.00  0.00    +0.000 A 
ATOM      5  C   UNL     1       0.792   9.341  19.625  0.00  0.00    +0.000 A 
ATOM      6  C   UNL     1       0.409   9.775  20.933  0.00  0.00    +0.000 A 
ATOM      7  C   UNL     1       0.821   9.431  22.303  0.00  0.00    +0.000 A 
ATOM      8  O   UNL     1       1.719   8.631  22.533  0.00  0.00    +0.000 OA
ATOM      9  N   UNL     1       0.113  10.052  23.331  0.00  0.00    +0.000 NA
ATOM     10  C   UNL     1      -0.790  10.932  23.042  0.00  0.00    +0.000 A 
ATOM     11  N   UNL     1      -1.166  11.335  21.790  0.00  0.00    +0.000 N 
ATOM     12  C   UNL     1      -0.563  10.731  20.752  0.00  0.00    +0.000 A 
ATOM     13  H   UNL     1      -1.880  12.055  21.659  0.00  0.00    +0.000 HD
ENDROOT
BRANCH   2  14
ATOM     14  C   UNL     1      -2.650  11.304  17.638  0.00  0.00    +0.000 A 
ATOM     15  C   UNL     1      -3.988  11.672  17.475  0.00  0.00    +0.000 A 
ATOM     16  C   UNL     1      -4.682  11.269  16.331  0.00  0.00    +0.000 A 
ATOM     17  C   UNL     1      -4.044  10.495  15.359  0.00  0.00    +0.000 A 
ATOM     18  C   UNL     1      -2.714  10.117  15.526  0.00  0.00    +0.000 A 
ATOM     19  C   UNL     1      -2.019  10.513  16.668  0.00  0.00    +0.000 A 
ENDBRANCH   2  14
BRANCH   5  20
ATOM     20  C   UNL     1       1.764   8.355  19.162  0.00  0.00    +0.000 A 
ATOM     21  C   UNL     1       2.009   7.186  19.901  0.00  0.00    +0.000 A 
ATOM     22  C   UNL     1       2.955   6.249  19.474  0.00  0.00    +0.000 A 
ATOM     23  C   UNL     1       3.659   6.461  18.293  0.00  0.00    +0.000 A 
ATOM     24  C   UNL     1       3.428   7.615  17.548  0.00  0.00    +0.000 A 
ATOM     25  C   UNL     1       2.498   8.561  17.987  0.00  0.00    +0.000 A 
ENDBRANCH   5  20
TORSDOF 2
ENDMDL
MODEL 8
REMARK VINA RESULT:      -7.3      2.045      5.760
REMARK  Name = 
REMARK  2 active torsions:
REMARK  status: ('A' for Active; 'I' for Inactive)
REMARK    1  A    between atoms: C_2  and  C_3
REMARK    2  A    between atoms: C_11  and  C_12
REMARK                            x       y       z     vdW  Elec       q    Type
REMARK                         _______ _______ _______ _____ _____    ______ ____
ROOT
ATOM      1  O   UNL     1       5.753   4.232  17.105  0.00  0.00    +0.000 OA
ATOM      2  C   UNL     1       5.548   5.275  17.726  0.00  0.00    +0.000 C 
ATOM      3  N   UNL     1       4.267   5.445  18.289  0.00  0.00    +0.000 N 
ATOM      4  C   UNL     1       3.658   6.636  18.650  0.00  0.00    +0.000 A 
ATOM      5  C   UNL     1       2.456   6.379  19.302  0.00  0.00    +0.000 A 
ATOM      6  C   UNL     1       2.311   4.957  19.323  0.00  0.00    +0.000 A 
ATOM      7  C   UNL     1       1.312   4.023  19.865  0.00  0.00    +0.000 A 
ATOM      8  O   UNL     1       0.292   4.410  20.422  0.00  0.00    +0.000 OA
ATOM      9  N   UNL     1       1.604   2.666  19.732  0.00  0.00    +0.000 NA
ATOM     10  C   UNL     1       2.666   2.303  19.087  0.00  0.00    +0.000 A 
ATOM     11  N   UNL     1       3.591   3.127  18.508  0.00  0.00    +0.000 N 
ATOM     12  C   UNL     1       3.400   4.449  18.652  0.00  0.00    +0.000 A 
ATOM     13  H   UNL     1       4.392   2.747  18.000  0.00  0.00    +0.000 HD
ENDROOT
BRANCH   2  14
ATOM     14  C   UNL     1       6.666   6.232  17.925  0.00  0.00    +0.000 A 
ATOM     15  C   UNL     1       7.586   6.024  18.957  0.00  0.00    +0.000 A 
ATOM     16  C   UNL     1       8.578   6.978  19.202  0.00  0.00    +0.000 A 
ATOM     17  C   UNL     1       8.646   8.136  18.425  0.00  0.00    +0.000 A 
ATOM     18  C   UNL     1       7.723   8.350  17.404  0.00  0.00    +0.000 A 
ATOM     19  C   UNL     1       6.728   7.405  17.160  0.00  0.00    +0.000 A 
ENDBRANCH   2  14
BRANCH   5  20
ATOM     20  C   UNL     1       1.635   7.460  19.842  0.00  0.00    +0.000 A 
ATOM     21  C   UNL     1       1.380   8.615  19.085  0.00  0.00    +0.000 A 
ATOM     22  C   UNL     1       0.613   9.662  19.604  0.00  0.00    +0.000 A 
ATOM     23  C   UNL     1       0.078   9.562  20.885  0.00  0.00    +0.000 A 
ATOM     24  C   UNL     1       0.321   8.424  21.649  0.00  0.00    +0.000 A 
ATOM     25  C   UNL     1       1.105   7.386  21.136  0.00  0.00    +0.000 A 
ENDBRANCH   5  20
TORSDOF 2
ENDMDL
MODEL 9
REMARK VINA RESULT:      -7.2      2.519      4.564
REMARK  Name = 
REMARK  2 active torsions:
REMARK  status: ('A' for Active; 'I' for Inactive)
REMARK    1  A    between atoms: C_2  and  C_3
REMARK    2  A    between atoms: C_11  and  C_12
REMARK                            x       y       z     vdW  Elec       q    Type
REMARK                         _______ _______ _______ _____ _____    ______ ____
ROOT
ATOM      1  O   UNL     1       2.410   9.573  17.121  0.00  0.00    +0.000 OA
ATOM      2  C   UNL     1       1.947   8.988  18.100  0.00  0.00    +0.000 C 
ATOM      3  N   UNL     1       2.389   7.669  18.328  0.00  0.00    +0.000 N 
ATOM      4  C   UNL     1       1.750   6.682  19.061  0.00  0.00    +0.000 A 
ATOM      5  C   UNL     1       2.570   5.563  19.172  0.00  0.00    +0.000 A 
ATOM      6  C   UNL     1       3.765   5.873  18.450  0.00  0.00    +0.000 A 
ATOM      7  C   UNL     1       5.031   5.171  18.188  0.00  0.00    +0.000 A 
ATOM      8  O   UNL     1       5.238   4.031  18.584  0.00  0.00    +0.000 OA
ATOM      9  N   UNL     1       5.996   5.888  17.482  0.00  0.00    +0.000 NA
ATOM     10  C   UNL     1       5.712   7.069  17.035  0.00  0.00    +0.000 A 
ATOM     11  N   UNL     1       4.532   7.740  17.195  0.00  0.00    +0.000 N 
ATOM     12  C   UNL     1       3.579   7.128  17.919  0.00  0.00    +0.000 A 
ATOM     13  H   UNL     1       4.391   8.667  16.788  0.00  0.00    +0.000 HD
ENDROOT
BRANCH   2  14
ATOM     14  C   UNL     1       1.041   9.721  19.021  0.00  0.00    +0.000 A 
ATOM     15  C   UNL     1       1.277   9.694  20.399  0.00  0.00    +0.000 A 
ATOM     16  C   UNL     1       0.368  10.303  21.268  0.00  0.00    +0.000 A 
ATOM     17  C   UNL     1      -0.774  10.928  20.765  0.00  0.00    +0.000 A 
ATOM     18  C   UNL     1      -1.017  10.946  19.394  0.00  0.00    +0.000 A 
ATOM     19  C   UNL     1      -0.117  10.335  18.522  0.00  0.00    +0.000 A 
ENDBRANCH   2  14
BRANCH   5  20
ATOM     20  C   UNL     1       2.164   4.393  19.946  0.00  0.00    +0.000 A 
ATOM     21  C   UNL     1       1.419   3.362  19.349  0.00  0.00    +0.000 A 
ATOM     22  C   UNL     1       1.008   2.249  20.090  0.00  0.00    +0.000 A 
ATOM     23  C   UNL     1       1.349   2.146  21.435  0.00  0.00    +0.000 A 
ATOM     24  C   UNL     1       2.086   3.159  22.041  0.00  0.00    +0.000 A 
ATOM     25  C   UNL     1       2.479   4.281  21.305  0.00  0.00    +0.000 A 
ENDBRANCH   5  20
TORSDOF 2
ENDMDL
