MODEL 1
REMARK VINA RESULT:      -8.4      0.000      0.000
REMARK  Name = 
REMARK  8 active torsions:
REMARK  status: ('A' for Active; 'I' for Inactive)
REMARK    1  A    between atoms: C_2  and  C_3
REMARK    2  A    between atoms: C_3  and  C_4
REMARK    3  A    between atoms: N_6  and  C_7
REMARK    4  A    between atoms: C_11  and  C_12
REMARK    5  A    between atoms: C_12  and  O_14
REMARK    6  A    between atoms: N_16  and  C_17
REMARK    7  A    between atoms: C_21  and  C_22
REMARK    8  A    between atoms: C_22  and  O_24
REMARK                            x       y       z     vdW  Elec       q    Type
REMARK                         _______ _______ _______ _____ _____    ______ ____
ROOT
ATOM      1  C   UNL     1       7.160   5.680  18.281  0.00  0.00    +0.000 C 
ENDROOT
BRANCH   1   3
ATOM      2  O   UNL     1       7.093   7.094  16.373  0.00  0.00    +0.000 OA
ATOM      3  C   UNL     1       7.122   5.930  16.775  0.00  0.00    +0.000 C 
ATOM      4  N   UNL     1       7.184   4.815  15.961  0.00  0.00    +0.000 N 
ATOM      5  H   UNL     1       7.267   3.916  16.439  0.00  0.00    +0.000 HD
BRANCH   4   6
ATOM      6  C   UNL     1       7.179   4.752  14.555  0.00  0.00    +0.000 A 
ATOM      7  C   UNL     1       8.014   5.528  13.752  0.00  0.00    +0.000 A 
ATOM      8  C   UNL     1       7.975   5.404  12.363  0.00  0.00    +0.000 A 
ATOM      9  C   UNL     1       7.117   4.485  11.765  0.00  0.00    +0.000 A 
ATOM     10  C   UNL     1       6.270   3.703  12.554  0.00  0.00    +0.000 A 
ATOM     11  C   UNL     1       6.275   3.863  13.948  0.00  0.00    +0.000 A 
BRANCH  10  12
ATOM     12  C   UNL     1       5.373   2.743  11.856  0.00  0.00    +0.000 C 
ATOM     13  O   UNL     1       4.262   3.050  11.456  0.00  0.00    +0.000 OA
BRANCH  12  14
ATOM     14  O   UNL     1       5.908   1.520  11.657  0.00  0.00    +0.000 OA
ATOM     15  H   UNL     1       5.411   0.939  11.055  0.00  0.00    +0.000 HD
ENDBRANCH  12  14
ENDBRANCH  10  12
ENDBRANCH   4   6
ENDBRANCH   1   3
BRANCH   1  16
ATOM     16  C   UNL     1       5.959   5.012  18.903  0.00  0.00    +0.000 C 
ATOM     17  O   UNL     1       6.092   4.046  19.655  0.00  0.00    +0.000 OA
ATOM     18  N   UNL     1       4.737   5.568  18.560  0.00  0.00    +0.000 N 
ATOM     19  H   UNL     1       4.701   6.202  17.767  0.00  0.00    +0.000 HD
BRANCH  18  20
ATOM     20  C   UNL     1       3.500   5.171  19.128  0.00  0.00    +0.000 A 
ATOM     21  C   UNL     1       2.843   5.936  20.100  0.00  0.00    +0.000 A 
ATOM     22  C   UNL     1       1.644   5.517  20.671  0.00  0.00    +0.000 A 
ATOM     23  C   UNL     1       1.070   4.320  20.267  0.00  0.00    +0.000 A 
ATOM     24  C   UNL     1       1.708   3.543  19.294  0.00  0.00    +0.000 A 
ATOM     25  C   UNL     1       2.908   3.981  18.703  0.00  0.00    +0.000 A 
BRANCH  24  26
ATOM     26  C   UNL     1       1.127   2.256  18.841  0.00  0.00    +0.000 C 
ATOM     27  O   UNL     1      -0.024   2.163  18.451  0.00  0.00    +0.000 OA
BRANCH  26  28
ATOM     28  O   UNL     1       1.989   1.221  18.864  0.00  0.00    +0.000 OA
ATOM     29  H   UNL     1       1.929   0.639  19.645  0.00  0.00    +0.000 HD
ENDBRANCH  26  28
ENDBRANCH  24  26
ENDBRANCH  18  20
ENDBRANCH   1  16
TORSDOF 8
ENDMDL
MODEL 2
REMARK VINA RESULT:      -8.3      0.968      1.066
REMARK  Name = 
REMARK  8 active torsions:
REMARK  status: ('A' for Active; 'I' for Inactive)
REMARK    1  A    between atoms: C_2  and  C_3
REMARK    2  A    between atoms: C_3  and  C_4
REMARK    3  A    between atoms: N_6  and  C_7
REMARK    4  A    between atoms: C_11  and  C_12
REMARK    5  A    between atoms: C_12  and  O_14
REMARK    6  A    between atoms: N_16  and  C_17
REMARK    7  A    between atoms: C_21  and  C_22
REMARK    8  A    between atoms: C_22  and  O_24
REMARK                            x       y       z     vdW  Elec       q    Type
REMARK                         _______ _______ _______ _____ _____    ______ ____
ROOT
ATOM      1  C   UNL     1       7.369   5.690  18.001  0.00  0.00    +0.000 C 
ENDROOT
BRANCH   1   3
ATOM      2  O   UNL     1       6.440   6.879  16.167  0.00  0.00    +0.000 OA
ATOM      3  C   UNL     1       7.037   5.862  16.520  0.00  0.00    +0.000 C 
ATOM      4  N   UNL     1       7.491   4.875  15.666  0.00  0.00    +0.000 N 
ATOM      5  H   UNL     1       8.028   4.120  16.098  0.00  0.00    +0.000 HD
BRANCH   4   6
ATOM      6  C   UNL     1       7.341   4.785  14.270  0.00  0.00    +0.000 A 
ATOM      7  C   UNL     1       8.080   5.553  13.370  0.00  0.00    +0.000 A 
ATOM      8  C   UNL     1       7.899   5.401  11.995  0.00  0.00    +0.000 A 
ATOM      9  C   UNL     1       6.993   4.463  11.506  0.00  0.00    +0.000 A 
ATOM     10  C   UNL     1       6.241   3.688  12.393  0.00  0.00    +0.000 A 
ATOM     11  C   UNL     1       6.389   3.876  13.776  0.00  0.00    +0.000 A 
BRANCH  10  12
ATOM     12  C   UNL     1       5.288   2.707  11.811  0.00  0.00    +0.000 C 
ATOM     13  O   UNL     1       4.151   3.006  11.483  0.00  0.00    +0.000 OA
BRANCH  12  14
ATOM     14  O   UNL     1       5.799   1.472  11.626  0.00  0.00    +0.000 OA
ATOM     15  H   UNL     1       5.523   1.023  10.807  0.00  0.00    +0.000 HD
ENDBRANCH  12  14
ENDBRANCH  10  12
ENDBRANCH   4   6
ENDBRANCH   1   3
BRANCH   1  16
ATOM     16  C   UNL     1       6.230   5.357  18.933  0.00  0.00    +0.000 C 
ATOM     17  O   UNL     1       6.445   4.923  20.064  0.00  0.00    +0.000 OA
ATOM     18  N   UNL     1       4.965   5.578  18.412  0.00  0.00    +0.000 N 
ATOM     19  H   UNL     1       4.873   5.713  17.410  0.00  0.00    +0.000 HD
BRANCH  18  20
ATOM     20  C   UNL     1       3.768   5.448  19.160  0.00  0.00    +0.000 A 
ATOM     21  C   UNL     1       2.994   6.555  19.534  0.00  0.00    +0.000 A 
ATOM     22  C   UNL     1       1.837   6.412  20.296  0.00  0.00    +0.000 A 
ATOM     23  C   UNL     1       1.423   5.148  20.691  0.00  0.00    +0.000 A 
ATOM     24  C   UNL     1       2.180   4.029  20.325  0.00  0.00    +0.000 A 
ATOM     25  C   UNL     1       3.336   4.174  19.535  0.00  0.00    +0.000 A 
BRANCH  24  26
ATOM     26  C   UNL     1       1.772   2.664  20.733  0.00  0.00    +0.000 C 
ATOM     27  O   UNL     1       1.437   1.816  19.924  0.00  0.00    +0.000 OA
BRANCH  26  28
ATOM     28  O   UNL     1       1.841   2.438  22.059  0.00  0.00    +0.000 OA
ATOM     29  H   UNL     1       2.420   3.042  22.561  0.00  0.00    +0.000 HD
ENDBRANCH  26  28
ENDBRANCH  24  26
ENDBRANCH  18  20
ENDBRANCH   1  16
TORSDOF 8
ENDMDL
MODEL 3
REMARK VINA RESULT:      -7.8      1.492      7.754
REMARK  Name = 
REMARK  8 active torsions:
REMARK  status: ('A' for Active; 'I' for Inactive)
REMARK    1  A    between atoms: C_2  and  C_3
REMARK    2  A    between atoms: C_3  and  C_4
REMARK    3  A    between atoms: N_6  and  C_7
REMARK    4  A    between atoms: C_11  and  C_12
REMARK    5  A    between atoms: C_12  and  O_14
REMARK    6  A    between atoms: N_16  and  C_17
REMARK    7  A    between atoms: C_21  and  C_22
REMARK    8  A    between atoms: C_22  and  O_24
REMARK                            x       y       z     vdW  Elec       q    Type
REMARK                         _______ _______ _______ _____ _____    ______ ____
ROOT
ATOM      1  C   UNL     1       6.561   5.954  17.763  0.00  0.00    +0.000 C 
ENDROOT
BRANCH   1   3
ATOM      2  O   UNL     1       5.467   5.592  19.841  0.00  0.00    +0.000 OA
ATOM      3  C   UNL     1       5.414   5.425  18.622  0.00  0.00    +0.000 C 
ATOM      4  N   UNL     1       4.356   4.842  17.951  0.00  0.00    +0.000 N 
ATOM      5  H   UNL     1       4.425   4.830  16.931  0.00  0.00    +0.000 HD
BRANCH   4   6
ATOM      6  C   UNL     1       3.177   4.288  18.481  0.00  0.00    +0.000 A 
ATOM      7  C   UNL     1       1.969   4.252  17.786  0.00  0.00    +0.000 A 
ATOM      8  C   UNL     1       0.838   3.670  18.361  0.00  0.00    +0.000 A 
ATOM      9  C   UNL     1       0.912   3.095  19.627  0.00  0.00    +0.000 A 
ATOM     10  C   UNL     1       2.114   3.126  20.340  0.00  0.00    +0.000 A 
ATOM     11  C   UNL     1       3.237   3.754  19.781  0.00  0.00    +0.000 A 
BRANCH  10  12
ATOM     12  C   UNL     1       2.129   2.500  21.689  0.00  0.00    +0.000 C 
ATOM     13  O   UNL     1       3.130   1.997  22.172  0.00  0.00    +0.000 OA
BRANCH  12  14
ATOM     14  O   UNL     1       0.958   2.579  22.356  0.00  0.00    +0.000 OA
ATOM     15  H   UNL     1       0.390   3.332  22.117  0.00  0.00    +0.000 HD
ENDBRANCH  12  14
ENDBRANCH  10  12
ENDBRANCH   4   6
ENDBRANCH   1   3
BRANCH   1  16
ATOM     16  C   UNL     1       6.386   5.904  16.266  0.00  0.00    +0.000 C 
ATOM     17  O   UNL     1       5.726   6.760  15.678  0.00  0.00    +0.000 OA
ATOM     18  N   UNL     1       7.016   4.840  15.639  0.00  0.00    +0.000 N 
ATOM     19  H   UNL     1       7.337   4.065  16.211  0.00  0.00    +0.000 HD
BRANCH  18  20
ATOM     20  C   UNL     1       7.080   4.677  14.232  0.00  0.00    +0.000 A 
ATOM     21  C   UNL     1       7.912   5.463  13.424  0.00  0.00    +0.000 A 
ATOM     22  C   UNL     1       7.940   5.311  12.040  0.00  0.00    +0.000 A 
ATOM     23  C   UNL     1       7.138   4.353  11.436  0.00  0.00    +0.000 A 
ATOM     24  C   UNL     1       6.303   3.555  12.225  0.00  0.00    +0.000 A 
ATOM     25  C   UNL     1       6.294   3.695  13.625  0.00  0.00    +0.000 A 
BRANCH  24  26
ATOM     26  C   UNL     1       5.428   2.526  11.614  0.00  0.00    +0.000 C 
ATOM     27  O   UNL     1       4.318   2.787  11.185  0.00  0.00    +0.000 OA
BRANCH  26  28
ATOM     28  O   UNL     1       5.982   1.299  11.544  0.00  0.00    +0.000 OA
ATOM     29  H   UNL     1       6.933   1.277  11.330  0.00  0.00    +0.000 HD
ENDBRANCH  26  28
ENDBRANCH  24  26
ENDBRANCH  18  20
ENDBRANCH   1  16
TORSDOF 8
ENDMDL
MODEL 4
REMARK VINA RESULT:      -7.8      4.740      8.742
REMARK  Name = 
REMARK  8 active torsions:
REMARK  status: ('A' for Active; 'I' for Inactive)
REMARK    1  A    between atoms: C_2  and  C_3
REMARK    2  A    between atoms: C_3  and  C_4
REMARK    3  A    between atoms: N_6  and  C_7
REMARK    4  A    between atoms: C_11  and  C_12
REMARK    5  A    between atoms: C_12  and  O_14
REMARK    6  A    between atoms: N_16  and  C_17
REMARK    7  A    between atoms: C_21  and  C_22
REMARK    8  A    between atoms: C_22  and  O_24
REMARK                            x       y       z     vdW  Elec       q    Type
REMARK                         _______ _______ _______ _____ _____    ______ ____
ROOT
ATOM      1  C   UNL     1       7.981   7.148  18.226  0.00  0.00    +0.000 C 
ENDROOT
BRANCH   1   3
ATOM      2  O   UNL     1       6.415   6.746  16.486  0.00  0.00    +0.000 OA
ATOM      3  C   UNL     1       6.639   6.650  17.693  0.00  0.00    +0.000 C 
ATOM      4  N   UNL     1       5.787   6.065  18.610  0.00  0.00    +0.000 N 
ATOM      5  H   UNL     1       6.136   6.000  19.568  0.00  0.00    +0.000 HD
BRANCH   4   6
ATOM      6  C   UNL     1       4.509   5.515  18.396  0.00  0.00    +0.000 A 
ATOM      7  C   UNL     1       3.367   6.290  18.196  0.00  0.00    +0.000 A 
ATOM      8  C   UNL     1       2.131   5.684  17.969  0.00  0.00    +0.000 A 
ATOM      9  C   UNL     1       2.030   4.297  17.915  0.00  0.00    +0.000 A 
ATOM     10  C   UNL     1       3.164   3.504  18.117  0.00  0.00    +0.000 A 
ATOM     11  C   UNL     1       4.397   4.114  18.393  0.00  0.00    +0.000 A 
BRANCH  10  12
ATOM     12  C   UNL     1       2.991   2.029  18.051  0.00  0.00    +0.000 C 
ATOM     13  O   UNL     1       3.783   1.249  18.554  0.00  0.00    +0.000 OA
BRANCH  12  14
ATOM     14  O   UNL     1       1.860   1.624  17.436  0.00  0.00    +0.000 OA
ATOM     15  H   UNL     1       1.867   1.684  16.464  0.00  0.00    +0.000 HD
ENDBRANCH  12  14
ENDBRANCH  10  12
ENDBRANCH   4   6
ENDBRANCH   1   3
BRANCH   1  16
ATOM     16  C   UNL     1       8.216   8.638  18.228  0.00  0.00    +0.000 C 
ATOM     17  O   UNL     1       7.515   9.389  17.551  0.00  0.00    +0.000 OA
ATOM     18  N   UNL     1       9.259   9.065  19.036  0.00  0.00    +0.000 N 
ATOM     19  H   UNL     1       9.921   8.373  19.372  0.00  0.00    +0.000 HD
BRANCH  18  20
ATOM     20  C   UNL     1       9.566  10.427  19.276  0.00  0.00    +0.000 A 
ATOM     21  C   UNL     1       9.192  11.083  20.456  0.00  0.00    +0.000 A 
ATOM     22  C   UNL     1       9.475  12.431  20.662  0.00  0.00    +0.000 A 
ATOM     23  C   UNL     1      10.154  13.150  19.689  0.00  0.00    +0.000 A 
ATOM     24  C   UNL     1      10.540  12.513  18.505  0.00  0.00    +0.000 A 
ATOM     25  C   UNL     1      10.273  11.145  18.309  0.00  0.00    +0.000 A 
BRANCH  24  26
ATOM     26  C   UNL     1      11.262  13.250  17.440  0.00  0.00    +0.000 C 
ATOM     27  O   UNL     1      10.956  14.383  17.111  0.00  0.00    +0.000 OA
BRANCH  26  28
ATOM     28  O   UNL     1      12.297  12.575  16.903  0.00  0.00    +0.000 OA
ATOM     29  H   UNL     1      12.186  12.300  15.974  0.00  0.00    +0.000 HD
ENDBRANCH  26  28
ENDBRANCH  24  26
ENDBRANCH  18  20
ENDBRANCH   1  16
TORSDOF 8
ENDMDL
MODEL 5
REMARK VINA RESULT:      -7.8      4.264      7.018
REMARK  Name = 
REMARK  8 active torsions:
REMARK  status: ('A' for Active; 'I' for Inactive)
REMARK    1  A    between atoms: C_2  and  C_3
REMARK    2  A    between atoms: C_3  and  C_4
REMARK    3  A    between atoms: N_6  and  C_7
REMARK    4  A    between atoms: C_11  and  C_12
REMARK    5  A    between atoms: C_12  and  O_14
REMARK    6  A    between atoms: N_16  and  C_17
REMARK    7  A    between atoms: C_21  and  C_22
REMARK    8  A    between atoms: C_22  and  O_24
REMARK                            x       y       z     vdW  Elec       q    Type
REMARK                         _______ _______ _______ _____ _____    ______ ____
ROOT
ATOM      1  C   UNL     1       7.657   6.241  18.035  0.00  0.00    +0.000 C 
ENDROOT
BRANCH   1   3
ATOM      2  O   UNL     1       6.995   8.349  17.164  0.00  0.00    +0.000 OA
ATOM      3  C   UNL     1       7.764   7.761  17.924  0.00  0.00    +0.000 C 
ATOM      4  N   UNL     1       8.691   8.377  18.742  0.00  0.00    +0.000 N 
ATOM      5  H   UNL     1       9.216   7.762  19.367  0.00  0.00    +0.000 HD
BRANCH   4   6
ATOM      6  C   UNL     1       8.990   9.748  18.854  0.00  0.00    +0.000 A 
ATOM      7  C   UNL     1       9.177  10.582  17.753  0.00  0.00    +0.000 A 
ATOM      8  C   UNL     1       9.451  11.939  17.931  0.00  0.00    +0.000 A 
ATOM      9  C   UNL     1       9.516  12.479  19.213  0.00  0.00    +0.000 A 
ATOM     10  C   UNL     1       9.335  11.657  20.328  0.00  0.00    +0.000 A 
ATOM     11  C   UNL     1       9.108  10.284  20.149  0.00  0.00    +0.000 A 
BRANCH  10  12
ATOM     12  C   UNL     1       9.421  12.290  21.670  0.00  0.00    +0.000 C 
ATOM     13  O   UNL     1       9.822  13.430  21.838  0.00  0.00    +0.000 OA
BRANCH  12  14
ATOM     14  O   UNL     1       8.969  11.521  22.683  0.00  0.00    +0.000 OA
ATOM     15  H   UNL     1       9.654  11.037  23.179  0.00  0.00    +0.000 HD
ENDBRANCH  12  14
ENDBRANCH  10  12
ENDBRANCH   4   6
ENDBRANCH   1   3
BRANCH   1  16
ATOM     16  C   UNL     1       6.469   5.682  18.778  0.00  0.00    +0.000 C 
ATOM     17  O   UNL     1       6.590   5.235  19.918  0.00  0.00    +0.000 OA
ATOM     18  N   UNL     1       5.273   5.719  18.079  0.00  0.00    +0.000 N 
ATOM     19  H   UNL     1       5.305   5.885  17.078  0.00  0.00    +0.000 HD
BRANCH  18  20
ATOM     20  C   UNL     1       4.020   5.360  18.636  0.00  0.00    +0.000 A 
ATOM     21  C   UNL     1       3.335   6.187  19.536  0.00  0.00    +0.000 A 
ATOM     22  C   UNL     1       2.120   5.805  20.098  0.00  0.00    +0.000 A 
ATOM     23  C   UNL     1       1.557   4.583  19.759  0.00  0.00    +0.000 A 
ATOM     24  C   UNL     1       2.222   3.743  18.859  0.00  0.00    +0.000 A 
ATOM     25  C   UNL     1       3.439   4.142  18.275  0.00  0.00    +0.000 A 
BRANCH  24  26
ATOM     26  C   UNL     1       1.654   2.429  18.477  0.00  0.00    +0.000 C 
ATOM     27  O   UNL     1       0.453   2.234  18.410  0.00  0.00    +0.000 OA
BRANCH  26  28
ATOM     28  O   UNL     1       2.576   1.493  18.178  0.00  0.00    +0.000 OA
ATOM     29  H   UNL     1       3.359   1.471  18.759  0.00  0.00    +0.000 HD
ENDBRANCH  26  28
ENDBRANCH  24  26
ENDBRANCH  18  20
ENDBRANCH   1  16
TORSDOF 8
ENDMDL
MODEL 6
REMARK VINA RESULT:      -7.8      4.564      8.326
REMARK  Name = 
REMARK  8 active torsions:
REMARK  status: ('A' for Active; 'I' for Inactive)
REMARK    1  A    between atoms: C_2  and  C_3
REMARK    2  A    between atoms: C_3  and  C_4
REMARK    3  A    between atoms: N_6  and  C_7
REMARK    4  A    between atoms: C_11  and  C_12
REMARK    5  A    between atoms: C_12  and  O_14
REMARK    6  A    between atoms: N_16  and  C_17
REMARK    7  A    between atoms: C_21  and  C_22
REMARK    8  A    between atoms: C_22  and  O_24
REMARK                            x       y       z     vdW  Elec       q    Type
REMARK                         _______ _______ _______ _____ _____    ______ ____
ROOT
ATOM      1  C   UNL     1       8.091   6.491  18.361  0.00  0.00    +0.000 C 
ENDROOT
BRANCH   1   3
ATOM      2  O   UNL     1       6.686   5.338  19.892  0.00  0.00    +0.000 OA
ATOM      3  C   UNL     1       6.769   5.846  18.773  0.00  0.00    +0.000 C 
ATOM      4  N   UNL     1       5.729   5.934  17.868  0.00  0.00    +0.000 N 
ATOM      5  H   UNL     1       5.930   6.441  17.003  0.00  0.00    +0.000 HD
BRANCH   4   6
ATOM      6  C   UNL     1       4.415   5.446  17.989  0.00  0.00    +0.000 A 
ATOM      7  C   UNL     1       3.289   6.268  17.973  0.00  0.00    +0.000 A 
ATOM      8  C   UNL     1       2.010   5.720  18.077  0.00  0.00    +0.000 A 
ATOM      9  C   UNL     1       1.845   4.340  18.173  0.00  0.00    +0.000 A 
ATOM     10  C   UNL     1       2.962   3.501  18.194  0.00  0.00    +0.000 A 
ATOM     11  C   UNL     1       4.249   4.058  18.138  0.00  0.00    +0.000 A 
BRANCH  10  12
ATOM     12  C   UNL     1       2.721   2.038  18.303  0.00  0.00    +0.000 C 
ATOM     13  O   UNL     1       3.621   1.216  18.267  0.00  0.00    +0.000 OA
BRANCH  12  14
ATOM     14  O   UNL     1       1.429   1.697  18.497  0.00  0.00    +0.000 OA
ATOM     15  H   UNL     1       0.999   1.243  17.750  0.00  0.00    +0.000 HD
ENDBRANCH  12  14
ENDBRANCH  10  12
ENDBRANCH   4   6
ENDBRANCH   1   3
BRANCH   1  16
ATOM     16  C   UNL     1       8.104   7.987  18.176  0.00  0.00    +0.000 C 
ATOM     17  O   UNL     1       7.370   8.528  17.349  0.00  0.00    +0.000 OA
ATOM     18  N   UNL     1       8.989   8.671  18.995  0.00  0.00    +0.000 N 
ATOM     19  H   UNL     1       9.710   8.141  19.474  0.00  0.00    +0.000 HD
BRANCH  18  20
ATOM     20  C   UNL     1       9.068  10.085  19.067  0.00  0.00    +0.000 A 
ATOM     21  C   UNL     1       9.016  10.898  17.927  0.00  0.00    +0.000 A 
ATOM     22  C   UNL     1       9.127  12.283  18.014  0.00  0.00    +0.000 A 
ATOM     23  C   UNL     1       9.281  12.886  19.254  0.00  0.00    +0.000 A 
ATOM     24  C   UNL     1       9.332  12.093  20.405  0.00  0.00    +0.000 A 
ATOM     25  C   UNL     1       9.196  10.695  20.317  0.00  0.00    +0.000 A 
BRANCH  24  26
ATOM     26  C   UNL     1       9.501  12.701  21.746  0.00  0.00    +0.000 C 
ATOM     27  O   UNL     1       9.783  13.877  21.896  0.00  0.00    +0.000 OA
BRANCH  26  28
ATOM     28  O   UNL     1       9.279  11.855  22.771  0.00  0.00    +0.000 OA
ATOM     29  H   UNL     1       9.687  12.105  23.621  0.00  0.00    +0.000 HD
ENDBRANCH  26  28
ENDBRANCH  24  26
ENDBRANCH  18  20
ENDBRANCH   1  16
TORSDOF 8
ENDMDL
MODEL 7
REMARK VINA RESULT:      -7.7      6.064      8.065
REMARK  Name = 
REMARK  8 active torsions:
REMARK  status: ('A' for Active; 'I' for Inactive)
REMARK    1  A    between atoms: C_2  and  C_3
REMARK    2  A    between atoms: C_3  and  C_4
REMARK    3  A    between atoms: N_6  and  C_7
REMARK    4  A    between atoms: C_11  and  C_12
REMARK    5  A    between atoms: C_12  and  O_14
REMARK    6  A    between atoms: N_16  and  C_17
REMARK    7  A    between atoms: C_21  and  C_22
REMARK    8  A    between atoms: C_22  and  O_24
REMARK                            x       y       z     vdW  Elec       q    Type
REMARK                         _______ _______ _______ _____ _____    ______ ____
ROOT
ATOM      1  C   UNL     1       1.044   9.552  19.701  0.00  0.00    +0.000 C 
ENDROOT
BRANCH   1   3
ATOM      2  O   UNL     1       1.959   8.764  17.655  0.00  0.00    +0.000 OA
ATOM      3  C   UNL     1       1.755   8.508  18.841  0.00  0.00    +0.000 C 
ATOM      4  N   UNL     1       2.175   7.359  19.485  0.00  0.00    +0.000 N 
ATOM      5  H   UNL     1       1.989   7.314  20.489  0.00  0.00    +0.000 HD
BRANCH   4   6
ATOM      6  C   UNL     1       2.856   6.251  18.948  0.00  0.00    +0.000 A 
ATOM      7  C   UNL     1       2.239   5.286  18.153  0.00  0.00    +0.000 A 
ATOM      8  C   UNL     1       2.975   4.221  17.633  0.00  0.00    +0.000 A 
ATOM      9  C   UNL     1       4.341   4.123  17.886  0.00  0.00    +0.000 A 
ATOM     10  C   UNL     1       4.975   5.078  18.685  0.00  0.00    +0.000 A 
ATOM     11  C   UNL     1       4.224   6.123  19.246  0.00  0.00    +0.000 A 
BRANCH  10  12
ATOM     12  C   UNL     1       6.434   4.917  18.922  0.00  0.00    +0.000 C 
ATOM     13  O   UNL     1       7.007   5.419  19.874  0.00  0.00    +0.000 OA
BRANCH  12  14
ATOM     14  O   UNL     1       7.063   4.128  18.026  0.00  0.00    +0.000 OA
ATOM     15  H   UNL     1       6.991   4.408  17.096  0.00  0.00    +0.000 HD
ENDBRANCH  12  14
ENDBRANCH  10  12
ENDBRANCH   4   6
ENDBRANCH   1   3
BRANCH   1  16
ATOM     16  C   UNL     1      -0.019  10.389  19.036  0.00  0.00    +0.000 C 
ATOM     17  O   UNL     1       0.101  11.611  18.948  0.00  0.00    +0.000 OA
ATOM     18  N   UNL     1      -1.106   9.677  18.551  0.00  0.00    +0.000 N 
ATOM     19  H   UNL     1      -1.234   8.720  18.865  0.00  0.00    +0.000 HD
BRANCH  18  20
ATOM     20  C   UNL     1      -2.151  10.254  17.787  0.00  0.00    +0.000 A 
ATOM     21  C   UNL     1      -3.069  11.160  18.335  0.00  0.00    +0.000 A 
ATOM     22  C   UNL     1      -4.109  11.693  17.578  0.00  0.00    +0.000 A 
ATOM     23  C   UNL     1      -4.244  11.336  16.244  0.00  0.00    +0.000 A 
ATOM     24  C   UNL     1      -3.336  10.436  15.676  0.00  0.00    +0.000 A 
ATOM     25  C   UNL     1      -2.272   9.916  16.437  0.00  0.00    +0.000 A 
BRANCH  24  26
ATOM     26  C   UNL     1      -3.452  10.027  14.256  0.00  0.00    +0.000 C 
ATOM     27  O   UNL     1      -2.476   9.854  13.547  0.00  0.00    +0.000 OA
BRANCH  26  28
ATOM     28  O   UNL     1      -4.717   9.830  13.837  0.00  0.00    +0.000 OA
ATOM     29  H   UNL     1      -5.266   9.258  14.406  0.00  0.00    +0.000 HD
ENDBRANCH  26  28
ENDBRANCH  24  26
ENDBRANCH  18  20
ENDBRANCH   1  16
TORSDOF 8
ENDMDL
MODEL 8
REMARK VINA RESULT:      -7.7      1.515      2.090
REMARK  Name = 
REMARK  8 active torsions:
REMARK  status: ('A' for Active; 'I' for Inactive)
REMARK    1  A    between atoms: C_2  and  C_3
REMARK    2  A    between atoms: C_3  and  C_4
REMARK    3  A    between atoms: N_6  and  C_7
REMARK    4  A    between atoms: C_11  and  C_12
REMARK    5  A    between atoms: C_12  and  O_14
REMARK    6  A    between atoms: N_16  and  C_17
REMARK    7  A    between atoms: C_21  and  C_22
REMARK    8  A    between atoms: C_22  and  O_24
REMARK                            x       y       z     vdW  Elec       q    Type
REMARK                         _______ _______ _______ _____ _____    ______ ____
ROOT
ATOM      1  C   UNL     1       6.930   5.730  18.285  0.00  0.00    +0.000 C 
ENDROOT
BRANCH   1   3
ATOM      2  O   UNL     1       7.855   6.888  16.428  0.00  0.00    +0.000 OA
ATOM      3  C   UNL     1       7.224   5.896  16.795  0.00  0.00    +0.000 C 
ATOM      4  N   UNL     1       6.804   4.876  15.964  0.00  0.00    +0.000 N 
ATOM      5  H   UNL     1       6.345   4.085  16.422  0.00  0.00    +0.000 HD
BRANCH   4   6
ATOM      6  C   UNL     1       6.949   4.762  14.569  0.00  0.00    +0.000 A 
ATOM      7  C   UNL     1       7.870   5.507  13.834  0.00  0.00    +0.000 A 
ATOM      8  C   UNL     1       7.981   5.333  12.454  0.00  0.00    +0.000 A 
ATOM      9  C   UNL     1       7.187   4.394  11.800  0.00  0.00    +0.000 A 
ATOM     10  C   UNL     1       6.256   3.642  12.520  0.00  0.00    +0.000 A 
ATOM     11  C   UNL     1       6.112   3.852  13.900  0.00  0.00    +0.000 A 
BRANCH  10  12
ATOM     12  C   UNL     1       5.434   2.659  11.765  0.00  0.00    +0.000 C 
ATOM     13  O   UNL     1       4.317   2.914  11.349  0.00  0.00    +0.000 OA
BRANCH  12  14
ATOM     14  O   UNL     1       6.047   1.479  11.533  0.00  0.00    +0.000 OA
ATOM     15  H   UNL     1       6.326   0.989  12.327  0.00  0.00    +0.000 HD
ENDBRANCH  12  14
ENDBRANCH  10  12
ENDBRANCH   4   6
ENDBRANCH   1   3
BRANCH   1  16
ATOM     16  C   UNL     1       5.573   5.198  18.669  0.00  0.00    +0.000 C 
ATOM     17  O   UNL     1       4.695   5.950  19.092  0.00  0.00    +0.000 OA
ATOM     18  N   UNL     1       5.413   3.830  18.506  0.00  0.00    +0.000 N 
ATOM     19  H   UNL     1       6.243   3.261  18.376  0.00  0.00    +0.000 HD
BRANCH  18  20
ATOM     20  C   UNL     1       4.182   3.151  18.690  0.00  0.00    +0.000 A 
ATOM     21  C   UNL     1       3.702   2.209  17.770  0.00  0.00    +0.000 A 
ATOM     22  C   UNL     1       2.476   1.573  17.950  0.00  0.00    +0.000 A 
ATOM     23  C   UNL     1       1.708   1.861  19.069  0.00  0.00    +0.000 A 
ATOM     24  C   UNL     1       2.171   2.796  20.002  0.00  0.00    +0.000 A 
ATOM     25  C   UNL     1       3.421   3.420  19.829  0.00  0.00    +0.000 A 
BRANCH  24  26
ATOM     26  C   UNL     1       1.375   3.133  21.206  0.00  0.00    +0.000 C 
ATOM     27  O   UNL     1       1.559   2.588  22.280  0.00  0.00    +0.000 OA
BRANCH  26  28
ATOM     28  O   UNL     1       0.469   4.111  21.015  0.00  0.00    +0.000 OA
ATOM     29  H   UNL     1      -0.005   4.088  20.162  0.00  0.00    +0.000 HD
ENDBRANCH  26  28
ENDBRANCH  24  26
ENDBRANCH  18  20
ENDBRANCH   1  16
TORSDOF 8
ENDMDL
MODEL 9
REMARK VINA RESULT:      -7.7      5.423      8.576
REMARK  Name = 
REMARK  8 active torsions:
REMARK  status: ('A' for Active; 'I' for Inactive)
REMARK    1  A    between atoms: C_2  and  C_3
REMARK    2  A    between atoms: C_3  and  C_4
REMARK    3  A    between atoms: N_6  and  C_7
REMARK    4  A    between atoms: C_11  and  C_12
REMARK    5  A    between atoms: C_12  and  O_14
REMARK    6  A    between atoms: N_16  and  C_17
REMARK    7  A    between atoms: C_21  and  C_22
REMARK    8  A    between atoms: C_22  and  O_24
REMARK                            x       y       z     vdW  Elec       q    Type
REMARK                         _______ _______ _______ _____ _____    ______ ____
ROOT
ATOM      1  C   UNL     1       2.828   8.375  17.698  0.00  0.00    +0.000 C 
ENDROOT
BRANCH   1   3
ATOM      2  O   UNL     1       1.543   8.523  19.691  0.00  0.00    +0.000 OA
ATOM      3  C   UNL     1       1.709   8.966  18.554  0.00  0.00    +0.000 C 
ATOM      4  N   UNL     1       0.994  10.011  18.003  0.00  0.00    +0.000 N 
ATOM      5  H   UNL     1       1.287  10.313  17.071  0.00  0.00    +0.000 HD
BRANCH   4   6
ATOM      6  C   UNL     1      -0.069  10.742  18.565  0.00  0.00    +0.000 A 
ATOM      7  C   UNL     1       0.066  11.533  19.705  0.00  0.00    +0.000 A 
ATOM      8  C   UNL     1      -1.023  12.250  20.203  0.00  0.00    +0.000 A 
ATOM      9  C   UNL     1      -2.252  12.202  19.549  0.00  0.00    +0.000 A 
ATOM     10  C   UNL     1      -2.406  11.411  18.407  0.00  0.00    +0.000 A 
ATOM     11  C   UNL     1      -1.324  10.653  17.936  0.00  0.00    +0.000 A 
BRANCH  10  12
ATOM     12  C   UNL     1      -3.743  11.398  17.756  0.00  0.00    +0.000 C 
ATOM     13  O   UNL     1      -4.058  10.576  16.912  0.00  0.00    +0.000 OA
BRANCH  12  14
ATOM     14  O   UNL     1      -4.598  12.337  18.214  0.00  0.00    +0.000 OA
ATOM     15  H   UNL     1      -4.328  13.259  18.061  0.00  0.00    +0.000 HD
ENDBRANCH  12  14
ENDBRANCH  10  12
ENDBRANCH   4   6
ENDBRANCH   1   3
BRANCH   1  16
ATOM     16  C   UNL     1       3.165   6.920  17.907  0.00  0.00    +0.000 C 
ATOM     17  O   UNL     1       4.336   6.541  17.935  0.00  0.00    +0.000 OA
ATOM     18  N   UNL     1       2.072   6.082  18.056  0.00  0.00    +0.000 N 
ATOM     19  H   UNL     1       1.156   6.432  17.792  0.00  0.00    +0.000 HD
BRANCH  18  20
ATOM     20  C   UNL     1       2.169   4.706  18.384  0.00  0.00    +0.000 A 
ATOM     21  C   UNL     1       2.295   3.710  17.407  0.00  0.00    +0.000 A 
ATOM     22  C   UNL     1       2.358   2.360  17.745  0.00  0.00    +0.000 A 
ATOM     23  C   UNL     1       2.309   1.980  19.078  0.00  0.00    +0.000 A 
ATOM     24  C   UNL     1       2.188   2.960  20.070  0.00  0.00    +0.000 A 
ATOM     25  C   UNL     1       2.147   4.324  19.727  0.00  0.00    +0.000 A 
BRANCH  24  26
ATOM     26  C   UNL     1       2.127   2.591  21.505  0.00  0.00    +0.000 C 
ATOM     27  O   UNL     1       1.094   2.655  22.149  0.00  0.00    +0.000 OA
BRANCH  26  28
ATOM     28  O   UNL     1       3.293   2.150  22.014  0.00  0.00    +0.000 OA
ATOM     29  H   UNL     1       4.094   2.403  21.517  0.00  0.00    +0.000 HD
ENDBRANCH  26  28
ENDBRANCH  24  26
ENDBRANCH  18  20
ENDBRANCH   1  16
TORSDOF 8
ENDMDL
