MODEL 1
REMARK VINA RESULT:      -7.0      0.000      0.000
REMARK  Name = 
REMARK  3 active torsions:
REMARK  status: ('A' for Active; 'I' for Inactive)
REMARK    1  A    between atoms: C_1  and  C_2
REMARK    2  A    between atoms: C_2  and  N_3
REMARK    3  A    between atoms: N_9  and  C_10
REMARK                            x       y       z     vdW  Elec       q    Type
REMARK                         _______ _______ _______ _____ _____    ______ ____
ROOT
ATOM      1  N   UNL     1       5.785   5.452  16.692  0.00  0.00    +0.000 N 
ATOM      2  C   UNL     1       6.969   6.076  17.028  0.00  0.00    +0.000 C 
ATOM      3  O   UNL     1       7.746   6.601  16.236  0.00  0.00    +0.000 OA
ATOM      4  C   UNL     1       7.171   6.125  18.519  0.00  0.00    +0.000 C 
ATOM      5  S   UNL     1       5.964   4.972  19.191  0.00  0.00    +0.000 S 
ATOM      6  C   UNL     1       5.003   5.017  17.731  0.00  0.00    +0.000 C 
ATOM      7  N   UNL     1       3.760   4.710  17.578  0.00  0.00    +0.000 NA
ENDROOT
BRANCH   7   8
ATOM      8  C   UNL     1       2.917   4.303  18.639  0.00  0.00    +0.000 A 
ATOM      9  C   UNL     1       2.194   5.234  19.406  0.00  0.00    +0.000 A 
ATOM     10  C   UNL     1       1.384   4.835  20.471  0.00  0.00    +0.000 A 
ATOM     11  C   UNL     1       1.206   3.484  20.739  0.00  0.00    +0.000 A 
ATOM     12  C   UNL     1       1.839   2.534  19.938  0.00  0.00    +0.000 A 
ATOM     13  C   UNL     1       2.691   2.940  18.902  0.00  0.00    +0.000 A 
ATOM     14 CL   UNL     1       3.430   1.704  17.939  0.00  0.00    +0.000 Cl
ENDBRANCH   7   8
BRANCH   1  16
ATOM     15  C   UNL     1       5.886   4.081  14.635  0.00  0.00    +0.000 C 
ATOM     16  C   UNL     1       5.379   5.348  15.299  0.00  0.00    +0.000 C 
ENDBRANCH   1  16
TORSDOF 2
ENDMDL
MODEL 2
REMARK VINA RESULT:      -6.9      1.550      2.345
REMARK  Name = 
REMARK  3 active torsions:
REMARK  status: ('A' for Active; 'I' for Inactive)
REMARK    1  A    between atoms: C_1  and  C_2
REMARK    2  A    between atoms: C_2  and  N_3
REMARK    3  A    between atoms: N_9  and  C_10
REMARK                            x       y       z     vdW  Elec       q    Type
REMARK                         _______ _______ _______ _____ _____    ______ ____
ROOT
ATOM      1  N   UNL     1       6.484   4.971  17.591  0.00  0.00    +0.000 N 
ATOM      2  C   UNL     1       6.794   4.510  16.328  0.00  0.00    +0.000 C 
ATOM      3  O   UNL     1       7.883   4.626  15.775  0.00  0.00    +0.000 OA
ATOM      4  C   UNL     1       5.648   3.750  15.715  0.00  0.00    +0.000 C 
ATOM      5  S   UNL     1       4.225   4.137  16.746  0.00  0.00    +0.000 S 
ATOM      6  C   UNL     1       5.240   4.654  18.073  0.00  0.00    +0.000 C 
ATOM      7  N   UNL     1       4.942   4.744  19.325  0.00  0.00    +0.000 NA
ENDROOT
BRANCH   7   8
ATOM      8  C   UNL     1       3.683   4.379  19.859  0.00  0.00    +0.000 A 
ATOM      9  C   UNL     1       2.621   5.297  19.936  0.00  0.00    +0.000 A 
ATOM     10  C   UNL     1       1.387   4.946  20.488  0.00  0.00    +0.000 A 
ATOM     11  C   UNL     1       1.156   3.638  20.895  0.00  0.00    +0.000 A 
ATOM     12  C   UNL     1       2.162   2.683  20.747  0.00  0.00    +0.000 A 
ATOM     13  C   UNL     1       3.415   3.052  20.240  0.00  0.00    +0.000 A 
ATOM     14 CL   UNL     1       4.611   1.809  20.069  0.00  0.00    +0.000 Cl
ENDBRANCH   7   8
BRANCH   1  16
ATOM     15  C   UNL     1       7.617   7.140  17.957  0.00  0.00    +0.000 C 
ATOM     16  C   UNL     1       7.478   5.688  18.376  0.00  0.00    +0.000 C 
ENDBRANCH   1  16
TORSDOF 2
ENDMDL
MODEL 3
REMARK VINA RESULT:      -6.8      1.959      2.864
REMARK  Name = 
REMARK  3 active torsions:
REMARK  status: ('A' for Active; 'I' for Inactive)
REMARK    1  A    between atoms: C_1  and  C_2
REMARK    2  A    between atoms: C_2  and  N_3
REMARK    3  A    between atoms: N_9  and  C_10
REMARK                            x       y       z     vdW  Elec       q    Type
REMARK                         _______ _______ _______ _____ _____    ______ ____
ROOT
ATOM      1  N   UNL     1       6.441   4.990  17.550  0.00  0.00    +0.000 N 
ATOM      2  C   UNL     1       6.791   4.524  16.300  0.00  0.00    +0.000 C 
ATOM      3  O   UNL     1       7.879   4.692  15.757  0.00  0.00    +0.000 OA
ATOM      4  C   UNL     1       5.698   3.689  15.689  0.00  0.00    +0.000 C 
ATOM      5  S   UNL     1       4.243   4.014  16.698  0.00  0.00    +0.000 S 
ATOM      6  C   UNL     1       5.211   4.611  18.026  0.00  0.00    +0.000 C 
ATOM      7  N   UNL     1       4.893   4.708  19.272  0.00  0.00    +0.000 NA
ENDROOT
BRANCH   7   8
ATOM      8  C   UNL     1       3.651   4.282  19.799  0.00  0.00    +0.000 A 
ATOM      9  C   UNL     1       3.465   2.977  20.288  0.00  0.00    +0.000 A 
ATOM     10  C   UNL     1       2.231   2.548  20.781  0.00  0.00    +0.000 A 
ATOM     11  C   UNL     1       1.174   3.444  20.882  0.00  0.00    +0.000 A 
ATOM     12  C   UNL     1       1.355   4.769  20.488  0.00  0.00    +0.000 A 
ATOM     13  C   UNL     1       2.580   5.182  19.946  0.00  0.00    +0.000 A 
ATOM     14 CL   UNL     1       2.738   6.848  19.494  0.00  0.00    +0.000 Cl
ENDBRANCH   7   8
BRANCH   1  16
ATOM     15  C   UNL     1       7.537   7.193  17.811  0.00  0.00    +0.000 C 
ATOM     16  C   UNL     1       7.383   5.776  18.333  0.00  0.00    +0.000 C 
ENDBRANCH   1  16
TORSDOF 2
ENDMDL
MODEL 4
REMARK VINA RESULT:      -6.8      1.366      1.814
REMARK  Name = 
REMARK  3 active torsions:
REMARK  status: ('A' for Active; 'I' for Inactive)
REMARK    1  A    between atoms: C_1  and  C_2
REMARK    2  A    between atoms: C_2  and  N_3
REMARK    3  A    between atoms: N_9  and  C_10
REMARK                            x       y       z     vdW  Elec       q    Type
REMARK                         _______ _______ _______ _____ _____    ______ ____
ROOT
ATOM      1  N   UNL     1       5.707   5.488  16.626  0.00  0.00    +0.000 N 
ATOM      2  C   UNL     1       6.889   6.038  17.075  0.00  0.00    +0.000 C 
ATOM      3  O   UNL     1       7.704   6.637  16.381  0.00  0.00    +0.000 OA
ATOM      4  C   UNL     1       7.037   5.902  18.567  0.00  0.00    +0.000 C 
ATOM      5  S   UNL     1       5.785   4.704  19.053  0.00  0.00    +0.000 S 
ATOM      6  C   UNL     1       4.879   4.947  17.576  0.00  0.00    +0.000 C 
ATOM      7  N   UNL     1       3.636   4.691  17.345  0.00  0.00    +0.000 NA
ENDROOT
BRANCH   7   8
ATOM      8  C   UNL     1       2.748   4.177  18.319  0.00  0.00    +0.000 A 
ATOM      9  C   UNL     1       2.488   2.800  18.428  0.00  0.00    +0.000 A 
ATOM     10  C   UNL     1       1.589   2.295  19.370  0.00  0.00    +0.000 A 
ATOM     11  C   UNL     1       0.996   3.151  20.290  0.00  0.00    +0.000 A 
ATOM     12  C   UNL     1       1.304   4.510  20.265  0.00  0.00    +0.000 A 
ATOM     13  C   UNL     1       2.167   5.019  19.284  0.00  0.00    +0.000 A 
ATOM     14 CL   UNL     1       2.516   6.716  19.324  0.00  0.00    +0.000 Cl
ENDBRANCH   7   8
BRANCH   1  16
ATOM     15  C   UNL     1       5.807   4.346  14.433  0.00  0.00    +0.000 C 
ATOM     16  C   UNL     1       5.350   5.562  15.217  0.00  0.00    +0.000 C 
ENDBRANCH   1  16
TORSDOF 2
ENDMDL
MODEL 5
REMARK VINA RESULT:      -6.8      1.354      2.155
REMARK  Name = 
REMARK  3 active torsions:
REMARK  status: ('A' for Active; 'I' for Inactive)
REMARK    1  A    between atoms: C_1  and  C_2
REMARK    2  A    between atoms: C_2  and  N_3
REMARK    3  A    between atoms: N_9  and  C_10
REMARK                            x       y       z     vdW  Elec       q    Type
REMARK                         _______ _______ _______ _____ _____    ______ ____
ROOT
ATOM      1  N   UNL     1       6.357   5.302  17.711  0.00  0.00    +0.000 N 
ATOM      2  C   UNL     1       6.479   5.990  16.522  0.00  0.00    +0.000 C 
ATOM      3  O   UNL     1       7.532   6.209  15.931  0.00  0.00    +0.000 OA
ATOM      4  C   UNL     1       5.137   6.379  15.962  0.00  0.00    +0.000 C 
ATOM      5  S   UNL     1       3.977   6.131  17.316  0.00  0.00    +0.000 S 
ATOM      6  C   UNL     1       5.083   5.073  18.161  0.00  0.00    +0.000 C 
ATOM      7  N   UNL     1       4.818   4.193  19.067  0.00  0.00    +0.000 NA
ENDROOT
BRANCH   7   8
ATOM      8  C   UNL     1       3.509   3.901  19.518  0.00  0.00    +0.000 A 
ATOM      9  C   UNL     1       2.794   4.794  20.336  0.00  0.00    +0.000 A 
ATOM     10  C   UNL     1       1.513   4.494  20.805  0.00  0.00    +0.000 A 
ATOM     11  C   UNL     1       0.878   3.331  20.389  0.00  0.00    +0.000 A 
ATOM     12  C   UNL     1       1.526   2.470  19.505  0.00  0.00    +0.000 A 
ATOM     13  C   UNL     1       2.832   2.749  19.079  0.00  0.00    +0.000 A 
ATOM     14 CL   UNL     1       3.569   1.643  17.967  0.00  0.00    +0.000 Cl
ENDBRANCH   7   8
BRANCH   1  16
ATOM     15  C   UNL     1       8.078   5.756  19.431  0.00  0.00    +0.000 C 
ATOM     16  C   UNL     1       7.539   4.792  18.389  0.00  0.00    +0.000 C 
ENDBRANCH   1  16
TORSDOF 2
ENDMDL
MODEL 6
REMARK VINA RESULT:      -6.7      1.328      1.674
REMARK  Name = 
REMARK  3 active torsions:
REMARK  status: ('A' for Active; 'I' for Inactive)
REMARK    1  A    between atoms: C_1  and  C_2
REMARK    2  A    between atoms: C_2  and  N_3
REMARK    3  A    between atoms: N_9  and  C_10
REMARK                            x       y       z     vdW  Elec       q    Type
REMARK                         _______ _______ _______ _____ _____    ______ ____
ROOT
ATOM      1  N   UNL     1       6.030   4.465  16.759  0.00  0.00    +0.000 N 
ATOM      2  C   UNL     1       6.869   5.559  16.773  0.00  0.00    +0.000 C 
ATOM      3  O   UNL     1       7.591   5.914  15.846  0.00  0.00    +0.000 OA
ATOM      4  C   UNL     1       6.738   6.347  18.049  0.00  0.00    +0.000 C 
ATOM      5  S   UNL     1       5.835   5.270  19.172  0.00  0.00    +0.000 S 
ATOM      6  C   UNL     1       5.226   4.293  17.857  0.00  0.00    +0.000 C 
ATOM      7  N   UNL     1       4.195   3.516  17.843  0.00  0.00    +0.000 NA
ENDROOT
BRANCH   7   8
ATOM      8  C   UNL     1       3.321   3.355  18.944  0.00  0.00    +0.000 A 
ATOM      9  C   UNL     1       3.734   2.715  20.126  0.00  0.00    +0.000 A 
ATOM     10  C   UNL     1       2.864   2.530  21.202  0.00  0.00    +0.000 A 
ATOM     11  C   UNL     1       1.582   3.063  21.157  0.00  0.00    +0.000 A 
ATOM     12  C   UNL     1       1.174   3.781  20.034  0.00  0.00    +0.000 A 
ATOM     13  C   UNL     1       2.033   3.920  18.935  0.00  0.00    +0.000 A 
ATOM     14 CL   UNL     1       1.464   4.839  17.581  0.00  0.00    +0.000 Cl
ENDBRANCH   7   8
BRANCH   1  16
ATOM     15  C   UNL     1       5.403   4.307  14.370  0.00  0.00    +0.000 C 
ATOM     16  C   UNL     1       5.967   3.600  15.590  0.00  0.00    +0.000 C 
ENDBRANCH   1  16
TORSDOF 2
ENDMDL
MODEL 7
REMARK VINA RESULT:      -6.6      1.050      1.113
REMARK  Name = 
REMARK  3 active torsions:
REMARK  status: ('A' for Active; 'I' for Inactive)
REMARK    1  A    between atoms: C_1  and  C_2
REMARK    2  A    between atoms: C_2  and  N_3
REMARK    3  A    between atoms: N_9  and  C_10
REMARK                            x       y       z     vdW  Elec       q    Type
REMARK                         _______ _______ _______ _____ _____    ______ ____
ROOT
ATOM      1  N   UNL     1       6.016   4.518  16.766  0.00  0.00    +0.000 N 
ATOM      2  C   UNL     1       6.932   5.550  16.759  0.00  0.00    +0.000 C 
ATOM      3  O   UNL     1       7.686   5.826  15.831  0.00  0.00    +0.000 OA
ATOM      4  C   UNL     1       6.845   6.381  18.011  0.00  0.00    +0.000 C 
ATOM      5  S   UNL     1       5.857   5.403  19.154  0.00  0.00    +0.000 S 
ATOM      6  C   UNL     1       5.192   4.435  17.859  0.00  0.00    +0.000 C 
ATOM      7  N   UNL     1       4.109   3.734  17.854  0.00  0.00    +0.000 NA
ENDROOT
BRANCH   7   8
ATOM      8  C   UNL     1       3.215   3.667  18.950  0.00  0.00    +0.000 A 
ATOM      9  C   UNL     1       2.028   4.419  18.980  0.00  0.00    +0.000 A 
ATOM     10  C   UNL     1       1.159   4.375  20.073  0.00  0.00    +0.000 A 
ATOM     11  C   UNL     1       1.413   3.505  21.126  0.00  0.00    +0.000 A 
ATOM     12  C   UNL     1       2.536   2.679  21.081  0.00  0.00    +0.000 A 
ATOM     13  C   UNL     1       3.432   2.765  20.007  0.00  0.00    +0.000 A 
ATOM     14 CL   UNL     1       4.797   1.697  20.011  0.00  0.00    +0.000 Cl
ENDBRANCH   7   8
BRANCH   1  16
ATOM     15  C   UNL     1       5.364   4.328  14.387  0.00  0.00    +0.000 C 
ATOM     16  C   UNL     1       5.904   3.627  15.621  0.00  0.00    +0.000 C 
ENDBRANCH   1  16
TORSDOF 2
ENDMDL
MODEL 8
REMARK VINA RESULT:      -6.4      3.021      5.488
REMARK  Name = 
REMARK  3 active torsions:
REMARK  status: ('A' for Active; 'I' for Inactive)
REMARK    1  A    between atoms: C_1  and  C_2
REMARK    2  A    between atoms: C_2  and  N_3
REMARK    3  A    between atoms: N_9  and  C_10
REMARK                            x       y       z     vdW  Elec       q    Type
REMARK                         _______ _______ _______ _____ _____    ______ ____
ROOT
ATOM      1  N   UNL     1       2.630   3.705  18.632  0.00  0.00    +0.000 N 
ATOM      2  C   UNL     1       1.598   3.870  19.532  0.00  0.00    +0.000 C 
ATOM      3  O   UNL     1       0.661   3.093  19.690  0.00  0.00    +0.000 OA
ATOM      4  C   UNL     1       1.793   5.093  20.387  0.00  0.00    +0.000 C 
ATOM      5  S   UNL     1       3.091   6.033  19.568  0.00  0.00    +0.000 S 
ATOM      6  C   UNL     1       3.639   4.632  18.677  0.00  0.00    +0.000 C 
ATOM      7  N   UNL     1       4.789   4.429  18.127  0.00  0.00    +0.000 NA
ENDROOT
BRANCH   7   8
ATOM      8  C   UNL     1       5.863   5.347  18.197  0.00  0.00    +0.000 A 
ATOM      9  C   UNL     1       6.856   5.248  19.188  0.00  0.00    +0.000 A 
ATOM     10  C   UNL     1       7.901   6.170  19.275  0.00  0.00    +0.000 A 
ATOM     11  C   UNL     1       8.030   7.164  18.313  0.00  0.00    +0.000 A 
ATOM     12  C   UNL     1       7.112   7.233  17.266  0.00  0.00    +0.000 A 
ATOM     13  C   UNL     1       6.035   6.337  17.212  0.00  0.00    +0.000 A 
ATOM     14 CL   UNL     1       4.944   6.471  15.873  0.00  0.00    +0.000 Cl
ENDBRANCH   7   8
BRANCH   1  16
ATOM     15  C   UNL     1       3.449   1.390  18.323  0.00  0.00    +0.000 C 
ATOM     16  C   UNL     1       2.657   2.550  17.747  0.00  0.00    +0.000 C 
ENDBRANCH   1  16
TORSDOF 2
ENDMDL
MODEL 9
REMARK VINA RESULT:      -6.4      3.250      5.829
REMARK  Name = 
REMARK  3 active torsions:
REMARK  status: ('A' for Active; 'I' for Inactive)
REMARK    1  A    between atoms: C_1  and  C_2
REMARK    2  A    between atoms: C_2  and  N_3
REMARK    3  A    between atoms: N_9  and  C_10
REMARK                            x       y       z     vdW  Elec       q    Type
REMARK                         _______ _______ _______ _____ _____    ______ ____
ROOT
ATOM      1  N   UNL     1       2.264   3.646  19.452  0.00  0.00    +0.000 N 
ATOM      2  C   UNL     1       1.572   2.747  18.667  0.00  0.00    +0.000 C 
ATOM      3  O   UNL     1       0.457   2.298  18.913  0.00  0.00    +0.000 OA
ATOM      4  C   UNL     1       2.312   2.432  17.395  0.00  0.00    +0.000 C 
ATOM      5  S   UNL     1       3.979   3.059  17.656  0.00  0.00    +0.000 S 
ATOM      6  C   UNL     1       3.456   4.108  18.954  0.00  0.00    +0.000 C 
ATOM      7  N   UNL     1       4.037   5.161  19.420  0.00  0.00    +0.000 NA
ENDROOT
BRANCH   7   8
ATOM      8  C   UNL     1       5.242   5.687  18.896  0.00  0.00    +0.000 A 
ATOM      9  C   UNL     1       6.498   5.253  19.357  0.00  0.00    +0.000 A 
ATOM     10  C   UNL     1       7.687   5.792  18.861  0.00  0.00    +0.000 A 
ATOM     11  C   UNL     1       7.650   6.716  17.824  0.00  0.00    +0.000 A 
ATOM     12  C   UNL     1       6.422   7.098  17.285  0.00  0.00    +0.000 A 
ATOM     13  C   UNL     1       5.229   6.593  17.821  0.00  0.00    +0.000 A 
ATOM     14 CL   UNL     1       3.742   7.100  17.090  0.00  0.00    +0.000 Cl
ENDBRANCH   7   8
BRANCH   1  16
ATOM     15  C   UNL     1       2.008   3.206  21.874  0.00  0.00    +0.000 C 
ATOM     16  C   UNL     1       1.693   4.121  20.703  0.00  0.00    +0.000 C 
ENDBRANCH   1  16
TORSDOF 2
ENDMDL
