MODEL 1
REMARK VINA RESULT:      -9.5      0.000      0.000
REMARK  Name = 
REMARK  10 active torsions:
REMARK  status: ('A' for Active; 'I' for Inactive)
REMARK    1  A    between atoms: C_1  and  C_2
REMARK    2  A    between atoms: C_2  and  C_3
REMARK    3  A    between atoms: N_6  and  C_7
REMARK    4  A    between atoms: C_8  and  C_9
REMARK    5  A    between atoms: C_13  and  C_14
REMARK    6  A    between atoms: C_16  and  C_17
REMARK    7  A    between atoms: C_16  and  C_18
REMARK    8  A    between atoms: N_20  and  C_21
REMARK    9  A    between atoms: C_23  and  C_24
REMARK   10  A    between atoms: C_29  and  C_30
REMARK                            x       y       z     vdW  Elec       q    Type
REMARK                         _______ _______ _______ _____ _____    ______ ____
ROOT
ATOM      1  C   UNL     1       1.542   9.346  18.663  0.00  0.00    +0.000 C 
ATOM      2  O   UNL     1       1.930   9.333  17.496  0.00  0.00    +0.000 OA
ATOM      3  N   UNL     1       1.686   8.293  19.546  0.00  0.00    +0.000 N 
ATOM      4  H   UNL     1       1.384   8.433  20.498  0.00  0.00    +0.000 HD
ENDROOT
BRANCH   1  10
ATOM      5  C   UNL     1       1.045  11.938  18.532  0.00  0.00    +0.000 C 
ATOM      6  C   UNL     1      -0.337  12.599  18.468  0.00  0.00    +0.000 C 
ATOM      7  O   UNL     1      -0.543  13.783  18.238  0.00  0.00    +0.000 OA
ATOM      8  N   UNL     1      -1.300  11.630  18.716  0.00  0.00    +0.000 N 
ATOM      9  C   UNL     1      -0.724  10.317  18.701  0.00  0.00    +0.000 C 
ATOM     10  C   UNL     1       0.726  10.546  19.173  0.00  0.00    +0.000 C 
ATOM     11  C   UNL     1       0.774  10.548  20.711  0.00  0.00    +0.000 C 
BRANCH   8  12
ATOM     12  C   UNL     1      -2.693  11.848  18.654  0.00  0.00    +0.000 A 
ATOM     13  C   UNL     1      -3.421  12.309  19.773  0.00  0.00    +0.000 A 
ATOM     14  C   UNL     1      -2.803  12.737  21.076  0.00  0.00    +0.000 C 
ATOM     15  C   UNL     1      -4.821  12.412  19.684  0.00  0.00    +0.000 A 
ATOM     16  C   UNL     1      -5.492  12.092  18.509  0.00  0.00    +0.000 A 
ATOM     17  C   UNL     1      -4.775  11.658  17.404  0.00  0.00    +0.000 A 
ATOM     18  C   UNL     1      -3.379  11.518  17.460  0.00  0.00    +0.000 A 
ATOM     19  C   UNL     1      -2.689  10.937  16.255  0.00  0.00    +0.000 C 
ENDBRANCH   8  12
BRANCH   5  21
ATOM     20  C   UNL     1       3.020  13.618  18.434  0.00  0.00    +0.000 C 
ATOM     21  C   UNL     1       2.053  12.817  19.304  0.00  0.00    +0.000 C 
ENDBRANCH   5  21
ENDBRANCH   1  10
BRANCH   3  22
ATOM     22  C   UNL     1       2.287   7.035  19.284  0.00  0.00    +0.000 A 
ATOM     23  C   UNL     1       3.172   6.801  18.225  0.00  0.00    +0.000 A 
ATOM     24  C   UNL     1       3.764   5.546  18.030  0.00  0.00    +0.000 A 
ATOM     25  C   UNL     1       3.438   4.490  18.897  0.00  0.00    +0.000 A 
ATOM     26  C   UNL     1       2.533   4.690  19.949  0.00  0.00    +0.000 A 
ATOM     27  C   UNL     1       1.972   5.967  20.137  0.00  0.00    +0.000 A 
BRANCH  24  28
ATOM     28  C   UNL     1       4.762   5.336  16.914  0.00  0.00    +0.000 C 
ATOM     29  F   UNL     1       4.766   6.328  15.984  0.00  0.00    +0.000 F 
ATOM     30  F   UNL     1       6.039   5.254  17.379  0.00  0.00    +0.000 F 
ATOM     31  F   UNL     1       4.539   4.180  16.229  0.00  0.00    +0.000 F 
ENDBRANCH  24  28
BRANCH  26  32
ATOM     32  C   UNL     1       2.166   3.555  20.881  0.00  0.00    +0.000 C 
ATOM     33  F   UNL     1       2.807   2.389  20.597  0.00  0.00    +0.000 F 
ATOM     34  F   UNL     1       2.456   3.839  22.181  0.00  0.00    +0.000 F 
ATOM     35  F   UNL     1       0.835   3.270  20.848  0.00  0.00    +0.000 F 
ENDBRANCH  26  32
ENDBRANCH   3  22
TORSDOF 6
ENDMDL
MODEL 2
REMARK VINA RESULT:      -9.5      0.110      1.503
REMARK  Name = 
REMARK  10 active torsions:
REMARK  status: ('A' for Active; 'I' for Inactive)
REMARK    1  A    between atoms: C_1  and  C_2
REMARK    2  A    between atoms: C_2  and  C_3
REMARK    3  A    between atoms: N_6  and  C_7
REMARK    4  A    between atoms: C_8  and  C_9
REMARK    5  A    between atoms: C_13  and  C_14
REMARK    6  A    between atoms: C_16  and  C_17
REMARK    7  A    between atoms: C_16  and  C_18
REMARK    8  A    between atoms: N_20  and  C_21
REMARK    9  A    between atoms: C_23  and  C_24
REMARK   10  A    between atoms: C_29  and  C_30
REMARK                            x       y       z     vdW  Elec       q    Type
REMARK                         _______ _______ _______ _____ _____    ______ ____
ROOT
ATOM      1  C   UNL     1       1.568   9.302  18.665  0.00  0.00    +0.000 C 
ATOM      2  O   UNL     1       1.993   9.295  17.511  0.00  0.00    +0.000 OA
ATOM      3  N   UNL     1       1.680   8.243  19.545  0.00  0.00    +0.000 N 
ATOM      4  H   UNL     1       1.347   8.378  20.487  0.00  0.00    +0.000 HD
ENDROOT
BRANCH   1  10
ATOM      5  C   UNL     1       1.031  11.883  18.481  0.00  0.00    +0.000 C 
ATOM      6  C   UNL     1      -0.362  12.522  18.415  0.00  0.00    +0.000 C 
ATOM      7  O   UNL     1      -0.587  13.698  18.161  0.00  0.00    +0.000 OA
ATOM      8  N   UNL     1      -1.307  11.546  18.694  0.00  0.00    +0.000 N 
ATOM      9  C   UNL     1      -0.712  10.240  18.702  0.00  0.00    +0.000 C 
ATOM     10  C   UNL     1       0.738  10.501  19.156  0.00  0.00    +0.000 C 
ATOM     11  C   UNL     1       0.800  10.538  20.693  0.00  0.00    +0.000 C 
BRANCH   8  12
ATOM     12  C   UNL     1      -2.704  11.741  18.640  0.00  0.00    +0.000 A 
ATOM     13  C   UNL     1      -3.440  11.499  17.459  0.00  0.00    +0.000 A 
ATOM     14  C   UNL     1      -2.869  10.897  16.204  0.00  0.00    +0.000 C 
ATOM     15  C   UNL     1      -4.813  11.806  17.433  0.00  0.00    +0.000 A 
ATOM     16  C   UNL     1      -5.457  12.318  18.554  0.00  0.00    +0.000 A 
ATOM     17  C   UNL     1      -4.737  12.538  19.720  0.00  0.00    +0.000 A 
ATOM     18  C   UNL     1      -3.361  12.267  19.779  0.00  0.00    +0.000 A 
ATOM     19  C   UNL     1      -2.633  12.636  21.044  0.00  0.00    +0.000 C 
ENDBRANCH   8  12
BRANCH   5  21
ATOM     20  C   UNL     1       2.871  13.706  18.330  0.00  0.00    +0.000 C 
ATOM     21  C   UNL     1       2.033  12.794  19.223  0.00  0.00    +0.000 C 
ENDBRANCH   5  21
ENDBRANCH   1  10
BRANCH   3  22
ATOM     22  C   UNL     1       2.285   6.985  19.294  0.00  0.00    +0.000 A 
ATOM     23  C   UNL     1       3.193   6.752  18.254  0.00  0.00    +0.000 A 
ATOM     24  C   UNL     1       3.789   5.497  18.071  0.00  0.00    +0.000 A 
ATOM     25  C   UNL     1       3.443   4.440  18.930  0.00  0.00    +0.000 A 
ATOM     26  C   UNL     1       2.517   4.640  19.963  0.00  0.00    +0.000 A 
ATOM     27  C   UNL     1       1.951   5.916  20.140  0.00  0.00    +0.000 A 
BRANCH  24  28
ATOM     28  C   UNL     1       4.810   5.288  16.977  0.00  0.00    +0.000 C 
ATOM     29  F   UNL     1       4.878   6.310  16.083  0.00  0.00    +0.000 F 
ATOM     30  F   UNL     1       6.069   5.140  17.473  0.00  0.00    +0.000 F 
ATOM     31  F   UNL     1       4.564   4.166  16.244  0.00  0.00    +0.000 F 
ENDBRANCH  24  28
BRANCH  26  32
ATOM     32  C   UNL     1       2.129   3.503  20.885  0.00  0.00    +0.000 C 
ATOM     33  F   UNL     1       2.719   2.320  20.568  0.00  0.00    +0.000 F 
ATOM     34  F   UNL     1       2.459   3.755  22.182  0.00  0.00    +0.000 F 
ATOM     35  F   UNL     1       0.788   3.268  20.879  0.00  0.00    +0.000 F 
ENDBRANCH  26  32
ENDBRANCH   3  22
TORSDOF 6
ENDMDL
MODEL 3
REMARK VINA RESULT:      -9.4      1.138      3.536
REMARK  Name = 
REMARK  10 active torsions:
REMARK  status: ('A' for Active; 'I' for Inactive)
REMARK    1  A    between atoms: C_1  and  C_2
REMARK    2  A    between atoms: C_2  and  C_3
REMARK    3  A    between atoms: N_6  and  C_7
REMARK    4  A    between atoms: C_8  and  C_9
REMARK    5  A    between atoms: C_13  and  C_14
REMARK    6  A    between atoms: C_16  and  C_17
REMARK    7  A    between atoms: C_16  and  C_18
REMARK    8  A    between atoms: N_20  and  C_21
REMARK    9  A    between atoms: C_23  and  C_24
REMARK   10  A    between atoms: C_29  and  C_30
REMARK                            x       y       z     vdW  Elec       q    Type
REMARK                         _______ _______ _______ _____ _____    ______ ____
ROOT
ATOM      1  C   UNL     1       1.085   9.214  20.178  0.00  0.00    +0.000 C 
ATOM      2  O   UNL     1       1.428   8.806  21.287  0.00  0.00    +0.000 OA
ATOM      3  N   UNL     1       1.474   8.643  18.981  0.00  0.00    +0.000 N 
ATOM      4  H   UNL     1       1.086   9.023  18.132  0.00  0.00    +0.000 HD
ENDROOT
BRANCH   1  10
ATOM      5  C   UNL     1       0.797  11.587  19.052  0.00  0.00    +0.000 C 
ATOM      6  C   UNL     1      -0.505  12.184  18.503  0.00  0.00    +0.000 C 
ATOM      7  O   UNL     1      -0.587  13.206  17.836  0.00  0.00    +0.000 OA
ATOM      8  N   UNL     1      -1.560  11.371  18.894  0.00  0.00    +0.000 N 
ATOM      9  C   UNL     1      -1.081  10.138  19.450  0.00  0.00    +0.000 C 
ATOM     10  C   UNL     1       0.277  10.519  20.071  0.00  0.00    +0.000 C 
ATOM     11  C   UNL     1       0.059  11.073  21.490  0.00  0.00    +0.000 C 
BRANCH   8  12
ATOM     12  C   UNL     1      -2.903  11.554  18.502  0.00  0.00    +0.000 A 
ATOM     13  C   UNL     1      -3.361  11.167  17.223  0.00  0.00    +0.000 A 
ATOM     14  C   UNL     1      -2.536  10.416  16.212  0.00  0.00    +0.000 C 
ATOM     15  C   UNL     1      -4.684  11.464  16.850  0.00  0.00    +0.000 A 
ATOM     16  C   UNL     1      -5.550  12.108  17.726  0.00  0.00    +0.000 A 
ATOM     17  C   UNL     1      -5.107  12.471  18.989  0.00  0.00    +0.000 A 
ATOM     18  C   UNL     1      -3.786  12.214  19.391  0.00  0.00    +0.000 A 
ATOM     19  C   UNL     1      -3.353  12.738  20.734  0.00  0.00    +0.000 C 
ENDBRANCH   8  12
BRANCH   5  21
ATOM     20  C   UNL     1       2.732  13.270  18.660  0.00  0.00    +0.000 C 
ATOM     21  C   UNL     1       1.714  12.682  19.636  0.00  0.00    +0.000 C 
ENDBRANCH   5  21
ENDBRANCH   1  10
BRANCH   3  22
ATOM     22  C   UNL     1       2.315   7.515  18.807  0.00  0.00    +0.000 A 
ATOM     23  C   UNL     1       2.212   6.342  19.564  0.00  0.00    +0.000 A 
ATOM     24  C   UNL     1       3.048   5.243  19.329  0.00  0.00    +0.000 A 
ATOM     25  C   UNL     1       4.034   5.330  18.333  0.00  0.00    +0.000 A 
ATOM     26  C   UNL     1       4.178   6.503  17.578  0.00  0.00    +0.000 A 
ATOM     27  C   UNL     1       3.309   7.584  17.819  0.00  0.00    +0.000 A 
BRANCH  24  28
ATOM     28  C   UNL     1       2.876   3.967  20.121  0.00  0.00    +0.000 C 
ATOM     29  F   UNL     1       2.533   4.167  21.422  0.00  0.00    +0.000 F 
ATOM     30  F   UNL     1       1.906   3.167  19.598  0.00  0.00    +0.000 F 
ATOM     31  F   UNL     1       4.010   3.213  20.144  0.00  0.00    +0.000 F 
ENDBRANCH  24  28
BRANCH  26  32
ATOM     32  C   UNL     1       5.246   6.612  16.511  0.00  0.00    +0.000 C 
ATOM     33  F   UNL     1       4.790   7.116  15.333  0.00  0.00    +0.000 F 
ATOM     34  F   UNL     1       6.277   7.416  16.892  0.00  0.00    +0.000 F 
ATOM     35  F   UNL     1       5.804   5.406  16.214  0.00  0.00    +0.000 F 
ENDBRANCH  26  32
ENDBRANCH   3  22
TORSDOF 6
ENDMDL
MODEL 4
REMARK VINA RESULT:      -9.4      1.090      1.964
REMARK  Name = 
REMARK  10 active torsions:
REMARK  status: ('A' for Active; 'I' for Inactive)
REMARK    1  A    between atoms: C_1  and  C_2
REMARK    2  A    between atoms: C_2  and  C_3
REMARK    3  A    between atoms: N_6  and  C_7
REMARK    4  A    between atoms: C_8  and  C_9
REMARK    5  A    between atoms: C_13  and  C_14
REMARK    6  A    between atoms: C_16  and  C_17
REMARK    7  A    between atoms: C_16  and  C_18
REMARK    8  A    between atoms: N_20  and  C_21
REMARK    9  A    between atoms: C_23  and  C_24
REMARK   10  A    between atoms: C_29  and  C_30
REMARK                            x       y       z     vdW  Elec       q    Type
REMARK                         _______ _______ _______ _____ _____    ______ ____
ROOT
ATOM      1  C   UNL     1       1.096   9.329  20.171  0.00  0.00    +0.000 C 
ATOM      2  O   UNL     1       1.487   8.933  21.267  0.00  0.00    +0.000 OA
ATOM      3  N   UNL     1       1.450   8.760  18.962  0.00  0.00    +0.000 N 
ATOM      4  H   UNL     1       1.024   9.129  18.126  0.00  0.00    +0.000 HD
ENDROOT
BRANCH   1  10
ATOM      5  C   UNL     1       0.767  11.724  19.104  0.00  0.00    +0.000 C 
ATOM      6  C   UNL     1      -0.543  12.306  18.556  0.00  0.00    +0.000 C 
ATOM      7  O   UNL     1      -0.640  13.344  17.916  0.00  0.00    +0.000 OA
ATOM      8  N   UNL     1      -1.583  11.460  18.913  0.00  0.00    +0.000 N 
ATOM      9  C   UNL     1      -1.083  10.224  19.442  0.00  0.00    +0.000 C 
ATOM     10  C   UNL     1       0.260  10.618  20.089  0.00  0.00    +0.000 C 
ATOM     11  C   UNL     1       0.014  11.129  21.519  0.00  0.00    +0.000 C 
BRANCH   8  12
ATOM     12  C   UNL     1      -2.926  11.624  18.511  0.00  0.00    +0.000 A 
ATOM     13  C   UNL     1      -3.366  11.237  17.226  0.00  0.00    +0.000 A 
ATOM     14  C   UNL     1      -2.521  10.506  16.218  0.00  0.00    +0.000 C 
ATOM     15  C   UNL     1      -4.691  11.515  16.843  0.00  0.00    +0.000 A 
ATOM     16  C   UNL     1      -5.575  12.140  17.715  0.00  0.00    +0.000 A 
ATOM     17  C   UNL     1      -5.148  12.502  18.985  0.00  0.00    +0.000 A 
ATOM     18  C   UNL     1      -3.827  12.264  19.396  0.00  0.00    +0.000 A 
ATOM     19  C   UNL     1      -3.414  12.787  20.746  0.00  0.00    +0.000 C 
ENDBRANCH   8  12
BRANCH   5  21
ATOM     20  C   UNL     1       2.736  13.387  18.810  0.00  0.00    +0.000 C 
ATOM     21  C   UNL     1       1.653  12.824  19.728  0.00  0.00    +0.000 C 
ENDBRANCH   5  21
ENDBRANCH   1  10
BRANCH   3  22
ATOM     22  C   UNL     1       2.306   7.647  18.761  0.00  0.00    +0.000 A 
ATOM     23  C   UNL     1       3.322   7.610  17.798  0.00  0.00    +0.000 A 
ATOM     24  C   UNL     1       4.162   6.497  17.664  0.00  0.00    +0.000 A 
ATOM     25  C   UNL     1       3.960   5.380  18.491  0.00  0.00    +0.000 A 
ATOM     26  C   UNL     1       2.933   5.380  19.445  0.00  0.00    +0.000 A 
ATOM     27  C   UNL     1       2.119   6.520  19.576  0.00  0.00    +0.000 A 
BRANCH  24  28
ATOM     28  C   UNL     1       5.289   6.506  16.656  0.00  0.00    +0.000 C 
ATOM     29  F   UNL     1       4.906   6.877  15.405  0.00  0.00    +0.000 F 
ATOM     30  F   UNL     1       6.285   7.362  17.012  0.00  0.00    +0.000 F 
ATOM     31  F   UNL     1       5.876   5.284  16.522  0.00  0.00    +0.000 F 
ENDBRANCH  24  28
BRANCH  26  32
ATOM     32  C   UNL     1       2.700   4.175  20.332  0.00  0.00    +0.000 C 
ATOM     33  F   UNL     1       1.563   3.491  20.034  0.00  0.00    +0.000 F 
ATOM     34  F   UNL     1       3.716   3.271  20.253  0.00  0.00    +0.000 F 
ATOM     35  F   UNL     1       2.602   4.513  21.647  0.00  0.00    +0.000 F 
ENDBRANCH  26  32
ENDBRANCH   3  22
TORSDOF 6
ENDMDL
MODEL 5
REMARK VINA RESULT:      -9.4      0.311      3.365
REMARK  Name = 
REMARK  10 active torsions:
REMARK  status: ('A' for Active; 'I' for Inactive)
REMARK    1  A    between atoms: C_1  and  C_2
REMARK    2  A    between atoms: C_2  and  C_3
REMARK    3  A    between atoms: N_6  and  C_7
REMARK    4  A    between atoms: C_8  and  C_9
REMARK    5  A    between atoms: C_13  and  C_14
REMARK    6  A    between atoms: C_16  and  C_17
REMARK    7  A    between atoms: C_16  and  C_18
REMARK    8  A    between atoms: N_20  and  C_21
REMARK    9  A    between atoms: C_23  and  C_24
REMARK   10  A    between atoms: C_29  and  C_30
REMARK                            x       y       z     vdW  Elec       q    Type
REMARK                         _______ _______ _______ _____ _____    ______ ____
ROOT
ATOM      1  C   UNL     1       1.553   9.260  18.647  0.00  0.00    +0.000 C 
ATOM      2  O   UNL     1       1.915   9.212  17.473  0.00  0.00    +0.000 OA
ATOM      3  N   UNL     1       1.751   8.248  19.567  0.00  0.00    +0.000 N 
ATOM      4  H   UNL     1       1.466   8.416  20.519  0.00  0.00    +0.000 HD
ENDROOT
BRANCH   1  10
ATOM      5  C   UNL     1       1.017  11.842  18.476  0.00  0.00    +0.000 C 
ATOM      6  C   UNL     1      -0.375  12.480  18.381  0.00  0.00    +0.000 C 
ATOM      7  O   UNL     1      -0.596  13.657  18.133  0.00  0.00    +0.000 OA
ATOM      8  N   UNL     1      -1.325  11.499  18.627  0.00  0.00    +0.000 N 
ATOM      9  C   UNL     1      -0.729  10.195  18.637  0.00  0.00    +0.000 C 
ATOM     10  C   UNL     1       0.710  10.453  19.129  0.00  0.00    +0.000 C 
ATOM     11  C   UNL     1       0.733  10.474  20.668  0.00  0.00    +0.000 C 
BRANCH   8  12
ATOM     12  C   UNL     1      -2.721  11.693  18.540  0.00  0.00    +0.000 A 
ATOM     13  C   UNL     1      -3.428  11.455  17.341  0.00  0.00    +0.000 A 
ATOM     14  C   UNL     1      -2.826  10.858  16.098  0.00  0.00    +0.000 C 
ATOM     15  C   UNL     1      -4.800  11.761  17.283  0.00  0.00    +0.000 A 
ATOM     16  C   UNL     1      -5.471  12.268  18.390  0.00  0.00    +0.000 A 
ATOM     17  C   UNL     1      -4.780  12.484  19.574  0.00  0.00    +0.000 A 
ATOM     18  C   UNL     1      -3.405  12.214  19.665  0.00  0.00    +0.000 A 
ATOM     19  C   UNL     1      -2.708  12.579  20.949  0.00  0.00    +0.000 C 
ENDBRANCH   8  12
BRANCH   5  21
ATOM     20  C   UNL     1       2.955  13.564  18.386  0.00  0.00    +0.000 C 
ATOM     21  C   UNL     1       1.998  12.746  19.252  0.00  0.00    +0.000 C 
ENDBRANCH   5  21
ENDBRANCH   1  10
BRANCH   3  22
ATOM     22  C   UNL     1       2.386   7.000  19.340  0.00  0.00    +0.000 A 
ATOM     23  C   UNL     1       2.191   5.869  20.142  0.00  0.00    +0.000 A 
ATOM     24  C   UNL     1       2.817   4.651  19.854  0.00  0.00    +0.000 A 
ATOM     25  C   UNL     1       3.687   4.568  18.753  0.00  0.00    +0.000 A 
ATOM     26  C   UNL     1       3.921   5.692  17.949  0.00  0.00    +0.000 A 
ATOM     27  C   UNL     1       3.260   6.898  18.247  0.00  0.00    +0.000 A 
BRANCH  24  28
ATOM     28  C   UNL     1       2.543   3.430  20.702  0.00  0.00    +0.000 C 
ATOM     29  F   UNL     1       3.571   2.539  20.734  0.00  0.00    +0.000 F 
ATOM     30  F   UNL     1       2.288   3.754  21.999  0.00  0.00    +0.000 F 
ATOM     31  F   UNL     1       1.456   2.731  20.271  0.00  0.00    +0.000 F 
ENDBRANCH  24  28
BRANCH  26  32
ATOM     32  C   UNL     1       4.867   5.617  16.769  0.00  0.00    +0.000 C 
ATOM     33  F   UNL     1       4.649   4.541  15.965  0.00  0.00    +0.000 F 
ATOM     34  F   UNL     1       4.778   6.713  15.965  0.00  0.00    +0.000 F 
ATOM     35  F   UNL     1       6.170   5.540  17.155  0.00  0.00    +0.000 F 
ENDBRANCH  26  32
ENDBRANCH   3  22
TORSDOF 6
ENDMDL
MODEL 6
REMARK VINA RESULT:      -9.3      0.136      3.002
REMARK  Name = 
REMARK  10 active torsions:
REMARK  status: ('A' for Active; 'I' for Inactive)
REMARK    1  A    between atoms: C_1  and  C_2
REMARK    2  A    between atoms: C_2  and  C_3
REMARK    3  A    between atoms: N_6  and  C_7
REMARK    4  A    between atoms: C_8  and  C_9
REMARK    5  A    between atoms: C_13  and  C_14
REMARK    6  A    between atoms: C_16  and  C_17
REMARK    7  A    between atoms: C_16  and  C_18
REMARK    8  A    between atoms: N_20  and  C_21
REMARK    9  A    between atoms: C_23  and  C_24
REMARK   10  A    between atoms: C_29  and  C_30
REMARK                            x       y       z     vdW  Elec       q    Type
REMARK                         _______ _______ _______ _____ _____    ______ ____
ROOT
ATOM      1  C   UNL     1       1.501   9.294  18.755  0.00  0.00    +0.000 C 
ATOM      2  O   UNL     1       1.880   9.224  17.586  0.00  0.00    +0.000 OA
ATOM      3  N   UNL     1       1.646   8.282  19.684  0.00  0.00    +0.000 N 
ATOM      4  H   UNL     1       1.352   8.468  20.630  0.00  0.00    +0.000 HD
ENDROOT
BRANCH   1  10
ATOM      5  C   UNL     1       1.034  11.884  18.522  0.00  0.00    +0.000 C 
ATOM      6  C   UNL     1      -0.341  12.557  18.426  0.00  0.00    +0.000 C 
ATOM      7  O   UNL     1      -0.533  13.734  18.150  0.00  0.00    +0.000 OA
ATOM      8  N   UNL     1      -1.315  11.610  18.707  0.00  0.00    +0.000 N 
ATOM      9  C   UNL     1      -0.754  10.290  18.744  0.00  0.00    +0.000 C 
ATOM     10  C   UNL     1       0.696  10.521  19.215  0.00  0.00    +0.000 C 
ATOM     11  C   UNL     1       0.738  10.581  20.751  0.00  0.00    +0.000 C 
BRANCH   8  12
ATOM     12  C   UNL     1      -2.706  11.840  18.630  0.00  0.00    +0.000 A 
ATOM     13  C   UNL     1      -3.440  12.311  19.740  0.00  0.00    +0.000 A 
ATOM     14  C   UNL     1      -2.831  12.739  21.048  0.00  0.00    +0.000 C 
ATOM     15  C   UNL     1      -4.838  12.427  19.638  0.00  0.00    +0.000 A 
ATOM     16  C   UNL     1      -5.501  12.109  18.457  0.00  0.00    +0.000 A 
ATOM     17  C   UNL     1      -4.777  11.664  17.360  0.00  0.00    +0.000 A 
ATOM     18  C   UNL     1      -3.383  11.511  17.430  0.00  0.00    +0.000 A 
ATOM     19  C   UNL     1      -2.687  10.919  16.235  0.00  0.00    +0.000 C 
ENDBRANCH   8  12
BRANCH   5  21
ATOM     20  C   UNL     1       2.984  13.587  18.366  0.00  0.00    +0.000 C 
ATOM     21  C   UNL     1       2.048  12.781  19.264  0.00  0.00    +0.000 C 
ENDBRANCH   5  21
ENDBRANCH   1  10
BRANCH   3  22
ATOM     22  C   UNL     1       2.236   7.009  19.476  0.00  0.00    +0.000 A 
ATOM     23  C   UNL     1       1.971   5.888  20.271  0.00  0.00    +0.000 A 
ATOM     24  C   UNL     1       2.557   4.644  20.001  0.00  0.00    +0.000 A 
ATOM     25  C   UNL     1       3.456   4.527  18.928  0.00  0.00    +0.000 A 
ATOM     26  C   UNL     1       3.761   5.640  18.133  0.00  0.00    +0.000 A 
ATOM     27  C   UNL     1       3.140   6.872  18.411  0.00  0.00    +0.000 A 
BRANCH  24  28
ATOM     28  C   UNL     1       2.207   3.436  20.839  0.00  0.00    +0.000 C 
ATOM     29  F   UNL     1       2.932   2.326  20.535  0.00  0.00    +0.000 F 
ATOM     30  F   UNL     1       2.405   3.659  22.167  0.00  0.00    +0.000 F 
ATOM     31  F   UNL     1       0.899   3.076  20.712  0.00  0.00    +0.000 F 
ENDBRANCH  24  28
BRANCH  26  32
ATOM     32  C   UNL     1       4.739   5.525  16.983  0.00  0.00    +0.000 C 
ATOM     33  F   UNL     1       6.034   5.407  17.380  0.00  0.00    +0.000 F 
ATOM     34  F   UNL     1       4.484   4.445  16.194  0.00  0.00    +0.000 F 
ATOM     35  F   UNL     1       4.695   6.608  16.158  0.00  0.00    +0.000 F 
ENDBRANCH  26  32
ENDBRANCH   3  22
TORSDOF 6
ENDMDL
MODEL 7
REMARK VINA RESULT:      -9.3      0.875      1.900
REMARK  Name = 
REMARK  10 active torsions:
REMARK  status: ('A' for Active; 'I' for Inactive)
REMARK    1  A    between atoms: C_1  and  C_2
REMARK    2  A    between atoms: C_2  and  C_3
REMARK    3  A    between atoms: N_6  and  C_7
REMARK    4  A    between atoms: C_8  and  C_9
REMARK    5  A    between atoms: C_13  and  C_14
REMARK    6  A    between atoms: C_16  and  C_17
REMARK    7  A    between atoms: C_16  and  C_18
REMARK    8  A    between atoms: N_20  and  C_21
REMARK    9  A    between atoms: C_23  and  C_24
REMARK   10  A    between atoms: C_29  and  C_30
REMARK                            x       y       z     vdW  Elec       q    Type
REMARK                         _______ _______ _______ _____ _____    ______ ____
ROOT
ATOM      1  C   UNL     1       1.463   9.096  18.918  0.00  0.00    +0.000 C 
ATOM      2  O   UNL     1       1.797   8.955  17.743  0.00  0.00    +0.000 OA
ATOM      3  N   UNL     1       1.691   8.164  19.912  0.00  0.00    +0.000 N 
ATOM      4  H   UNL     1       1.427   8.408  20.854  0.00  0.00    +0.000 HD
ENDROOT
BRANCH   1  10
ATOM      5  C   UNL     1       0.989  11.681  18.643  0.00  0.00    +0.000 C 
ATOM      6  C   UNL     1      -0.383  12.342  18.460  0.00  0.00    +0.000 C 
ATOM      7  O   UNL     1      -0.567  13.516  18.166  0.00  0.00    +0.000 OA
ATOM      8  N   UNL     1      -1.365  11.387  18.685  0.00  0.00    +0.000 N 
ATOM      9  C   UNL     1      -0.796  10.073  18.764  0.00  0.00    +0.000 C 
ATOM     10  C   UNL     1       0.621  10.319  19.321  0.00  0.00    +0.000 C 
ATOM     11  C   UNL     1       0.568  10.387  20.857  0.00  0.00    +0.000 C 
BRANCH   8  12
ATOM     12  C   UNL     1      -2.749  11.605  18.522  0.00  0.00    +0.000 A 
ATOM     13  C   UNL     1      -3.393  11.382  17.285  0.00  0.00    +0.000 A 
ATOM     14  C   UNL     1      -2.733  10.778  16.075  0.00  0.00    +0.000 C 
ATOM     15  C   UNL     1      -4.754  11.711  17.152  0.00  0.00    +0.000 A 
ATOM     16  C   UNL     1      -5.477  12.227  18.222  0.00  0.00    +0.000 A 
ATOM     17  C   UNL     1      -4.849  12.428  19.443  0.00  0.00    +0.000 A 
ATOM     18  C   UNL     1      -3.486  12.136  19.609  0.00  0.00    +0.000 A 
ATOM     19  C   UNL     1      -2.856  12.486  20.930  0.00  0.00    +0.000 C 
ENDBRANCH   8  12
BRANCH   5  21
ATOM     20  C   UNL     1       2.845  13.493  18.596  0.00  0.00    +0.000 C 
ATOM     21  C   UNL     1       1.949  12.590  19.441  0.00  0.00    +0.000 C 
ENDBRANCH   5  21
ENDBRANCH   1  10
BRANCH   3  22
ATOM     22  C   UNL     1       2.331   6.906  19.773  0.00  0.00    +0.000 A 
ATOM     23  C   UNL     1       3.629   6.744  19.273  0.00  0.00    +0.000 A 
ATOM     24  C   UNL     1       4.228   5.481  19.188  0.00  0.00    +0.000 A 
ATOM     25  C   UNL     1       3.498   4.346  19.581  0.00  0.00    +0.000 A 
ATOM     26  C   UNL     1       2.187   4.477  20.059  0.00  0.00    +0.000 A 
ATOM     27  C   UNL     1       1.618   5.761  20.158  0.00  0.00    +0.000 A 
BRANCH  24  28
ATOM     28  C   UNL     1       5.652   5.340  18.700  0.00  0.00    +0.000 C 
ATOM     29  F   UNL     1       5.996   6.237  17.738  0.00  0.00    +0.000 F 
ATOM     30  F   UNL     1       6.555   5.504  19.705  0.00  0.00    +0.000 F 
ATOM     31  F   UNL     1       5.900   4.109  18.171  0.00  0.00    +0.000 F 
ENDBRANCH  24  28
BRANCH  26  32
ATOM     32  C   UNL     1       1.388   3.259  20.473  0.00  0.00    +0.000 C 
ATOM     33  F   UNL     1       1.048   3.254  21.790  0.00  0.00    +0.000 F 
ATOM     34  F   UNL     1       0.221   3.147  19.781  0.00  0.00    +0.000 F 
ATOM     35  F   UNL     1       2.066   2.099  20.254  0.00  0.00    +0.000 F 
ENDBRANCH  26  32
ENDBRANCH   3  22
TORSDOF 6
ENDMDL
MODEL 8
REMARK VINA RESULT:      -9.3      1.146      3.211
REMARK  Name = 
REMARK  10 active torsions:
REMARK  status: ('A' for Active; 'I' for Inactive)
REMARK    1  A    between atoms: C_1  and  C_2
REMARK    2  A    between atoms: C_2  and  C_3
REMARK    3  A    between atoms: N_6  and  C_7
REMARK    4  A    between atoms: C_8  and  C_9
REMARK    5  A    between atoms: C_13  and  C_14
REMARK    6  A    between atoms: C_16  and  C_17
REMARK    7  A    between atoms: C_16  and  C_18
REMARK    8  A    between atoms: N_20  and  C_21
REMARK    9  A    between atoms: C_23  and  C_24
REMARK   10  A    between atoms: C_29  and  C_30
REMARK                            x       y       z     vdW  Elec       q    Type
REMARK                         _______ _______ _______ _____ _____    ______ ____
ROOT
ATOM      1  C   UNL     1       1.118   9.197  20.177  0.00  0.00    +0.000 C 
ATOM      2  O   UNL     1       1.458   8.770  21.279  0.00  0.00    +0.000 OA
ATOM      3  N   UNL     1       1.502   8.641  18.972  0.00  0.00    +0.000 N 
ATOM      4  H   UNL     1       1.117   9.037  18.128  0.00  0.00    +0.000 HD
ENDROOT
BRANCH   1  10
ATOM      5  C   UNL     1       0.850  11.589  19.085  0.00  0.00    +0.000 C 
ATOM      6  C   UNL     1      -0.448  12.205  18.547  0.00  0.00    +0.000 C 
ATOM      7  O   UNL     1      -0.521  13.238  17.895  0.00  0.00    +0.000 OA
ATOM      8  N   UNL     1      -1.510  11.395  18.927  0.00  0.00    +0.000 N 
ATOM      9  C   UNL     1      -1.041  10.150  19.464  0.00  0.00    +0.000 C 
ATOM     10  C   UNL     1       0.322  10.510  20.090  0.00  0.00    +0.000 C 
ATOM     11  C   UNL     1       0.110  11.045  21.517  0.00  0.00    +0.000 C 
BRANCH   8  12
ATOM     12  C   UNL     1      -2.851  11.596  18.539  0.00  0.00    +0.000 A 
ATOM     13  C   UNL     1      -3.784  12.220  19.396  0.00  0.00    +0.000 A 
ATOM     14  C   UNL     1      -3.442  12.845  20.721  0.00  0.00    +0.000 C 
ATOM     15  C   UNL     1      -5.131  12.303  18.998  0.00  0.00    +0.000 A 
ATOM     16  C   UNL     1      -5.550  11.805  17.769  0.00  0.00    +0.000 A 
ATOM     17  C   UNL     1      -4.630  11.209  16.919  0.00  0.00    +0.000 A 
ATOM     18  C   UNL     1      -3.281  11.084  17.290  0.00  0.00    +0.000 A 
ATOM     19  C   UNL     1      -2.371  10.327  16.360  0.00  0.00    +0.000 C 
ENDBRANCH   8  12
BRANCH   5  21
ATOM     20  C   UNL     1       2.737  13.325  18.696  0.00  0.00    +0.000 C 
ATOM     21  C   UNL     1       1.777  12.668  19.685  0.00  0.00    +0.000 C 
ENDBRANCH   5  21
ENDBRANCH   1  10
BRANCH   3  22
ATOM     22  C   UNL     1       2.334   7.508  18.780  0.00  0.00    +0.000 A 
ATOM     23  C   UNL     1       2.216   6.323  19.515  0.00  0.00    +0.000 A 
ATOM     24  C   UNL     1       3.043   5.220  19.263  0.00  0.00    +0.000 A 
ATOM     25  C   UNL     1       4.034   5.317  18.273  0.00  0.00    +0.000 A 
ATOM     26  C   UNL     1       4.192   6.502  17.540  0.00  0.00    +0.000 A 
ATOM     27  C   UNL     1       3.332   7.586  17.797  0.00  0.00    +0.000 A 
BRANCH  24  28
ATOM     28  C   UNL     1       2.855   3.932  20.031  0.00  0.00    +0.000 C 
ATOM     29  F   UNL     1       2.574   4.111  21.349  0.00  0.00    +0.000 F 
ATOM     30  F   UNL     1       1.837   3.181  19.529  0.00  0.00    +0.000 F 
ATOM     31  F   UNL     1       3.961   3.137  19.989  0.00  0.00    +0.000 F 
ENDBRANCH  24  28
BRANCH  26  32
ATOM     32  C   UNL     1       5.266   6.620  16.480  0.00  0.00    +0.000 C 
ATOM     33  F   UNL     1       4.811   7.113  15.297  0.00  0.00    +0.000 F 
ATOM     34  F   UNL     1       6.283   7.440  16.864  0.00  0.00    +0.000 F 
ATOM     35  F   UNL     1       5.841   5.421  16.191  0.00  0.00    +0.000 F 
ENDBRANCH  26  32
ENDBRANCH   3  22
TORSDOF 6
ENDMDL
MODEL 9
REMARK VINA RESULT:      -9.3      1.096      1.416
REMARK  Name = 
REMARK  10 active torsions:
REMARK  status: ('A' for Active; 'I' for Inactive)
REMARK    1  A    between atoms: C_1  and  C_2
REMARK    2  A    between atoms: C_2  and  C_3
REMARK    3  A    between atoms: N_6  and  C_7
REMARK    4  A    between atoms: C_8  and  C_9
REMARK    5  A    between atoms: C_13  and  C_14
REMARK    6  A    between atoms: C_16  and  C_17
REMARK    7  A    between atoms: C_16  and  C_18
REMARK    8  A    between atoms: N_20  and  C_21
REMARK    9  A    between atoms: C_23  and  C_24
REMARK   10  A    between atoms: C_29  and  C_30
REMARK                            x       y       z     vdW  Elec       q    Type
REMARK                         _______ _______ _______ _____ _____    ______ ____
ROOT
ATOM      1  C   UNL     1       1.104   9.299  20.161  0.00  0.00    +0.000 C 
ATOM      2  O   UNL     1       1.469   8.870  21.255  0.00  0.00    +0.000 OA
ATOM      3  N   UNL     1       1.474   8.755  18.946  0.00  0.00    +0.000 N 
ATOM      4  H   UNL     1       1.069   9.150  18.112  0.00  0.00    +0.000 HD
ENDROOT
BRANCH   1  10
ATOM      5  C   UNL     1       0.795  11.702  19.107  0.00  0.00    +0.000 C 
ATOM      6  C   UNL     1      -0.513  12.306  18.581  0.00  0.00    +0.000 C 
ATOM      7  O   UNL     1      -0.605  13.347  17.946  0.00  0.00    +0.000 OA
ATOM      8  N   UNL     1      -1.561  11.474  18.951  0.00  0.00    +0.000 N 
ATOM      9  C   UNL     1      -1.072  10.229  19.468  0.00  0.00    +0.000 C 
ATOM     10  C   UNL     1       0.287  10.600  20.096  0.00  0.00    +0.000 C 
ATOM     11  C   UNL     1       0.070  11.110  21.532  0.00  0.00    +0.000 C 
BRANCH   8  12
ATOM     12  C   UNL     1      -2.907  11.660  18.570  0.00  0.00    +0.000 A 
ATOM     13  C   UNL     1      -3.845  12.265  19.435  0.00  0.00    +0.000 A 
ATOM     14  C   UNL     1      -3.506  12.884  20.763  0.00  0.00    +0.000 C 
ATOM     15  C   UNL     1      -5.194  12.333  19.042  0.00  0.00    +0.000 A 
ATOM     16  C   UNL     1      -5.611  11.839  17.811  0.00  0.00    +0.000 A 
ATOM     17  C   UNL     1      -4.686  11.262  16.953  0.00  0.00    +0.000 A 
ATOM     18  C   UNL     1      -3.335  11.152  17.318  0.00  0.00    +0.000 A 
ATOM     19  C   UNL     1      -2.418  10.415  16.379  0.00  0.00    +0.000 C 
ENDBRANCH   8  12
BRANCH   5  21
ATOM     20  C   UNL     1       2.738  13.387  18.767  0.00  0.00    +0.000 C 
ATOM     21  C   UNL     1       1.707  12.786  19.721  0.00  0.00    +0.000 C 
ENDBRANCH   5  21
ENDBRANCH   1  10
BRANCH   3  22
ATOM     22  C   UNL     1       2.318   7.636  18.733  0.00  0.00    +0.000 A 
ATOM     23  C   UNL     1       3.335   7.599  17.771  0.00  0.00    +0.000 A 
ATOM     24  C   UNL     1       4.164   6.480  17.624  0.00  0.00    +0.000 A 
ATOM     25  C   UNL     1       3.950   5.355  18.439  0.00  0.00    +0.000 A 
ATOM     26  C   UNL     1       2.923   5.355  19.392  0.00  0.00    +0.000 A 
ATOM     27  C   UNL     1       2.120   6.502  19.535  0.00  0.00    +0.000 A 
BRANCH  24  28
ATOM     28  C   UNL     1       5.291   6.489  16.618  0.00  0.00    +0.000 C 
ATOM     29  F   UNL     1       6.369   7.224  17.004  0.00  0.00    +0.000 F 
ATOM     30  F   UNL     1       5.763   5.237  16.366  0.00  0.00    +0.000 F 
ATOM     31  F   UNL     1       4.907   6.993  15.412  0.00  0.00    +0.000 F 
ENDBRANCH  24  28
BRANCH  26  32
ATOM     32  C   UNL     1       2.677   4.143  20.266  0.00  0.00    +0.000 C 
ATOM     33  F   UNL     1       2.459   4.450  21.573  0.00  0.00    +0.000 F 
ATOM     34  F   UNL     1       1.593   3.425  19.860  0.00  0.00    +0.000 F 
ATOM     35  F   UNL     1       3.726   3.276  20.252  0.00  0.00    +0.000 F 
ENDBRANCH  26  32
ENDBRANCH   3  22
TORSDOF 6
ENDMDL
