MODEL 1
REMARK VINA RESULT:      -9.1      0.000      0.000
REMARK  Name = 
REMARK  11 active torsions:
REMARK  status: ('A' for Active; 'I' for Inactive)
REMARK    1  A    between atoms: C_1  and  C_2
REMARK    2  A    between atoms: C_2  and  C_3
REMARK    3  A    between atoms: C_6  and  N_7
REMARK    4  A    between atoms: C_14  and  C_15
REMARK    5  A    between atoms: N_19  and  C_20
REMARK    6  A    between atoms: C_20  and  C_21
REMARK    7  A    between atoms: C_21  and  O_22
REMARK    8  A    between atoms: O_22  and  C_23
REMARK    9  A    between atoms: C_26  and  C_27
REMARK   10  A    between atoms: C_27  and  C_28
REMARK   11  A    between atoms: C_27  and  C_29
REMARK                            x       y       z     vdW  Elec       q    Type
REMARK                         _______ _______ _______ _____ _____    ______ ____
ROOT
ATOM      1  N   UNL     1       1.338   9.395  19.456  0.00  0.00    +0.000 N 
ATOM      2  C   UNL     1       1.149   8.855  20.721  0.00  0.00    +0.000 C 
ATOM      3  O   UNL     1       0.655   9.438  21.686  0.00  0.00    +0.000 OA
ATOM      4  N   UNL     1       1.532   7.559  20.898  0.00  0.00    +0.000 N 
ATOM      5  C   UNL     1       2.268   6.788  20.055  0.00  0.00    +0.000 C 
ATOM      6  O   UNL     1       2.770   5.754  20.476  0.00  0.00    +0.000 OA
ATOM      7  C   UNL     1       2.438   7.339  18.690  0.00  0.00    +0.000 C 
ATOM      8  C   UNL     1       3.015   6.661  17.674  0.00  0.00    +0.000 C 
ATOM      9  C   UNL     1       1.941   8.719  18.391  0.00  0.00    +0.000 C 
ATOM     10  O   UNL     1       2.122   9.211  17.275  0.00  0.00    +0.000 OA
ATOM     11  H   UNL     1       1.426   7.199  21.836  0.00  0.00    +0.000 HD
ENDROOT
BRANCH   1  15
ATOM     12  C   UNL     1       0.017  13.394  18.904  0.00  0.00    +0.000 A 
ATOM     13  C   UNL     1       1.343  13.126  19.265  0.00  0.00    +0.000 A 
ATOM     14  C   UNL     1       1.774  11.811  19.452  0.00  0.00    +0.000 A 
ATOM     15  C   UNL     1       0.898  10.739  19.241  0.00  0.00    +0.000 A 
ATOM     16  C   UNL     1      -0.418  11.002  18.841  0.00  0.00    +0.000 A 
ATOM     17  C   UNL     1      -0.857  12.321  18.685  0.00  0.00    +0.000 A 
BRANCH  12  19
ATOM     18  C   UNL     1       0.550  15.822  19.274  0.00  0.00    +0.000 C 
ATOM     19  C   UNL     1      -0.461  14.815  18.749  0.00  0.00    +0.000 C 
ENDBRANCH  12  19
ENDBRANCH   1  15
BRANCH   8  20
ATOM     20  C   UNL     1       3.411   5.304  17.769  0.00  0.00    +0.000 A 
ATOM     21  C   UNL     1       2.649   4.150  17.690  0.00  0.00    +0.000 A 
ATOM     22  C   UNL     1       3.479   3.055  17.984  0.00  0.00    +0.000 A 
ATOM     23  C   UNL     1       4.746   3.551  18.179  0.00  0.00    +0.000 A 
ATOM     24  N   UNL     1       4.722   4.921  18.007  0.00  0.00    +0.000 N 
BRANCH  24  25
ATOM     25  C   UNL     1       5.896   5.797  18.108  0.00  0.00    +0.000 C 
BRANCH  25  26
ATOM     26  C   UNL     1       6.259   6.468  16.781  0.00  0.00    +0.000 C 
BRANCH  26  27
ATOM     27  O   UNL     1       7.272   5.774  16.046  0.00  0.00    +0.000 OA
BRANCH  27  28
ATOM     28  C   UNL     1       6.776   5.103  14.950  0.00  0.00    +0.000 A 
ATOM     29  C   UNL     1       7.631   4.968  13.861  0.00  0.00    +0.000 A 
ATOM     30  C   UNL     1       7.208   4.302  12.702  0.00  0.00    +0.000 A 
ATOM     31  C   UNL     1       5.920   3.736  12.620  0.00  0.00    +0.000 A 
ATOM     32  C   UNL     1       5.074   3.871  13.725  0.00  0.00    +0.000 A 
ATOM     33  C   UNL     1       5.497   4.539  14.876  0.00  0.00    +0.000 A 
BRANCH  31  34
ATOM     34  C   UNL     1       5.491   2.970  11.383  0.00  0.00    +0.000 C 
ATOM     35  C   UNL     1       5.973   1.516  11.433  0.00  0.00    +0.000 C 
ATOM     36  C   UNL     1       3.976   3.009  11.161  0.00  0.00    +0.000 C 
ENDBRANCH  31  34
ENDBRANCH  27  28
ENDBRANCH  26  27
ENDBRANCH  25  26
ENDBRANCH  24  25
ENDBRANCH   8  20
TORSDOF 8
ENDMDL
MODEL 2
REMARK VINA RESULT:      -8.9      0.447      1.254
REMARK  Name = 
REMARK  11 active torsions:
REMARK  status: ('A' for Active; 'I' for Inactive)
REMARK    1  A    between atoms: C_1  and  C_2
REMARK    2  A    between atoms: C_2  and  C_3
REMARK    3  A    between atoms: C_6  and  N_7
REMARK    4  A    between atoms: C_14  and  C_15
REMARK    5  A    between atoms: N_19  and  C_20
REMARK    6  A    between atoms: C_20  and  C_21
REMARK    7  A    between atoms: C_21  and  O_22
REMARK    8  A    between atoms: O_22  and  C_23
REMARK    9  A    between atoms: C_26  and  C_27
REMARK   10  A    between atoms: C_27  and  C_28
REMARK   11  A    between atoms: C_27  and  C_29
REMARK                            x       y       z     vdW  Elec       q    Type
REMARK                         _______ _______ _______ _____ _____    ______ ____
ROOT
ATOM      1  N   UNL     1       1.247   9.248  19.705  0.00  0.00    +0.000 N 
ATOM      2  C   UNL     1       1.164   8.629  20.946  0.00  0.00    +0.000 C 
ATOM      3  O   UNL     1       0.735   9.143  21.979  0.00  0.00    +0.000 OA
ATOM      4  N   UNL     1       1.581   7.334  21.014  0.00  0.00    +0.000 N 
ATOM      5  C   UNL     1       2.264   6.630  20.073  0.00  0.00    +0.000 C 
ATOM      6  O   UNL     1       2.813   5.584  20.391  0.00  0.00    +0.000 OA
ATOM      7  C   UNL     1       2.320   7.266  18.735  0.00  0.00    +0.000 C 
ATOM      8  C   UNL     1       2.830   6.661  17.639  0.00  0.00    +0.000 C 
ATOM      9  C   UNL     1       1.779   8.649  18.559  0.00  0.00    +0.000 C 
ATOM     10  O   UNL     1       1.865   9.210  17.465  0.00  0.00    +0.000 OA
ATOM     11  H   UNL     1       1.553   6.916  21.934  0.00  0.00    +0.000 HD
ENDROOT
BRANCH   1  15
ATOM     12  C   UNL     1      -0.172  13.233  19.323  0.00  0.00    +0.000 A 
ATOM     13  C   UNL     1      -1.061  12.153  19.272  0.00  0.00    +0.000 A 
ATOM     14  C   UNL     1      -0.593  10.843  19.392  0.00  0.00    +0.000 A 
ATOM     15  C   UNL     1       0.769  10.592  19.606  0.00  0.00    +0.000 A 
ATOM     16  C   UNL     1       1.655  11.672  19.697  0.00  0.00    +0.000 A 
ATOM     17  C   UNL     1       1.189  12.982  19.545  0.00  0.00    +0.000 A 
BRANCH  12  19
ATOM     18  C   UNL     1      -1.465  15.128  20.349  0.00  0.00    +0.000 C 
ATOM     19  C   UNL     1      -0.672  14.644  19.146  0.00  0.00    +0.000 C 
ENDBRANCH  12  19
ENDBRANCH   1  15
BRANCH   8  20
ATOM     20  C   UNL     1       3.254   5.310  17.622  0.00  0.00    +0.000 A 
ATOM     21  C   UNL     1       2.512   4.148  17.485  0.00  0.00    +0.000 A 
ATOM     22  C   UNL     1       3.373   3.053  17.669  0.00  0.00    +0.000 A 
ATOM     23  C   UNL     1       4.636   3.562  17.857  0.00  0.00    +0.000 A 
ATOM     24  N   UNL     1       4.580   4.940  17.786  0.00  0.00    +0.000 N 
BRANCH  24  25
ATOM     25  C   UNL     1       5.740   5.830  17.909  0.00  0.00    +0.000 C 
BRANCH  25  26
ATOM     26  C   UNL     1       6.215   6.385  16.564  0.00  0.00    +0.000 C 
BRANCH  26  27
ATOM     27  O   UNL     1       7.289   5.639  15.983  0.00  0.00    +0.000 OA
BRANCH  27  28
ATOM     28  C   UNL     1       6.926   4.994  14.822  0.00  0.00    +0.000 A 
ATOM     29  C   UNL     1       5.706   4.323  14.835  0.00  0.00    +0.000 A 
ATOM     30  C   UNL     1       5.259   3.636  13.698  0.00  0.00    +0.000 A 
ATOM     31  C   UNL     1       6.019   3.628  12.511  0.00  0.00    +0.000 A 
ATOM     32  C   UNL     1       7.237   4.313  12.508  0.00  0.00    +0.000 A 
ATOM     33  C   UNL     1       7.682   4.992  13.644  0.00  0.00    +0.000 A 
BRANCH  31  34
ATOM     34  C   UNL     1       5.500   2.928  11.268  0.00  0.00    +0.000 C 
ATOM     35  C   UNL     1       6.007   1.483  11.190  0.00  0.00    +0.000 C 
ATOM     36  C   UNL     1       3.972   2.949  11.174  0.00  0.00    +0.000 C 
ENDBRANCH  31  34
ENDBRANCH  27  28
ENDBRANCH  26  27
ENDBRANCH  25  26
ENDBRANCH  24  25
ENDBRANCH   8  20
TORSDOF 8
ENDMDL
MODEL 3
REMARK VINA RESULT:      -8.7      0.976      1.360
REMARK  Name = 
REMARK  11 active torsions:
REMARK  status: ('A' for Active; 'I' for Inactive)
REMARK    1  A    between atoms: C_1  and  C_2
REMARK    2  A    between atoms: C_2  and  C_3
REMARK    3  A    between atoms: C_6  and  N_7
REMARK    4  A    between atoms: C_14  and  C_15
REMARK    5  A    between atoms: N_19  and  C_20
REMARK    6  A    between atoms: C_20  and  C_21
REMARK    7  A    between atoms: C_21  and  O_22
REMARK    8  A    between atoms: O_22  and  C_23
REMARK    9  A    between atoms: C_26  and  C_27
REMARK   10  A    between atoms: C_27  and  C_28
REMARK   11  A    between atoms: C_27  and  C_29
REMARK                            x       y       z     vdW  Elec       q    Type
REMARK                         _______ _______ _______ _____ _____    ______ ____
ROOT
ATOM      1  N   UNL     1       1.042   9.728  19.612  0.00  0.00    +0.000 N 
ATOM      2  C   UNL     1       0.618   9.222  20.834  0.00  0.00    +0.000 C 
ATOM      3  O   UNL     1       0.066   9.864  21.727  0.00  0.00    +0.000 OA
ATOM      4  N   UNL     1       0.821   7.891  21.050  0.00  0.00    +0.000 N 
ATOM      5  C   UNL     1       1.573   7.034  20.310  0.00  0.00    +0.000 C 
ATOM      6  O   UNL     1       1.889   5.952  20.787  0.00  0.00    +0.000 OA
ATOM      7  C   UNL     1       1.992   7.554  18.987  0.00  0.00    +0.000 C 
ATOM      8  C   UNL     1       2.623   6.806  18.054  0.00  0.00    +0.000 C 
ATOM      9  C   UNL     1       1.705   8.979  18.635  0.00  0.00    +0.000 C 
ATOM     10  O   UNL     1       2.093   9.439  17.559  0.00  0.00    +0.000 OA
ATOM     11  H   UNL     1       0.545   7.552  21.961  0.00  0.00    +0.000 HD
ENDROOT
BRANCH   1  15
ATOM     12  C   UNL     1       0.270  13.846  18.917  0.00  0.00    +0.000 A 
ATOM     13  C   UNL     1       1.434  13.443  19.581  0.00  0.00    +0.000 A 
ATOM     14  C   UNL     1       1.684  12.088  19.814  0.00  0.00    +0.000 A 
ATOM     15  C   UNL     1       0.793  11.112  19.350  0.00  0.00    +0.000 A 
ATOM     16  C   UNL     1      -0.352  11.511  18.651  0.00  0.00    +0.000 A 
ATOM     17  C   UNL     1      -0.616  12.868  18.446  0.00  0.00    +0.000 A 
BRANCH  12  19
ATOM     18  C   UNL     1       0.862  16.202  19.564  0.00  0.00    +0.000 C 
ATOM     19  C   UNL     1      -0.022  15.310  18.707  0.00  0.00    +0.000 C 
ENDBRANCH  12  19
ENDBRANCH   1  15
BRANCH   8  20
ATOM     20  C   UNL     1       2.843   5.413  18.191  0.00  0.00    +0.000 A 
ATOM     21  C   UNL     1       2.097   4.346  17.717  0.00  0.00    +0.000 A 
ATOM     22  C   UNL     1       2.649   3.161  18.231  0.00  0.00    +0.000 A 
ATOM     23  C   UNL     1       3.757   3.518  18.962  0.00  0.00    +0.000 A 
ATOM     24  N   UNL     1       3.908   4.890  18.907  0.00  0.00    +0.000 N 
BRANCH  24  25
ATOM     25  C   UNL     1       4.999   5.637  19.544  0.00  0.00    +0.000 C 
BRANCH  25  26
ATOM     26  C   UNL     1       6.314   5.561  18.764  0.00  0.00    +0.000 C 
BRANCH  26  27
ATOM     27  O   UNL     1       6.356   6.427  17.626  0.00  0.00    +0.000 OA
BRANCH  27  28
ATOM     28  C   UNL     1       6.220   5.751  16.433  0.00  0.00    +0.000 A 
ATOM     29  C   UNL     1       7.016   4.622  16.261  0.00  0.00    +0.000 A 
ATOM     30  C   UNL     1       6.945   3.875  15.077  0.00  0.00    +0.000 A 
ATOM     31  C   UNL     1       6.054   4.235  14.045  0.00  0.00    +0.000 A 
ATOM     32  C   UNL     1       5.255   5.366  14.234  0.00  0.00    +0.000 A 
ATOM     33  C   UNL     1       5.330   6.110  15.413  0.00  0.00    +0.000 A 
BRANCH  31  34
ATOM     34  C   UNL     1       5.945   3.388  12.790  0.00  0.00    +0.000 C 
ATOM     35  C   UNL     1       4.581   3.567  12.115  0.00  0.00    +0.000 C 
ATOM     36  C   UNL     1       7.065   3.678  11.786  0.00  0.00    +0.000 C 
ENDBRANCH  31  34
ENDBRANCH  27  28
ENDBRANCH  26  27
ENDBRANCH  25  26
ENDBRANCH  24  25
ENDBRANCH   8  20
TORSDOF 8
ENDMDL
MODEL 4
REMARK VINA RESULT:      -8.5      1.041      1.577
REMARK  Name = 
REMARK  11 active torsions:
REMARK  status: ('A' for Active; 'I' for Inactive)
REMARK    1  A    between atoms: C_1  and  C_2
REMARK    2  A    between atoms: C_2  and  C_3
REMARK    3  A    between atoms: C_6  and  N_7
REMARK    4  A    between atoms: C_14  and  C_15
REMARK    5  A    between atoms: N_19  and  C_20
REMARK    6  A    between atoms: C_20  and  C_21
REMARK    7  A    between atoms: C_21  and  O_22
REMARK    8  A    between atoms: O_22  and  C_23
REMARK    9  A    between atoms: C_26  and  C_27
REMARK   10  A    between atoms: C_27  and  C_28
REMARK   11  A    between atoms: C_27  and  C_29
REMARK                            x       y       z     vdW  Elec       q    Type
REMARK                         _______ _______ _______ _____ _____    ______ ____
ROOT
ATOM      1  N   UNL     1       1.038   9.923  19.730  0.00  0.00    +0.000 N 
ATOM      2  C   UNL     1       0.728   9.443  20.996  0.00  0.00    +0.000 C 
ATOM      3  O   UNL     1       0.292  10.112  21.933  0.00  0.00    +0.000 OA
ATOM      4  N   UNL     1       0.911   8.109  21.207  0.00  0.00    +0.000 N 
ATOM      5  C   UNL     1       1.555   7.221  20.404  0.00  0.00    +0.000 C 
ATOM      6  O   UNL     1       1.884   6.134  20.860  0.00  0.00    +0.000 OA
ATOM      7  C   UNL     1       1.850   7.713  19.039  0.00  0.00    +0.000 C 
ATOM      8  C   UNL     1       2.357   6.936  18.055  0.00  0.00    +0.000 C 
ATOM      9  C   UNL     1       1.572   9.144  18.700  0.00  0.00    +0.000 C 
ATOM     10  O   UNL     1       1.861   9.580  17.583  0.00  0.00    +0.000 OA
ATOM     11  H   UNL     1       0.721   7.788  22.147  0.00  0.00    +0.000 HD
ENDROOT
BRANCH   1  15
ATOM     12  C   UNL     1       0.379  14.035  18.898  0.00  0.00    +0.000 A 
ATOM     13  C   UNL     1      -0.598  13.081  18.589  0.00  0.00    +0.000 A 
ATOM     14  C   UNL     1      -0.377  11.729  18.857  0.00  0.00    +0.000 A 
ATOM     15  C   UNL     1       0.807  11.312  19.478  0.00  0.00    +0.000 A 
ATOM     16  C   UNL     1       1.769  12.269  19.824  0.00  0.00    +0.000 A 
ATOM     17  C   UNL     1       1.560  13.619  19.526  0.00  0.00    +0.000 A 
BRANCH  12  19
ATOM     18  C   UNL     1      -0.518  16.244  19.697  0.00  0.00    +0.000 C 
ATOM     19  C   UNL     1       0.160  15.489  18.564  0.00  0.00    +0.000 C 
ENDBRANCH  12  19
ENDBRANCH   1  15
BRANCH   8  20
ATOM     20  C   UNL     1       2.545   5.539  18.187  0.00  0.00    +0.000 A 
ATOM     21  C   UNL     1       1.687   4.495  17.884  0.00  0.00    +0.000 A 
ATOM     22  C   UNL     1       2.279   3.298  18.321  0.00  0.00    +0.000 A 
ATOM     23  C   UNL     1       3.514   3.623  18.828  0.00  0.00    +0.000 A 
ATOM     24  N   UNL     1       3.704   4.986  18.711  0.00  0.00    +0.000 N 
BRANCH  24  25
ATOM     25  C   UNL     1       4.919   5.699  19.120  0.00  0.00    +0.000 C 
BRANCH  25  26
ATOM     26  C   UNL     1       6.202   4.920  18.817  0.00  0.00    +0.000 C 
BRANCH  26  27
ATOM     27  O   UNL     1       6.994   5.502  17.777  0.00  0.00    +0.000 OA
BRANCH  27  28
ATOM     28  C   UNL     1       6.743   4.952  16.540  0.00  0.00    +0.000 A 
ATOM     29  C   UNL     1       7.384   5.539  15.453  0.00  0.00    +0.000 A 
ATOM     30  C   UNL     1       7.185   5.046  14.156  0.00  0.00    +0.000 A 
ATOM     31  C   UNL     1       6.351   3.933  13.925  0.00  0.00    +0.000 A 
ATOM     32  C   UNL     1       5.720   3.346  15.025  0.00  0.00    +0.000 A 
ATOM     33  C   UNL     1       5.917   3.843  16.315  0.00  0.00    +0.000 A 
BRANCH  31  34
ATOM     34  C   UNL     1       6.185   3.372  12.524  0.00  0.00    +0.000 C 
ATOM     35  C   UNL     1       4.726   3.454  12.062  0.00  0.00    +0.000 C 
ATOM     36  C   UNL     1       7.095   4.059  11.502  0.00  0.00    +0.000 C 
ENDBRANCH  31  34
ENDBRANCH  27  28
ENDBRANCH  26  27
ENDBRANCH  25  26
ENDBRANCH  24  25
ENDBRANCH   8  20
TORSDOF 8
ENDMDL
MODEL 5
REMARK VINA RESULT:      -8.3      1.005      1.692
REMARK  Name = 
REMARK  11 active torsions:
REMARK  status: ('A' for Active; 'I' for Inactive)
REMARK    1  A    between atoms: C_1  and  C_2
REMARK    2  A    between atoms: C_2  and  C_3
REMARK    3  A    between atoms: C_6  and  N_7
REMARK    4  A    between atoms: C_14  and  C_15
REMARK    5  A    between atoms: N_19  and  C_20
REMARK    6  A    between atoms: C_20  and  C_21
REMARK    7  A    between atoms: C_21  and  O_22
REMARK    8  A    between atoms: O_22  and  C_23
REMARK    9  A    between atoms: C_26  and  C_27
REMARK   10  A    between atoms: C_27  and  C_28
REMARK   11  A    between atoms: C_27  and  C_29
REMARK                            x       y       z     vdW  Elec       q    Type
REMARK                         _______ _______ _______ _____ _____    ______ ____
ROOT
ATOM      1  N   UNL     1       0.973   9.629  19.890  0.00  0.00    +0.000 N 
ATOM      2  C   UNL     1       0.580   9.119  21.120  0.00  0.00    +0.000 C 
ATOM      3  O   UNL     1       0.074   9.765  22.039  0.00  0.00    +0.000 OA
ATOM      4  N   UNL     1       0.758   7.782  21.315  0.00  0.00    +0.000 N 
ATOM      5  C   UNL     1       1.463   6.916  20.541  0.00  0.00    +0.000 C 
ATOM      6  O   UNL     1       1.769   5.822  20.995  0.00  0.00    +0.000 OA
ATOM      7  C   UNL     1       1.849   7.440  19.210  0.00  0.00    +0.000 C 
ATOM      8  C   UNL     1       2.429   6.688  18.248  0.00  0.00    +0.000 C 
ATOM      9  C   UNL     1       1.584   8.876  18.883  0.00  0.00    +0.000 C 
ATOM     10  O   UNL     1       1.946   9.338  17.799  0.00  0.00    +0.000 OA
ATOM     11  H   UNL     1       0.506   7.440  22.232  0.00  0.00    +0.000 HD
ENDROOT
BRANCH   1  15
ATOM     12  C   UNL     1       0.339  13.754  19.100  0.00  0.00    +0.000 A 
ATOM     13  C   UNL     1      -0.626  12.804  18.741  0.00  0.00    +0.000 A 
ATOM     14  C   UNL     1      -0.412  11.447  18.996  0.00  0.00    +0.000 A 
ATOM     15  C   UNL     1       0.750  11.021  19.652  0.00  0.00    +0.000 A 
ATOM     16  C   UNL     1       1.697  11.973  20.047  0.00  0.00    +0.000 A 
ATOM     17  C   UNL     1       1.497  13.328  19.763  0.00  0.00    +0.000 A 
BRANCH  12  19
ATOM     18  C   UNL     1       1.275  16.080  19.277  0.00  0.00    +0.000 C 
ATOM     19  C   UNL     1       0.129  15.212  18.782  0.00  0.00    +0.000 C 
ENDBRANCH  12  19
ENDBRANCH   1  15
BRANCH   8  20
ATOM     20  C   UNL     1       2.620   5.289  18.362  0.00  0.00    +0.000 A 
ATOM     21  C   UNL     1       1.792   4.247  17.979  0.00  0.00    +0.000 A 
ATOM     22  C   UNL     1       2.362   3.044  18.430  0.00  0.00    +0.000 A 
ATOM     23  C   UNL     1       3.557   3.366  19.029  0.00  0.00    +0.000 A 
ATOM     24  N   UNL     1       3.743   4.732  18.953  0.00  0.00    +0.000 N 
BRANCH  24  25
ATOM     25  C   UNL     1       4.922   5.444  19.461  0.00  0.00    +0.000 C 
BRANCH  25  26
ATOM     26  C   UNL     1       5.954   5.747  18.372  0.00  0.00    +0.000 C 
BRANCH  26  27
ATOM     27  O   UNL     1       6.637   4.585  17.891  0.00  0.00    +0.000 OA
BRANCH  27  28
ATOM     28  C   UNL     1       6.559   4.446  16.522  0.00  0.00    +0.000 A 
ATOM     29  C   UNL     1       5.489   3.705  16.030  0.00  0.00    +0.000 A 
ATOM     30  C   UNL     1       5.333   3.510  14.650  0.00  0.00    +0.000 A 
ATOM     31  C   UNL     1       6.239   4.076  13.731  0.00  0.00    +0.000 A 
ATOM     32  C   UNL     1       7.304   4.825  14.238  0.00  0.00    +0.000 A 
ATOM     33  C   UNL     1       7.460   5.014  15.613  0.00  0.00    +0.000 A 
BRANCH  31  34
ATOM     34  C   UNL     1       6.030   3.905  12.237  0.00  0.00    +0.000 C 
ATOM     35  C   UNL     1       7.252   4.385  11.447  0.00  0.00    +0.000 C 
ATOM     36  C   UNL     1       5.694   2.462  11.851  0.00  0.00    +0.000 C 
ENDBRANCH  31  34
ENDBRANCH  27  28
ENDBRANCH  26  27
ENDBRANCH  25  26
ENDBRANCH  24  25
ENDBRANCH   8  20
TORSDOF 8
ENDMDL
MODEL 6
REMARK VINA RESULT:      -8.2      0.961      1.435
REMARK  Name = 
REMARK  11 active torsions:
REMARK  status: ('A' for Active; 'I' for Inactive)
REMARK    1  A    between atoms: C_1  and  C_2
REMARK    2  A    between atoms: C_2  and  C_3
REMARK    3  A    between atoms: C_6  and  N_7
REMARK    4  A    between atoms: C_14  and  C_15
REMARK    5  A    between atoms: N_19  and  C_20
REMARK    6  A    between atoms: C_20  and  C_21
REMARK    7  A    between atoms: C_21  and  O_22
REMARK    8  A    between atoms: O_22  and  C_23
REMARK    9  A    between atoms: C_26  and  C_27
REMARK   10  A    between atoms: C_27  and  C_28
REMARK   11  A    between atoms: C_27  and  C_29
REMARK                            x       y       z     vdW  Elec       q    Type
REMARK                         _______ _______ _______ _____ _____    ______ ____
ROOT
ATOM      1  N   UNL     1       1.022   9.203  19.964  0.00  0.00    +0.000 N 
ATOM      2  C   UNL     1       0.613   8.532  21.109  0.00  0.00    +0.000 C 
ATOM      3  O   UNL     1      -0.033   9.018  22.037  0.00  0.00    +0.000 OA
ATOM      4  N   UNL     1       0.948   7.213  21.199  0.00  0.00    +0.000 N 
ATOM      5  C   UNL     1       1.810   6.519  20.410  0.00  0.00    +0.000 C 
ATOM      6  O   UNL     1       2.221   5.430  20.789  0.00  0.00    +0.000 OA
ATOM      7  C   UNL     1       2.216   7.213  19.166  0.00  0.00    +0.000 C 
ATOM      8  C   UNL     1       2.953   6.635  18.191  0.00  0.00    +0.000 C 
ATOM      9  C   UNL     1       1.792   8.631  18.947  0.00  0.00    +0.000 C 
ATOM     10  O   UNL     1       2.166   9.238  17.940  0.00  0.00    +0.000 OA
ATOM     11  H   UNL     1       0.679   6.755  22.058  0.00  0.00    +0.000 HD
ENDROOT
BRANCH   1  15
ATOM     12  C   UNL     1      -0.155  13.272  19.653  0.00  0.00    +0.000 A 
ATOM     13  C   UNL     1       1.019  12.921  20.330  0.00  0.00    +0.000 A 
ATOM     14  C   UNL     1       1.401  11.582  20.437  0.00  0.00    +0.000 A 
ATOM     15  C   UNL     1       0.638  10.574  19.832  0.00  0.00    +0.000 A 
ATOM     16  C   UNL     1      -0.515  10.927  19.120  0.00  0.00    +0.000 A 
ATOM     17  C   UNL     1      -0.913  12.265  19.041  0.00  0.00    +0.000 A 
BRANCH  12  19
ATOM     18  C   UNL     1      -1.111  15.226  20.912  0.00  0.00    +0.000 C 
ATOM     19  C   UNL     1      -0.592  14.713  19.579  0.00  0.00    +0.000 C 
ENDBRANCH  12  19
ENDBRANCH   1  15
BRANCH   8  20
ATOM     20  C   UNL     1       3.312   5.265  18.197  0.00  0.00    +0.000 A 
ATOM     21  C   UNL     1       2.636   4.167  17.689  0.00  0.00    +0.000 A 
ATOM     22  C   UNL     1       3.336   3.008  18.064  0.00  0.00    +0.000 A 
ATOM     23  C   UNL     1       4.459   3.418  18.743  0.00  0.00    +0.000 A 
ATOM     24  N   UNL     1       4.475   4.798  18.791  0.00  0.00    +0.000 N 
BRANCH  24  25
ATOM     25  C   UNL     1       5.536   5.601  19.411  0.00  0.00    +0.000 C 
BRANCH  25  26
ATOM     26  C   UNL     1       6.727   5.841  18.480  0.00  0.00    +0.000 C 
BRANCH  26  27
ATOM     27  O   UNL     1       6.384   6.538  17.278  0.00  0.00    +0.000 OA
BRANCH  27  28
ATOM     28  C   UNL     1       6.294   5.707  16.183  0.00  0.00    +0.000 A 
ATOM     29  C   UNL     1       5.203   5.901  15.340  0.00  0.00    +0.000 A 
ATOM     30  C   UNL     1       5.030   5.098  14.203  0.00  0.00    +0.000 A 
ATOM     31  C   UNL     1       5.965   4.094  13.876  0.00  0.00    +0.000 A 
ATOM     32  C   UNL     1       7.060   3.916  14.726  0.00  0.00    +0.000 A 
ATOM     33  C   UNL     1       7.227   4.714  15.860  0.00  0.00    +0.000 A 
BRANCH  31  34
ATOM     34  C   UNL     1       5.798   3.268  12.614  0.00  0.00    +0.000 C 
ATOM     35  C   UNL     1       4.559   3.703  11.824  0.00  0.00    +0.000 C 
ATOM     36  C   UNL     1       7.035   3.315  11.712  0.00  0.00    +0.000 C 
ENDBRANCH  31  34
ENDBRANCH  27  28
ENDBRANCH  26  27
ENDBRANCH  25  26
ENDBRANCH  24  25
ENDBRANCH   8  20
TORSDOF 8
ENDMDL
MODEL 7
REMARK VINA RESULT:      -8.0      3.824      6.062
REMARK  Name = 
REMARK  11 active torsions:
REMARK  status: ('A' for Active; 'I' for Inactive)
REMARK    1  A    between atoms: C_1  and  C_2
REMARK    2  A    between atoms: C_2  and  C_3
REMARK    3  A    between atoms: C_6  and  N_7
REMARK    4  A    between atoms: C_14  and  C_15
REMARK    5  A    between atoms: N_19  and  C_20
REMARK    6  A    between atoms: C_20  and  C_21
REMARK    7  A    between atoms: C_21  and  O_22
REMARK    8  A    between atoms: O_22  and  C_23
REMARK    9  A    between atoms: C_26  and  C_27
REMARK   10  A    between atoms: C_27  and  C_28
REMARK   11  A    between atoms: C_27  and  C_29
REMARK                            x       y       z     vdW  Elec       q    Type
REMARK                         _______ _______ _______ _____ _____    ______ ____
ROOT
ATOM      1  N   UNL     1       1.720   8.469  19.283  0.00  0.00    +0.000 N 
ATOM      2  C   UNL     1       1.625   7.506  20.279  0.00  0.00    +0.000 C 
ATOM      3  O   UNL     1       0.896   7.564  21.269  0.00  0.00    +0.000 OA
ATOM      4  N   UNL     1       2.398   6.394  20.131  0.00  0.00    +0.000 N 
ATOM      5  C   UNL     1       3.407   6.195  19.243  0.00  0.00    +0.000 C 
ATOM      6  O   UNL     1       4.187   5.269  19.423  0.00  0.00    +0.000 OA
ATOM      7  C   UNL     1       3.488   7.196  18.154  0.00  0.00    +0.000 C 
ATOM      8  C   UNL     1       4.331   7.094  17.102  0.00  0.00    +0.000 C 
ATOM      9  C   UNL     1       2.590   8.392  18.191  0.00  0.00    +0.000 C 
ATOM     10  O   UNL     1       2.682   9.260  17.320  0.00  0.00    +0.000 OA
ATOM     11  H   UNL     1       2.346   5.725  20.888  0.00  0.00    +0.000 HD
ENDROOT
BRANCH   1  15
ATOM     12  C   UNL     1      -0.817  11.851  19.693  0.00  0.00    +0.000 A 
ATOM     13  C   UNL     1       0.314  11.708  20.505  0.00  0.00    +0.000 A 
ATOM     14  C   UNL     1       1.144  10.592  20.373  0.00  0.00    +0.000 A 
ATOM     15  C   UNL     1       0.880   9.621  19.399  0.00  0.00    +0.000 A 
ATOM     16  C   UNL     1      -0.229   9.782  18.559  0.00  0.00    +0.000 A 
ATOM     17  C   UNL     1      -1.077  10.884  18.713  0.00  0.00    +0.000 A 
BRANCH  12  19
ATOM     18  C   UNL     1      -3.110  12.621  20.379  0.00  0.00    +0.000 C 
ATOM     19  C   UNL     1      -1.739  13.031  19.868  0.00  0.00    +0.000 C 
ENDBRANCH  12  19
ENDBRANCH   1  15
BRANCH   8  20
ATOM     20  C   UNL     1       5.142   5.957  16.863  0.00  0.00    +0.000 A 
ATOM     21  C   UNL     1       4.899   4.844  16.075  0.00  0.00    +0.000 A 
ATOM     22  C   UNL     1       5.947   3.929  16.273  0.00  0.00    +0.000 A 
ATOM     23  C   UNL     1       6.842   4.522  17.132  0.00  0.00    +0.000 A 
ATOM     24  N   UNL     1       6.378   5.780  17.464  0.00  0.00    +0.000 N 
BRANCH  24  25
ATOM     25  C   UNL     1       7.081   6.725  18.339  0.00  0.00    +0.000 C 
BRANCH  25  26
ATOM     26  C   UNL     1       7.936   7.734  17.569  0.00  0.00    +0.000 C 
BRANCH  26  27
ATOM     27  O   UNL     1       7.380   9.052  17.538  0.00  0.00    +0.000 OA
BRANCH  27  28
ATOM     28  C   UNL     1       8.233  10.006  18.050  0.00  0.00    +0.000 A 
ATOM     29  C   UNL     1       8.089  11.300  17.558  0.00  0.00    +0.000 A 
ATOM     30  C   UNL     1       8.916  12.333  18.020  0.00  0.00    +0.000 A 
ATOM     31  C   UNL     1       9.894  12.093  19.007  0.00  0.00    +0.000 A 
ATOM     32  C   UNL     1      10.022  10.791  19.498  0.00  0.00    +0.000 A 
ATOM     33  C   UNL     1       9.199   9.763  19.033  0.00  0.00    +0.000 A 
BRANCH  31  34
ATOM     34  C   UNL     1      10.747  13.229  19.540  0.00  0.00    +0.000 C 
ATOM     35  C   UNL     1      10.378  13.569  20.989  0.00  0.00    +0.000 C 
ATOM     36  C   UNL     1      12.247  12.937  19.440  0.00  0.00    +0.000 C 
ENDBRANCH  31  34
ENDBRANCH  27  28
ENDBRANCH  26  27
ENDBRANCH  25  26
ENDBRANCH  24  25
ENDBRANCH   8  20
TORSDOF 8
ENDMDL
MODEL 8
REMARK VINA RESULT:      -7.9      3.880      6.064
REMARK  Name = 
REMARK  11 active torsions:
REMARK  status: ('A' for Active; 'I' for Inactive)
REMARK    1  A    between atoms: C_1  and  C_2
REMARK    2  A    between atoms: C_2  and  C_3
REMARK    3  A    between atoms: C_6  and  N_7
REMARK    4  A    between atoms: C_14  and  C_15
REMARK    5  A    between atoms: N_19  and  C_20
REMARK    6  A    between atoms: C_20  and  C_21
REMARK    7  A    between atoms: C_21  and  O_22
REMARK    8  A    between atoms: O_22  and  C_23
REMARK    9  A    between atoms: C_26  and  C_27
REMARK   10  A    between atoms: C_27  and  C_28
REMARK   11  A    between atoms: C_27  and  C_29
REMARK                            x       y       z     vdW  Elec       q    Type
REMARK                         _______ _______ _______ _____ _____    ______ ____
ROOT
ATOM      1  N   UNL     1       1.830   8.192  19.276  0.00  0.00    +0.000 N 
ATOM      2  C   UNL     1       1.791   7.182  20.228  0.00  0.00    +0.000 C 
ATOM      3  O   UNL     1       1.075   7.163  21.229  0.00  0.00    +0.000 OA
ATOM      4  N   UNL     1       2.608   6.111  20.019  0.00  0.00    +0.000 N 
ATOM      5  C   UNL     1       3.612   5.997  19.110  0.00  0.00    +0.000 C 
ATOM      6  O   UNL     1       4.433   5.098  19.237  0.00  0.00    +0.000 OA
ATOM      7  C   UNL     1       3.634   7.049  18.067  0.00  0.00    +0.000 C 
ATOM      8  C   UNL     1       4.464   7.030  17.001  0.00  0.00    +0.000 C 
ATOM      9  C   UNL     1       2.686   8.202  18.171  0.00  0.00    +0.000 C 
ATOM     10  O   UNL     1       2.728   9.112  17.339  0.00  0.00    +0.000 OA
ATOM     11  H   UNL     1       2.596   5.407  20.744  0.00  0.00    +0.000 HD
ENDROOT
BRANCH   1  15
ATOM     12  C   UNL     1      -0.749  11.532  19.756  0.00  0.00    +0.000 A 
ATOM     13  C   UNL     1      -0.884  10.682  18.651  0.00  0.00    +0.000 A 
ATOM     14  C   UNL     1      -0.031   9.588  18.492  0.00  0.00    +0.000 A 
ATOM     15  C   UNL     1       0.944   9.301  19.456  0.00  0.00    +0.000 A 
ATOM     16  C   UNL     1       1.055  10.127  20.581  0.00  0.00    +0.000 A 
ATOM     17  C   UNL     1       0.221  11.240  20.723  0.00  0.00    +0.000 A 
BRANCH  12  19
ATOM     18  C   UNL     1      -0.932  14.028  19.513  0.00  0.00    +0.000 C 
ATOM     19  C   UNL     1      -1.639  12.740  19.903  0.00  0.00    +0.000 C 
ENDBRANCH  12  19
ENDBRANCH   1  15
BRANCH   8  20
ATOM     20  C   UNL     1       5.319   5.942  16.699  0.00  0.00    +0.000 A 
ATOM     21  C   UNL     1       5.128   4.878  15.832  0.00  0.00    +0.000 A 
ATOM     22  C   UNL     1       6.205   3.988  15.986  0.00  0.00    +0.000 A 
ATOM     23  C   UNL     1       7.064   4.551  16.899  0.00  0.00    +0.000 A 
ATOM     24  N   UNL     1       6.552   5.767  17.307  0.00  0.00    +0.000 N 
BRANCH  24  25
ATOM     25  C   UNL     1       7.207   6.673  18.258  0.00  0.00    +0.000 C 
BRANCH  25  26
ATOM     26  C   UNL     1       8.024   7.771  17.573  0.00  0.00    +0.000 C 
BRANCH  26  27
ATOM     27  O   UNL     1       7.419   9.066  17.645  0.00  0.00    +0.000 OA
BRANCH  27  28
ATOM     28  C   UNL     1       8.290  10.041  18.077  0.00  0.00    +0.000 A 
ATOM     29  C   UNL     1       8.118  11.314  17.540  0.00  0.00    +0.000 A 
ATOM     30  C   UNL     1       8.961  12.368  17.921  0.00  0.00    +0.000 A 
ATOM     31  C   UNL     1       9.986  12.170  18.869  0.00  0.00    +0.000 A 
ATOM     32  C   UNL     1      10.142  10.889  19.406  0.00  0.00    +0.000 A 
ATOM     33  C   UNL     1       9.303   9.841  19.022  0.00  0.00    +0.000 A 
BRANCH  31  34
ATOM     34  C   UNL     1      10.858  13.329  19.315  0.00  0.00    +0.000 C 
ATOM     35  C   UNL     1      12.276  12.858  19.658  0.00  0.00    +0.000 C 
ATOM     36  C   UNL     1      10.920  14.453  18.277  0.00  0.00    +0.000 C 
ENDBRANCH  31  34
ENDBRANCH  27  28
ENDBRANCH  26  27
ENDBRANCH  25  26
ENDBRANCH  24  25
ENDBRANCH   8  20
TORSDOF 8
ENDMDL
MODEL 9
REMARK VINA RESULT:      -7.9      3.855      6.183
REMARK  Name = 
REMARK  11 active torsions:
REMARK  status: ('A' for Active; 'I' for Inactive)
REMARK    1  A    between atoms: C_1  and  C_2
REMARK    2  A    between atoms: C_2  and  C_3
REMARK    3  A    between atoms: C_6  and  N_7
REMARK    4  A    between atoms: C_14  and  C_15
REMARK    5  A    between atoms: N_19  and  C_20
REMARK    6  A    between atoms: C_20  and  C_21
REMARK    7  A    between atoms: C_21  and  O_22
REMARK    8  A    between atoms: O_22  and  C_23
REMARK    9  A    between atoms: C_26  and  C_27
REMARK   10  A    between atoms: C_27  and  C_28
REMARK   11  A    between atoms: C_27  and  C_29
REMARK                            x       y       z     vdW  Elec       q    Type
REMARK                         _______ _______ _______ _____ _____    ______ ____
ROOT
ATOM      1  N   UNL     1       1.857   8.176  19.254  0.00  0.00    +0.000 N 
ATOM      2  C   UNL     1       1.822   7.162  20.203  0.00  0.00    +0.000 C 
ATOM      3  O   UNL     1       1.106   7.138  21.205  0.00  0.00    +0.000 OA
ATOM      4  N   UNL     1       2.644   6.096  19.991  0.00  0.00    +0.000 N 
ATOM      5  C   UNL     1       3.648   5.988  19.082  0.00  0.00    +0.000 C 
ATOM      6  O   UNL     1       4.473   5.093  19.206  0.00  0.00    +0.000 OA
ATOM      7  C   UNL     1       3.665   7.044  18.042  0.00  0.00    +0.000 C 
ATOM      8  C   UNL     1       4.496   7.031  16.976  0.00  0.00    +0.000 C 
ATOM      9  C   UNL     1       2.713   8.192  18.149  0.00  0.00    +0.000 C 
ATOM     10  O   UNL     1       2.751   9.104  17.320  0.00  0.00    +0.000 OA
ATOM     11  H   UNL     1       2.635   5.390  20.715  0.00  0.00    +0.000 HD
ENDROOT
BRANCH   1  15
ATOM     12  C   UNL     1      -0.736  11.504  19.744  0.00  0.00    +0.000 A 
ATOM     13  C   UNL     1      -0.854  10.668  18.627  0.00  0.00    +0.000 A 
ATOM     14  C   UNL     1       0.003   9.578  18.464  0.00  0.00    +0.000 A 
ATOM     15  C   UNL     1       0.966   9.280  19.437  0.00  0.00    +0.000 A 
ATOM     16  C   UNL     1       1.060  10.091  20.574  0.00  0.00    +0.000 A 
ATOM     17  C   UNL     1       0.222  11.200  20.720  0.00  0.00    +0.000 A 
BRANCH  12  19
ATOM     18  C   UNL     1      -3.092  12.375  19.639  0.00  0.00    +0.000 C 
ATOM     19  C   UNL     1      -1.631  12.708  19.896  0.00  0.00    +0.000 C 
ENDBRANCH  12  19
ENDBRANCH   1  15
BRANCH   8  20
ATOM     20  C   UNL     1       5.355   5.948  16.671  0.00  0.00    +0.000 A 
ATOM     21  C   UNL     1       5.172   4.889  15.796  0.00  0.00    +0.000 A 
ATOM     22  C   UNL     1       6.251   4.001  15.949  0.00  0.00    +0.000 A 
ATOM     23  C   UNL     1       7.104   4.561  16.870  0.00  0.00    +0.000 A 
ATOM     24  N   UNL     1       6.586   5.772  17.284  0.00  0.00    +0.000 N 
BRANCH  24  25
ATOM     25  C   UNL     1       7.234   6.674  18.243  0.00  0.00    +0.000 C 
BRANCH  25  26
ATOM     26  C   UNL     1       8.042   7.786  17.569  0.00  0.00    +0.000 C 
BRANCH  26  27
ATOM     27  O   UNL     1       7.384   9.056  17.572  0.00  0.00    +0.000 OA
BRANCH  27  28
ATOM     28  C   UNL     1       8.181  10.071  18.055  0.00  0.00    +0.000 A 
ATOM     29  C   UNL     1       9.047   9.744  19.095  0.00  0.00    +0.000 A 
ATOM     30  C   UNL     1       9.893  10.715  19.649  0.00  0.00    +0.000 A 
ATOM     31  C   UNL     1       9.903  12.035  19.154  0.00  0.00    +0.000 A 
ATOM     32  C   UNL     1       9.035  12.348  18.104  0.00  0.00    +0.000 A 
ATOM     33  C   UNL     1       8.190  11.379  17.557  0.00  0.00    +0.000 A 
BRANCH  31  34
ATOM     34  C   UNL     1      10.861  13.065  19.724  0.00  0.00    +0.000 C 
ATOM     35  C   UNL     1      11.151  14.176  18.709  0.00  0.00    +0.000 C 
ATOM     36  C   UNL     1      10.357  13.676  21.035  0.00  0.00    +0.000 C 
ENDBRANCH  31  34
ENDBRANCH  27  28
ENDBRANCH  26  27
ENDBRANCH  25  26
ENDBRANCH  24  25
ENDBRANCH   8  20
TORSDOF 8
ENDMDL
