MODEL 1
REMARK VINA RESULT:      -8.3      0.000      0.000
REMARK  Name = 
REMARK  7 active torsions:
REMARK  status: ('A' for Active; 'I' for Inactive)
REMARK    1  A    between atoms: C_7  and  N_8
REMARK    2  A    between atoms: C_9  and  S_10
REMARK    3  A    between atoms: N_11  and  C_12
REMARK    4  A    between atoms: C_12  and  C_13
REMARK    5  A    between atoms: C_13  and  C_14
REMARK    6  A    between atoms: N_17  and  C_18
REMARK    7  A    between atoms: C_18  and  C_19
REMARK                            x       y       z     vdW  Elec       q    Type
REMARK                         _______ _______ _______ _____ _____    ______ ____
ROOT
ATOM      1  C   UNL     1       8.117   8.800  18.026  0.00  0.00    +0.000 C 
ENDROOT
BRANCH   1   4
ATOM      2  N   UNL     1       9.793  11.102  17.975  0.00  0.00    +0.000 NA
ATOM      3  C   UNL     1       9.459  10.526  19.090  0.00  0.00    +0.000 C 
ATOM      4  N   UNL     1       8.957   9.245  19.125  0.00  0.00    +0.000 N 
ATOM      5  H   UNL     1       8.598   9.009  20.043  0.00  0.00    +0.000 HD
BRANCH   2  12
ATOM      6  F   UNL     1       8.121  13.463  18.474  0.00  0.00    +0.000 F 
ATOM      7  C   UNL     1       9.369  13.577  17.997  0.00  0.00    +0.000 A 
ATOM      8  C   UNL     1       9.841  14.866  17.739  0.00  0.00    +0.000 A 
ATOM      9  C   UNL     1      11.163  15.059  17.346  0.00  0.00    +0.000 A 
ATOM     10  C   UNL     1      12.006  13.960  17.224  0.00  0.00    +0.000 A 
ATOM     11  C   UNL     1      11.507  12.669  17.437  0.00  0.00    +0.000 A 
ATOM     12  C   UNL     1      10.166  12.445  17.789  0.00  0.00    +0.000 A 
ENDBRANCH   2  12
BRANCH   3  13
ATOM     13  S   UNL     1       9.479  11.217  20.695  0.00  0.00    +0.000 S 
ATOM     14  H   UNL     1      10.816  11.273  20.791  0.00  0.00    +0.000 HD
ENDBRANCH   3  13
ENDBRANCH   1   4
BRANCH   1  15
ATOM     15  C   UNL     1       7.791   7.309  18.138  0.00  0.00    +0.000 C 
BRANCH  15  16
ATOM     16  C   UNL     1       6.875   6.829  16.988  0.00  0.00    +0.000 C 
ATOM     17  C   UNL     1       5.387   6.966  17.342  0.00  0.00    +0.000 C 
ATOM     18  C   UNL     1       4.945   5.952  18.401  0.00  0.00    +0.000 C 
ATOM     19  N   UNL     1       5.262   4.565  18.021  0.00  0.00    +0.000 NA
ATOM     20  C   UNL     1       6.678   4.392  17.664  0.00  0.00    +0.000 C 
ATOM     21  C   UNL     1       7.113   5.372  16.571  0.00  0.00    +0.000 C 
BRANCH  19  22
ATOM     22  C   UNL     1       4.929   3.625  19.111  0.00  0.00    +0.000 C 
BRANCH  22  23
ATOM     23  C   UNL     1       3.447   3.420  19.330  0.00  0.00    +0.000 A 
ATOM     24  C   UNL     1       2.880   3.593  20.601  0.00  0.00    +0.000 A 
ATOM     25  C   UNL     1       1.509   3.427  20.793  0.00  0.00    +0.000 A 
ATOM     26  C   UNL     1       0.689   3.093  19.716  0.00  0.00    +0.000 A 
ATOM     27  C   UNL     1       1.239   2.922  18.449  0.00  0.00    +0.000 A 
ATOM     28  C   UNL     1       2.613   3.078  18.255  0.00  0.00    +0.000 A 
ENDBRANCH  22  23
ENDBRANCH  19  22
ENDBRANCH  15  16
ENDBRANCH   1  15
TORSDOF 7
ENDMDL
MODEL 2
REMARK VINA RESULT:      -7.8      1.010      1.425
REMARK  Name = 
REMARK  7 active torsions:
REMARK  status: ('A' for Active; 'I' for Inactive)
REMARK    1  A    between atoms: C_7  and  N_8
REMARK    2  A    between atoms: C_9  and  S_10
REMARK    3  A    between atoms: N_11  and  C_12
REMARK    4  A    between atoms: C_12  and  C_13
REMARK    5  A    between atoms: C_13  and  C_14
REMARK    6  A    between atoms: N_17  and  C_18
REMARK    7  A    between atoms: C_18  and  C_19
REMARK                            x       y       z     vdW  Elec       q    Type
REMARK                         _______ _______ _______ _____ _____    ______ ____
ROOT
ATOM      1  C   UNL     1       7.968   8.756  17.581  0.00  0.00    +0.000 C 
ENDROOT
BRANCH   1   4
ATOM      2  N   UNL     1       9.816  10.897  17.918  0.00  0.00    +0.000 NA
ATOM      3  C   UNL     1       9.317  10.262  18.934  0.00  0.00    +0.000 C 
ATOM      4  N   UNL     1       8.714   9.031  18.797  0.00  0.00    +0.000 N 
ATOM      5  H   UNL     1       8.238   8.752  19.648  0.00  0.00    +0.000 HD
BRANCH   2  12
ATOM      6  F   UNL     1       8.224  13.363  17.939  0.00  0.00    +0.000 F 
ATOM      7  C   UNL     1       9.563  13.395  17.879  0.00  0.00    +0.000 A 
ATOM      8  C   UNL     1      10.172  14.651  17.818  0.00  0.00    +0.000 A 
ATOM      9  C   UNL     1      11.560  14.755  17.863  0.00  0.00    +0.000 A 
ATOM     10  C   UNL     1      12.328  13.602  17.978  0.00  0.00    +0.000 A 
ATOM     11  C   UNL     1      11.708  12.346  17.987  0.00  0.00    +0.000 A 
ATOM     12  C   UNL     1      10.313  12.212  17.897  0.00  0.00    +0.000 A 
ENDBRANCH   2  12
BRANCH   3  13
ATOM     13  S   UNL     1       9.213  10.811  20.590  0.00  0.00    +0.000 S 
ATOM     14  H   UNL     1      10.348  11.524  20.557  0.00  0.00    +0.000 HD
ENDBRANCH   3  13
ENDBRANCH   1   4
BRANCH   1  15
ATOM     15  C   UNL     1       6.908   7.677  17.808  0.00  0.00    +0.000 C 
BRANCH  15  16
ATOM     16  C   UNL     1       7.540   6.304  18.136  0.00  0.00    +0.000 C 
ATOM     17  C   UNL     1       7.414   5.318  16.965  0.00  0.00    +0.000 C 
ATOM     18  C   UNL     1       5.974   4.842  16.757  0.00  0.00    +0.000 C 
ATOM     19  N   UNL     1       5.386   4.272  17.980  0.00  0.00    +0.000 NA
ATOM     20  C   UNL     1       5.494   5.182  19.130  0.00  0.00    +0.000 C 
ATOM     21  C   UNL     1       6.940   5.623  19.372  0.00  0.00    +0.000 C 
BRANCH  19  22
ATOM     22  C   UNL     1       3.963   3.930  17.777  0.00  0.00    +0.000 C 
BRANCH  22  23
ATOM     23  C   UNL     1       3.163   3.793  19.054  0.00  0.00    +0.000 A 
ATOM     24  C   UNL     1       3.444   2.767  19.967  0.00  0.00    +0.000 A 
ATOM     25  C   UNL     1       2.721   2.660  21.155  0.00  0.00    +0.000 A 
ATOM     26  C   UNL     1       1.714   3.580  21.444  0.00  0.00    +0.000 A 
ATOM     27  C   UNL     1       1.429   4.604  20.547  0.00  0.00    +0.000 A 
ATOM     28  C   UNL     1       2.145   4.709  19.352  0.00  0.00    +0.000 A 
ENDBRANCH  22  23
ENDBRANCH  19  22
ENDBRANCH  15  16
ENDBRANCH   1  15
TORSDOF 7
ENDMDL
MODEL 3
REMARK VINA RESULT:      -7.8      0.966      1.265
REMARK  Name = 
REMARK  7 active torsions:
REMARK  status: ('A' for Active; 'I' for Inactive)
REMARK    1  A    between atoms: C_7  and  N_8
REMARK    2  A    between atoms: C_9  and  S_10
REMARK    3  A    between atoms: N_11  and  C_12
REMARK    4  A    between atoms: C_12  and  C_13
REMARK    5  A    between atoms: C_13  and  C_14
REMARK    6  A    between atoms: N_17  and  C_18
REMARK    7  A    between atoms: C_18  and  C_19
REMARK                            x       y       z     vdW  Elec       q    Type
REMARK                         _______ _______ _______ _____ _____    ______ ____
ROOT
ATOM      1  C   UNL     1       8.242   8.808  17.751  0.00  0.00    +0.000 C 
ENDROOT
BRANCH   1   4
ATOM      2  N   UNL     1       9.967  11.066  17.942  0.00  0.00    +0.000 NA
ATOM      3  C   UNL     1       9.489  10.483  18.999  0.00  0.00    +0.000 C 
ATOM      4  N   UNL     1       8.956   9.214  18.950  0.00  0.00    +0.000 N 
ATOM      5  H   UNL     1       8.484   8.974  19.815  0.00  0.00    +0.000 HD
BRANCH   2  12
ATOM      6  F   UNL     1       8.267  13.456  18.069  0.00  0.00    +0.000 F 
ATOM      7  C   UNL     1       9.588  13.547  17.857  0.00  0.00    +0.000 A 
ATOM      8  C   UNL     1      10.123  14.827  17.692  0.00  0.00    +0.000 A 
ATOM      9  C   UNL     1      11.501  14.997  17.577  0.00  0.00    +0.000 A 
ATOM     10  C   UNL     1      12.333  13.885  17.639  0.00  0.00    +0.000 A 
ATOM     11  C   UNL     1      11.781  12.603  17.755  0.00  0.00    +0.000 A 
ATOM     12  C   UNL     1      10.393  12.402  17.826  0.00  0.00    +0.000 A 
ENDBRANCH   2  12
BRANCH   3  13
ATOM     13  S   UNL     1       9.334  11.148  20.607  0.00  0.00    +0.000 S 
ATOM     14  H   UNL     1      10.644  11.097  20.891  0.00  0.00    +0.000 HD
ENDBRANCH   3  13
ENDBRANCH   1   4
BRANCH   1  15
ATOM     15  C   UNL     1       7.046   7.916  18.088  0.00  0.00    +0.000 C 
BRANCH  15  16
ATOM     16  C   UNL     1       7.393   6.413  17.962  0.00  0.00    +0.000 C 
ATOM     17  C   UNL     1       6.957   5.833  16.609  0.00  0.00    +0.000 C 
ATOM     18  C   UNL     1       5.435   5.709  16.491  0.00  0.00    +0.000 C 
ATOM     19  N   UNL     1       4.844   4.940  17.599  0.00  0.00    +0.000 NA
ATOM     20  C   UNL     1       5.245   5.457  18.916  0.00  0.00    +0.000 C 
ATOM     21  C   UNL     1       6.768   5.538  19.056  0.00  0.00    +0.000 C 
BRANCH  19  22
ATOM     22  C   UNL     1       3.369   4.937  17.518  0.00  0.00    +0.000 C 
BRANCH  22  23
ATOM     23  C   UNL     1       2.682   4.184  18.636  0.00  0.00    +0.000 A 
ATOM     24  C   UNL     1       1.821   4.848  19.521  0.00  0.00    +0.000 A 
ATOM     25  C   UNL     1       1.170   4.145  20.535  0.00  0.00    +0.000 A 
ATOM     26  C   UNL     1       1.369   2.772  20.670  0.00  0.00    +0.000 A 
ATOM     27  C   UNL     1       2.218   2.102  19.795  0.00  0.00    +0.000 A 
ATOM     28  C   UNL     1       2.879   2.804  18.785  0.00  0.00    +0.000 A 
ENDBRANCH  22  23
ENDBRANCH  19  22
ENDBRANCH  15  16
ENDBRANCH   1  15
TORSDOF 7
ENDMDL
MODEL 4
REMARK VINA RESULT:      -7.6      1.291      2.003
REMARK  Name = 
REMARK  7 active torsions:
REMARK  status: ('A' for Active; 'I' for Inactive)
REMARK    1  A    between atoms: C_7  and  N_8
REMARK    2  A    between atoms: C_9  and  S_10
REMARK    3  A    between atoms: N_11  and  C_12
REMARK    4  A    between atoms: C_12  and  C_13
REMARK    5  A    between atoms: C_13  and  C_14
REMARK    6  A    between atoms: N_17  and  C_18
REMARK    7  A    between atoms: C_18  and  C_19
REMARK                            x       y       z     vdW  Elec       q    Type
REMARK                         _______ _______ _______ _____ _____    ______ ____
ROOT
ATOM      1  C   UNL     1       8.355   8.686  17.706  0.00  0.00    +0.000 C 
ENDROOT
BRANCH   1   4
ATOM      2  N   UNL     1       9.731  11.167  17.957  0.00  0.00    +0.000 NA
ATOM      3  C   UNL     1       9.386  10.471  18.997  0.00  0.00    +0.000 C 
ATOM      4  N   UNL     1       9.045   9.140  18.901  0.00  0.00    +0.000 N 
ATOM      5  H   UNL     1       8.648   8.793  19.767  0.00  0.00    +0.000 HD
BRANCH   2  12
ATOM      6  F   UNL     1      12.272  12.510  17.360  0.00  0.00    +0.000 F 
ATOM      7  C   UNL     1      11.161  13.207  17.639  0.00  0.00    +0.000 A 
ATOM      8  C   UNL     1      11.262  14.600  17.642  0.00  0.00    +0.000 A 
ATOM      9  C   UNL     1      10.122  15.382  17.817  0.00  0.00    +0.000 A 
ATOM     10  C   UNL     1       8.888  14.762  17.979  0.00  0.00    +0.000 A 
ATOM     11  C   UNL     1       8.807  13.364  18.024  0.00  0.00    +0.000 A 
ATOM     12  C   UNL     1       9.948  12.555  17.895  0.00  0.00    +0.000 A 
ENDBRANCH   2  12
BRANCH   3  13
ATOM     13  S   UNL     1       9.195  11.032  20.641  0.00  0.00    +0.000 S 
ATOM     14  H   UNL     1       8.530   9.948  21.068  0.00  0.00    +0.000 HD
ENDBRANCH   3  13
ENDBRANCH   1   4
BRANCH   1  15
ATOM     15  C   UNL     1       7.062   7.947  18.055  0.00  0.00    +0.000 C 
BRANCH  15  16
ATOM     16  C   UNL     1       7.143   6.443  17.702  0.00  0.00    +0.000 C 
ATOM     17  C   UNL     1       6.408   6.118  16.393  0.00  0.00    +0.000 C 
ATOM     18  C   UNL     1       4.886   6.218  16.540  0.00  0.00    +0.000 C 
ATOM     19  N   UNL     1       4.370   5.391  17.643  0.00  0.00    +0.000 NA
ATOM     20  C   UNL     1       5.056   5.664  18.915  0.00  0.00    +0.000 C 
ATOM     21  C   UNL     1       6.575   5.519  18.786  0.00  0.00    +0.000 C 
BRANCH  19  22
ATOM     22  C   UNL     1       2.920   5.599  17.831  0.00  0.00    +0.000 C 
BRANCH  22  23
ATOM     23  C   UNL     1       2.231   4.518  18.633  0.00  0.00    +0.000 A 
ATOM     24  C   UNL     1       2.037   3.239  18.091  0.00  0.00    +0.000 A 
ATOM     25  C   UNL     1       1.423   2.237  18.843  0.00  0.00    +0.000 A 
ATOM     26  C   UNL     1       1.003   2.502  20.145  0.00  0.00    +0.000 A 
ATOM     27  C   UNL     1       1.193   3.766  20.695  0.00  0.00    +0.000 A 
ATOM     28  C   UNL     1       1.798   4.774  19.942  0.00  0.00    +0.000 A 
ENDBRANCH  22  23
ENDBRANCH  19  22
ENDBRANCH  15  16
ENDBRANCH   1  15
TORSDOF 7
ENDMDL
MODEL 5
REMARK VINA RESULT:      -7.5      1.441      2.109
REMARK  Name = 
REMARK  7 active torsions:
REMARK  status: ('A' for Active; 'I' for Inactive)
REMARK    1  A    between atoms: C_7  and  N_8
REMARK    2  A    between atoms: C_9  and  S_10
REMARK    3  A    between atoms: N_11  and  C_12
REMARK    4  A    between atoms: C_12  and  C_13
REMARK    5  A    between atoms: C_13  and  C_14
REMARK    6  A    between atoms: N_17  and  C_18
REMARK    7  A    between atoms: C_18  and  C_19
REMARK                            x       y       z     vdW  Elec       q    Type
REMARK                         _______ _______ _______ _____ _____    ______ ____
ROOT
ATOM      1  C   UNL     1       7.573   8.615  17.877  0.00  0.00    +0.000 C 
ENDROOT
BRANCH   1   4
ATOM      2  N   UNL     1       9.067  11.038  17.817  0.00  0.00    +0.000 NA
ATOM      3  C   UNL     1       9.082  10.254  18.852  0.00  0.00    +0.000 C 
ATOM      4  N   UNL     1       8.665   8.944  18.777  0.00  0.00    +0.000 N 
ATOM      5  H   UNL     1       8.586   8.524  19.697  0.00  0.00    +0.000 HD
BRANCH   2  12
ATOM      6  F   UNL     1      11.628  12.341  17.214  0.00  0.00    +0.000 F 
ATOM      7  C   UNL     1      10.538  13.054  17.536  0.00  0.00    +0.000 A 
ATOM      8  C   UNL     1      10.671  14.444  17.580  0.00  0.00    +0.000 A 
ATOM      9  C   UNL     1       9.554  15.245  17.801  0.00  0.00    +0.000 A 
ATOM     10  C   UNL     1       8.309  14.649  17.966  0.00  0.00    +0.000 A 
ATOM     11  C   UNL     1       8.196  13.253  17.969  0.00  0.00    +0.000 A 
ATOM     12  C   UNL     1       9.316  12.422  17.794  0.00  0.00    +0.000 A 
ENDBRANCH   2  12
BRANCH   3  13
ATOM     13  S   UNL     1       9.517  10.663  20.494  0.00  0.00    +0.000 S 
ATOM     14  H   UNL     1       8.447  11.440  20.718  0.00  0.00    +0.000 HD
ENDBRANCH   3  13
ENDBRANCH   1   4
BRANCH   1  15
ATOM     15  C   UNL     1       7.756   7.227  17.260  0.00  0.00    +0.000 C 
BRANCH  15  16
ATOM     16  C   UNL     1       7.708   6.108  18.327  0.00  0.00    +0.000 C 
ATOM     17  C   UNL     1       7.899   4.715  17.709  0.00  0.00    +0.000 C 
ATOM     18  C   UNL     1       6.687   4.272  16.885  0.00  0.00    +0.000 C 
ATOM     19  N   UNL     1       5.431   4.331  17.653  0.00  0.00    +0.000 NA
ATOM     20  C   UNL     1       5.214   5.648  18.271  0.00  0.00    +0.000 C 
ATOM     21  C   UNL     1       6.404   6.075  19.134  0.00  0.00    +0.000 C 
BRANCH  19  22
ATOM     22  C   UNL     1       4.270   4.010  16.799  0.00  0.00    +0.000 C 
BRANCH  22  23
ATOM     23  C   UNL     1       3.083   3.441  17.544  0.00  0.00    +0.000 A 
ATOM     24  C   UNL     1       1.893   4.174  17.659  0.00  0.00    +0.000 A 
ATOM     25  C   UNL     1       0.792   3.635  18.326  0.00  0.00    +0.000 A 
ATOM     26  C   UNL     1       0.868   2.358  18.878  0.00  0.00    +0.000 A 
ATOM     27  C   UNL     1       2.042   1.619  18.766  0.00  0.00    +0.000 A 
ATOM     28  C   UNL     1       3.149   2.160  18.108  0.00  0.00    +0.000 A 
ENDBRANCH  22  23
ENDBRANCH  19  22
ENDBRANCH  15  16
ENDBRANCH   1  15
TORSDOF 7
ENDMDL
MODEL 6
REMARK VINA RESULT:      -7.5      5.099      7.821
REMARK  Name = 
REMARK  7 active torsions:
REMARK  status: ('A' for Active; 'I' for Inactive)
REMARK    1  A    between atoms: C_7  and  N_8
REMARK    2  A    between atoms: C_9  and  S_10
REMARK    3  A    between atoms: N_11  and  C_12
REMARK    4  A    between atoms: C_12  and  C_13
REMARK    5  A    between atoms: C_13  and  C_14
REMARK    6  A    between atoms: N_17  and  C_18
REMARK    7  A    between atoms: C_18  and  C_19
REMARK                            x       y       z     vdW  Elec       q    Type
REMARK                         _______ _______ _______ _____ _____    ______ ____
ROOT
ATOM      1  C   UNL     1       2.089   6.630  19.948  0.00  0.00    +0.000 C 
ENDROOT
BRANCH   1   4
ATOM      2  N   UNL     1       1.183   9.307  19.596  0.00  0.00    +0.000 NA
ATOM      3  C   UNL     1       1.078   8.697  20.737  0.00  0.00    +0.000 C 
ATOM      4  N   UNL     1       1.806   7.563  21.025  0.00  0.00    +0.000 N 
ATOM      5  H   UNL     1       1.490   7.124  21.882  0.00  0.00    +0.000 HD
BRANCH   2  12
ATOM      6  F   UNL     1       1.838  12.165  19.733  0.00  0.00    +0.000 F 
ATOM      7  C   UNL     1       0.680  11.736  19.208  0.00  0.00    +0.000 A 
ATOM      8  C   UNL     1      -0.207  12.706  18.734  0.00  0.00    +0.000 A 
ATOM      9  C   UNL     1      -1.375  12.323  18.080  0.00  0.00    +0.000 A 
ATOM     10  C   UNL     1      -1.642  10.970  17.896  0.00  0.00    +0.000 A 
ATOM     11  C   UNL     1      -0.769  10.008  18.420  0.00  0.00    +0.000 A 
ATOM     12  C   UNL     1       0.392  10.369  19.123  0.00  0.00    +0.000 A 
ENDBRANCH   2  12
BRANCH   3  13
ATOM     13  S   UNL     1       0.002   9.082  22.058  0.00  0.00    +0.000 S 
ATOM     14  H   UNL     1       0.877   8.774  23.027  0.00  0.00    +0.000 HD
ENDBRANCH   3  13
ENDBRANCH   1   4
BRANCH   1  15
ATOM     15  C   UNL     1       2.651   5.312  20.484  0.00  0.00    +0.000 C 
BRANCH  15  16
ATOM     16  C   UNL     1       2.022   4.086  19.780  0.00  0.00    +0.000 C 
ATOM     17  C   UNL     1       2.949   2.863  19.816  0.00  0.00    +0.000 C 
ATOM     18  C   UNL     1       4.168   3.028  18.903  0.00  0.00    +0.000 C 
ATOM     19  N   UNL     1       3.794   3.353  17.517  0.00  0.00    +0.000 NA
ATOM     20  C   UNL     1       2.896   4.515  17.437  0.00  0.00    +0.000 C 
ATOM     21  C   UNL     1       1.653   4.335  18.312  0.00  0.00    +0.000 C 
BRANCH  19  22
ATOM     22  C   UNL     1       4.990   3.619  16.691  0.00  0.00    +0.000 C 
BRANCH  22  23
ATOM     23  C   UNL     1       5.820   4.796  17.152  0.00  0.00    +0.000 A 
ATOM     24  C   UNL     1       6.888   4.613  18.042  0.00  0.00    +0.000 A 
ATOM     25  C   UNL     1       7.667   5.698  18.446  0.00  0.00    +0.000 A 
ATOM     26  C   UNL     1       7.389   6.974  17.959  0.00  0.00    +0.000 A 
ATOM     27  C   UNL     1       6.334   7.167  17.072  0.00  0.00    +0.000 A 
ATOM     28  C   UNL     1       5.547   6.085  16.674  0.00  0.00    +0.000 A 
ENDBRANCH  22  23
ENDBRANCH  19  22
ENDBRANCH  15  16
ENDBRANCH   1  15
TORSDOF 7
ENDMDL
MODEL 7
REMARK VINA RESULT:      -7.4      5.345      7.794
REMARK  Name = 
REMARK  7 active torsions:
REMARK  status: ('A' for Active; 'I' for Inactive)
REMARK    1  A    between atoms: C_7  and  N_8
REMARK    2  A    between atoms: C_9  and  S_10
REMARK    3  A    between atoms: N_11  and  C_12
REMARK    4  A    between atoms: C_12  and  C_13
REMARK    5  A    between atoms: C_13  and  C_14
REMARK    6  A    between atoms: N_17  and  C_18
REMARK    7  A    between atoms: C_18  and  C_19
REMARK                            x       y       z     vdW  Elec       q    Type
REMARK                         _______ _______ _______ _____ _____    ______ ____
ROOT
ATOM      1  C   UNL     1       1.464   6.654  20.250  0.00  0.00    +0.000 C 
ENDROOT
BRANCH   1   4
ATOM      2  N   UNL     1       1.114   9.425  19.695  0.00  0.00    +0.000 NA
ATOM      3  C   UNL     1       1.061   8.961  20.906  0.00  0.00    +0.000 C 
ATOM      4  N   UNL     1       1.562   7.720  21.232  0.00  0.00    +0.000 N 
ATOM      5  H   UNL     1       1.297   7.445  22.171  0.00  0.00    +0.000 HD
BRANCH   2  12
ATOM      6  F   UNL     1      -1.683   9.719  18.855  0.00  0.00    +0.000 F 
ATOM      7  C   UNL     1      -0.817  10.740  18.775  0.00  0.00    +0.000 A 
ATOM      8  C   UNL     1      -1.298  11.950  18.268  0.00  0.00    +0.000 A 
ATOM      9  C   UNL     1      -0.480  13.077  18.261  0.00  0.00    +0.000 A 
ATOM     10  C   UNL     1       0.811  12.987  18.770  0.00  0.00    +0.000 A 
ATOM     11  C   UNL     1       1.298  11.757  19.229  0.00  0.00    +0.000 A 
ATOM     12  C   UNL     1       0.508  10.595  19.205  0.00  0.00    +0.000 A 
ENDBRANCH   2  12
BRANCH   3  13
ATOM     13  S   UNL     1       0.314   9.702  22.302  0.00  0.00    +0.000 S 
ATOM     14  H   UNL     1      -0.086  10.808  21.657  0.00  0.00    +0.000 HD
ENDBRANCH   3  13
ENDBRANCH   1   4
BRANCH   1  15
ATOM     15  C   UNL     1       2.512   5.567  20.497  0.00  0.00    +0.000 C 
BRANCH  15  16
ATOM     16  C   UNL     1       2.020   4.174  20.036  0.00  0.00    +0.000 C 
ATOM     17  C   UNL     1       3.119   3.108  20.157  0.00  0.00    +0.000 C 
ATOM     18  C   UNL     1       4.228   3.294  19.117  0.00  0.00    +0.000 C 
ATOM     19  N   UNL     1       3.708   3.349  17.741  0.00  0.00    +0.000 NA
ATOM     20  C   UNL     1       2.645   4.353  17.584  0.00  0.00    +0.000 C 
ATOM     21  C   UNL     1       1.510   4.143  18.590  0.00  0.00    +0.000 C 
BRANCH  19  22
ATOM     22  C   UNL     1       4.787   3.645  16.776  0.00  0.00    +0.000 C 
BRANCH  22  23
ATOM     23  C   UNL     1       5.680   4.800  17.169  0.00  0.00    +0.000 A 
ATOM     24  C   UNL     1       6.863   4.577  17.888  0.00  0.00    +0.000 A 
ATOM     25  C   UNL     1       7.697   5.643  18.227  0.00  0.00    +0.000 A 
ATOM     26  C   UNL     1       7.358   6.941  17.846  0.00  0.00    +0.000 A 
ATOM     27  C   UNL     1       6.189   7.174  17.129  0.00  0.00    +0.000 A 
ATOM     28  C   UNL     1       5.347   6.110  16.797  0.00  0.00    +0.000 A 
ENDBRANCH  22  23
ENDBRANCH  19  22
ENDBRANCH  15  16
ENDBRANCH   1  15
TORSDOF 7
ENDMDL
MODEL 8
REMARK VINA RESULT:      -7.2      6.022      7.911
REMARK  Name = 
REMARK  7 active torsions:
REMARK  status: ('A' for Active; 'I' for Inactive)
REMARK    1  A    between atoms: C_7  and  N_8
REMARK    2  A    between atoms: C_9  and  S_10
REMARK    3  A    between atoms: N_11  and  C_12
REMARK    4  A    between atoms: C_12  and  C_13
REMARK    5  A    between atoms: C_13  and  C_14
REMARK    6  A    between atoms: N_17  and  C_18
REMARK    7  A    between atoms: C_18  and  C_19
REMARK                            x       y       z     vdW  Elec       q    Type
REMARK                         _______ _______ _______ _____ _____    ______ ____
ROOT
ATOM      1  C   UNL     1       1.776   6.860  20.102  0.00  0.00    +0.000 C 
ENDROOT
BRANCH   1   4
ATOM      2  N   UNL     1       1.194   9.611  19.653  0.00  0.00    +0.000 NA
ATOM      3  C   UNL     1       1.087   9.075  20.831  0.00  0.00    +0.000 C 
ATOM      4  N   UNL     1       1.683   7.873  21.139  0.00  0.00    +0.000 N 
ATOM      5  H   UNL     1       1.369   7.520  22.037  0.00  0.00    +0.000 HD
BRANCH   2  12
ATOM      6  F   UNL     1      -1.583   9.706  18.707  0.00  0.00    +0.000 F 
ATOM      7  C   UNL     1      -0.800  10.795  18.688  0.00  0.00    +0.000 A 
ATOM      8  C   UNL     1      -1.356  11.976  18.193  0.00  0.00    +0.000 A 
ATOM      9  C   UNL     1      -0.632  13.165  18.248  0.00  0.00    +0.000 A 
ATOM     10  C   UNL     1       0.641  13.163  18.808  0.00  0.00    +0.000 A 
ATOM     11  C   UNL     1       1.207  11.962  19.255  0.00  0.00    +0.000 A 
ATOM     12  C   UNL     1       0.514  10.743  19.168  0.00  0.00    +0.000 A 
ENDBRANCH   2  12
BRANCH   3  13
ATOM     13  S   UNL     1       0.155   9.660  22.189  0.00  0.00    +0.000 S 
ATOM     14  H   UNL     1      -0.528   8.520  22.373  0.00  0.00    +0.000 HD
ENDBRANCH   3  13
ENDBRANCH   1   4
BRANCH   1  15
ATOM     15  C   UNL     1       1.730   5.449  20.691  0.00  0.00    +0.000 C 
BRANCH  15  16
ATOM     16  C   UNL     1       1.497   4.375  19.603  0.00  0.00    +0.000 C 
ATOM     17  C   UNL     1       2.330   3.110  19.854  0.00  0.00    +0.000 C 
ATOM     18  C   UNL     1       3.825   3.339  19.607  0.00  0.00    +0.000 C 
ATOM     19  N   UNL     1       4.098   3.882  18.266  0.00  0.00    +0.000 NA
ATOM     20  C   UNL     1       3.311   5.090  17.981  0.00  0.00    +0.000 C 
ATOM     21  C   UNL     1       1.811   4.854  18.180  0.00  0.00    +0.000 C 
BRANCH  19  22
ATOM     22  C   UNL     1       5.532   4.199  18.102  0.00  0.00    +0.000 C 
BRANCH  22  23
ATOM     23  C   UNL     1       5.979   4.353  16.666  0.00  0.00    +0.000 A 
ATOM     24  C   UNL     1       5.227   3.800  15.619  0.00  0.00    +0.000 A 
ATOM     25  C   UNL     1       5.629   3.966  14.294  0.00  0.00    +0.000 A 
ATOM     26  C   UNL     1       6.784   4.690  14.002  0.00  0.00    +0.000 A 
ATOM     27  C   UNL     1       7.537   5.246  15.032  0.00  0.00    +0.000 A 
ATOM     28  C   UNL     1       7.141   5.074  16.360  0.00  0.00    +0.000 A 
ENDBRANCH  22  23
ENDBRANCH  19  22
ENDBRANCH  15  16
ENDBRANCH   1  15
TORSDOF 7
ENDMDL
MODEL 9
REMARK VINA RESULT:      -7.2      5.781      7.956
REMARK  Name = 
REMARK  7 active torsions:
REMARK  status: ('A' for Active; 'I' for Inactive)
REMARK    1  A    between atoms: C_7  and  N_8
REMARK    2  A    between atoms: C_9  and  S_10
REMARK    3  A    between atoms: N_11  and  C_12
REMARK    4  A    between atoms: C_12  and  C_13
REMARK    5  A    between atoms: C_13  and  C_14
REMARK    6  A    between atoms: N_17  and  C_18
REMARK    7  A    between atoms: C_18  and  C_19
REMARK                            x       y       z     vdW  Elec       q    Type
REMARK                         _______ _______ _______ _____ _____    ______ ____
ROOT
ATOM      1  C   UNL     1       1.791   6.486  20.038  0.00  0.00    +0.000 C 
ENDROOT
BRANCH   1   4
ATOM      2  N   UNL     1       1.118   9.215  19.582  0.00  0.00    +0.000 NA
ATOM      3  C   UNL     1       1.166   8.716  20.780  0.00  0.00    +0.000 C 
ATOM      4  N   UNL     1       1.813   7.530  21.047  0.00  0.00    +0.000 N 
ATOM      5  H   UNL     1       1.619   7.203  21.987  0.00  0.00    +0.000 HD
BRANCH   2  12
ATOM      6  F   UNL     1       1.792  12.043  19.990  0.00  0.00    +0.000 F 
ATOM      7  C   UNL     1       0.664  11.675  19.364  0.00  0.00    +0.000 A 
ATOM      8  C   UNL     1      -0.184  12.692  18.919  0.00  0.00    +0.000 A 
ATOM      9  C   UNL     1      -1.314  12.380  18.168  0.00  0.00    +0.000 A 
ATOM     10  C   UNL     1      -1.583  11.051  17.860  0.00  0.00    +0.000 A 
ATOM     11  C   UNL     1      -0.753  10.037  18.354  0.00  0.00    +0.000 A 
ATOM     12  C   UNL     1       0.367  10.323  19.151  0.00  0.00    +0.000 A 
ENDBRANCH   2  12
BRANCH   3  13
ATOM     13  S   UNL     1       0.402   9.333  22.225  0.00  0.00    +0.000 S 
ATOM     14  H   UNL     1      -0.617   8.462  22.210  0.00  0.00    +0.000 HD
ENDBRANCH   3  13
ENDBRANCH   1   4
BRANCH   1  15
ATOM     15  C   UNL     1       1.604   5.104  20.667  0.00  0.00    +0.000 C 
BRANCH  15  16
ATOM     16  C   UNL     1       1.529   3.987  19.598  0.00  0.00    +0.000 C 
ATOM     17  C   UNL     1       2.501   2.837  19.898  0.00  0.00    +0.000 C 
ATOM     18  C   UNL     1       3.963   3.238  19.680  0.00  0.00    +0.000 C 
ATOM     19  N   UNL     1       4.204   3.783  18.334  0.00  0.00    +0.000 NA
ATOM     20  C   UNL     1       3.286   4.883  18.002  0.00  0.00    +0.000 C 
ATOM     21  C   UNL     1       1.821   4.472  18.172  0.00  0.00    +0.000 C 
BRANCH  19  22
ATOM     22  C   UNL     1       5.593   4.267  18.196  0.00  0.00    +0.000 C 
BRANCH  22  23
ATOM     23  C   UNL     1       6.067   4.411  16.767  0.00  0.00    +0.000 A 
ATOM     24  C   UNL     1       5.518   3.620  15.748  0.00  0.00    +0.000 A 
ATOM     25  C   UNL     1       5.941   3.773  14.427  0.00  0.00    +0.000 A 
ATOM     26  C   UNL     1       6.911   4.723  14.112  0.00  0.00    +0.000 A 
ATOM     27  C   UNL     1       7.461   5.517  15.115  0.00  0.00    +0.000 A 
ATOM     28  C   UNL     1       7.047   5.358  16.439  0.00  0.00    +0.000 A 
ENDBRANCH  22  23
ENDBRANCH  19  22
ENDBRANCH  15  16
ENDBRANCH   1  15
TORSDOF 7
ENDMDL
