MODEL 1
REMARK VINA RESULT:      -7.9      0.000      0.000
REMARK  Name = 
REMARK  4 active torsions:
REMARK  status: ('A' for Active; 'I' for Inactive)
REMARK    1  A    between atoms: O_1  and  C_2
REMARK    2  A    between atoms: C_8  and  O_9
REMARK    3  A    between atoms: C_10  and  O_11
REMARK    4  A    between atoms: C_17  and  O_18
REMARK                            x       y       z     vdW  Elec       q    Type
REMARK                         _______ _______ _______ _____ _____    ______ ____
ROOT
ATOM      1  C   UNL     1       1.091   2.712  20.329  0.00  0.00    +0.000 C 
ATOM      2  N   UNL     1       1.917   2.408  19.162  0.00  0.00    +0.000 NA
ATOM      3  C   UNL     1       2.792   3.520  18.777  0.00  0.00    +0.000 C 
ATOM      4  C   UNL     1       3.890   3.028  17.807  0.00  0.00    +0.000 C 
ATOM      5  C   UNL     1       4.761   4.218  17.351  0.00  0.00    +0.000 C 
ATOM      6  N   UNL     1       5.781   3.794  16.374  0.00  0.00    +0.000 NA
ATOM      7  C   UNL     1       6.634   4.941  16.055  0.00  0.00    +0.000 C 
ATOM      8  C   UNL     1       7.372   5.398  17.373  0.00  0.00    +0.000 C 
ATOM      9  N   UNL     1       6.399   5.955  18.322  0.00  0.00    +0.000 NA
ATOM     10  C   UNL     1       5.385   4.926  18.610  0.00  0.00    +0.000 C 
ATOM     11  C   UNL     1       4.246   5.468  19.486  0.00  0.00    +0.000 C 
ATOM     12  C   UNL     1       3.482   4.234  19.989  0.00  0.00    +0.000 C 
ATOM     13  N   UNL     1       2.591   4.563  21.115  0.00  0.00    +0.000 NA
ATOM     14  C   UNL     1       1.905   3.325  21.527  0.00  0.00    +0.000 C 
ATOM     15  H   UNL     1       1.366   2.045  18.393  0.00  0.00    +0.000 HD
ATOM     16  H   UNL     1       5.353   3.473  15.509  0.00  0.00    +0.000 HD
ATOM     17  H   UNL     1       5.957   6.771  17.907  0.00  0.00    +0.000 HD
ATOM     18  H   UNL     1       1.849   5.177  20.771  0.00  0.00    +0.000 HD
ENDROOT
BRANCH   1  19
ATOM     19  O   UNL     1       0.080   3.641  19.950  0.00  0.00    +0.000 OA
ATOM     20  H   UNL     1      -0.759   3.220  20.177  0.00  0.00    +0.000 HD
ENDBRANCH   1  19
BRANCH   7  21
ATOM     21  O   UNL     1       7.534   4.554  15.038  0.00  0.00    +0.000 OA
ATOM     22  H   UNL     1       8.175   5.279  14.940  0.00  0.00    +0.000 HD
ENDBRANCH   7  21
BRANCH   8  23
ATOM     23  O   UNL     1       8.046   4.284  17.941  0.00  0.00    +0.000 OA
ATOM     24  H   UNL     1       8.520   3.869  17.189  0.00  0.00    +0.000 HD
ENDBRANCH   8  23
BRANCH  14  25
ATOM     25  O   UNL     1       2.854   2.409  22.046  0.00  0.00    +0.000 OA
ATOM     26  H   UNL     1       3.500   2.314  21.327  0.00  0.00    +0.000 HD
ENDBRANCH  14  25
TORSDOF 4
ENDMDL
MODEL 2
REMARK VINA RESULT:      -7.6      1.453      6.111
REMARK  Name = 
REMARK  4 active torsions:
REMARK  status: ('A' for Active; 'I' for Inactive)
REMARK    1  A    between atoms: O_1  and  C_2
REMARK    2  A    between atoms: C_8  and  O_9
REMARK    3  A    between atoms: C_10  and  O_11
REMARK    4  A    between atoms: C_17  and  O_18
REMARK                            x       y       z     vdW  Elec       q    Type
REMARK                         _______ _______ _______ _____ _____    ______ ____
ROOT
ATOM      1  C   UNL     1       7.394   4.922  16.563  0.00  0.00    +0.000 C 
ATOM      2  N   UNL     1       6.987   4.250  17.796  0.00  0.00    +0.000 NA
ATOM      3  C   UNL     1       5.590   4.517  18.156  0.00  0.00    +0.000 C 
ATOM      4  C   UNL     1       5.109   3.506  19.222  0.00  0.00    +0.000 C 
ATOM      5  C   UNL     1       3.663   3.838  19.647  0.00  0.00    +0.000 C 
ATOM      6  N   UNL     1       3.194   2.931  20.710  0.00  0.00    +0.000 NA
ATOM      7  C   UNL     1       1.789   3.232  21.001  0.00  0.00    +0.000 C 
ATOM      8  C   UNL     1       0.938   2.951  19.701  0.00  0.00    +0.000 C 
ATOM      9  N   UNL     1       1.283   3.927  18.660  0.00  0.00    +0.000 NA
ATOM     10  C   UNL     1       2.726   3.825  18.382  0.00  0.00    +0.000 C 
ATOM     11  C   UNL     1       3.204   4.908  17.403  0.00  0.00    +0.000 C 
ATOM     12  C   UNL     1       4.601   4.468  16.941  0.00  0.00    +0.000 C 
ATOM     13  N   UNL     1       5.039   5.205  15.743  0.00  0.00    +0.000 NA
ATOM     14  C   UNL     1       6.381   4.716  15.377  0.00  0.00    +0.000 C 
ATOM     15  H   UNL     1       7.637   4.424  18.553  0.00  0.00    +0.000 HD
ATOM     16  H   UNL     1       3.724   3.061  21.568  0.00  0.00    +0.000 HD
ATOM     17  H   UNL     1       1.059   4.862  18.990  0.00  0.00    +0.000 HD
ATOM     18  H   UNL     1       5.173   6.185  15.999  0.00  0.00    +0.000 HD
ENDROOT
BRANCH   1  19
ATOM     19  O   UNL     1       7.514   6.318  16.815  0.00  0.00    +0.000 OA
ATOM     20  H   UNL     1       6.870   6.514  17.509  0.00  0.00    +0.000 HD
ENDBRANCH   1  19
BRANCH   7  21
ATOM     21  O   UNL     1       1.384   2.436  22.094  0.00  0.00    +0.000 OA
ATOM     22  H   UNL     1       1.608   2.932  22.901  0.00  0.00    +0.000 HD
ENDBRANCH   7  21
BRANCH   8  23
ATOM     23  O   UNL     1       1.193   1.627  19.253  0.00  0.00    +0.000 OA
ATOM     24  H   UNL     1       2.151   1.489  19.414  0.00  0.00    +0.000 HD
ENDBRANCH   8  23
BRANCH  14  25
ATOM     25  O   UNL     1       6.299   3.358  14.980  0.00  0.00    +0.000 OA
ATOM     26  H   UNL     1       7.197   3.019  15.129  0.00  0.00    +0.000 HD
ENDBRANCH  14  25
TORSDOF 4
ENDMDL
MODEL 3
REMARK VINA RESULT:      -7.3      1.713      2.323
REMARK  Name = 
REMARK  4 active torsions:
REMARK  status: ('A' for Active; 'I' for Inactive)
REMARK    1  A    between atoms: O_1  and  C_2
REMARK    2  A    between atoms: C_8  and  O_9
REMARK    3  A    between atoms: C_10  and  O_11
REMARK    4  A    between atoms: C_17  and  O_18
REMARK                            x       y       z     vdW  Elec       q    Type
REMARK                         _______ _______ _______ _____ _____    ______ ____
ROOT
ATOM      1  C   UNL     1       0.736   3.407  19.321  0.00  0.00    +0.000 C 
ATOM      2  N   UNL     1       1.366   4.530  18.628  0.00  0.00    +0.000 NA
ATOM      3  C   UNL     1       2.799   4.645  18.915  0.00  0.00    +0.000 C 
ATOM      4  C   UNL     1       3.478   5.582  17.889  0.00  0.00    +0.000 C 
ATOM      5  C   UNL     1       4.970   5.754  18.242  0.00  0.00    +0.000 C 
ATOM      6  N   UNL     1       5.635   6.693  17.320  0.00  0.00    +0.000 NA
ATOM      7  C   UNL     1       7.064   6.739  17.643  0.00  0.00    +0.000 C 
ATOM      8  C   UNL     1       7.676   5.303  17.412  0.00  0.00    +0.000 C 
ATOM      9  N   UNL     1       7.136   4.366  18.406  0.00  0.00    +0.000 NA
ATOM     10  C   UNL     1       5.669   4.344  18.280  0.00  0.00    +0.000 C 
ATOM     11  C   UNL     1       5.008   3.495  19.376  0.00  0.00    +0.000 C 
ATOM     12  C   UNL     1       3.558   3.274  18.917  0.00  0.00    +0.000 C 
ATOM     13  N   UNL     1       2.903   2.193  19.673  0.00  0.00    +0.000 NA
ATOM     14  C   UNL     1       1.526   2.056  19.165  0.00  0.00    +0.000 C 
ATOM     15  H   UNL     1       0.856   5.394  18.770  0.00  0.00    +0.000 HD
ATOM     16  H   UNL     1       5.263   7.634  17.418  0.00  0.00    +0.000 HD
ATOM     17  H   UNL     1       7.400   4.677  19.337  0.00  0.00    +0.000 HD
ATOM     18  H   UNL     1       2.801   2.496  20.644  0.00  0.00    +0.000 HD
ENDROOT
BRANCH   1  19
ATOM     19  O   UNL     1       0.639   3.715  20.707  0.00  0.00    +0.000 OA
ATOM     20  H   UNL     1       0.060   4.486  20.763  0.00  0.00    +0.000 HD
ENDBRANCH   1  19
BRANCH   7  21
ATOM     21  O   UNL     1       7.669   7.722  16.830  0.00  0.00    +0.000 OA
ATOM     22  H   UNL     1       8.496   7.336  16.492  0.00  0.00    +0.000 HD
ENDBRANCH   7  21
BRANCH   8  23
ATOM     23  O   UNL     1       7.369   4.870  16.095  0.00  0.00    +0.000 OA
ATOM     24  H   UNL     1       7.385   3.890  16.143  0.00  0.00    +0.000 HD
ENDBRANCH   8  23
BRANCH  14  25
ATOM     25  O   UNL     1       1.560   1.614  17.819  0.00  0.00    +0.000 OA
ATOM     26  H   UNL     1       0.623   1.475  17.598  0.00  0.00    +0.000 HD
ENDBRANCH  14  25
TORSDOF 4
ENDMDL
MODEL 4
REMARK VINA RESULT:      -7.2      1.610      6.081
REMARK  Name = 
REMARK  4 active torsions:
REMARK  status: ('A' for Active; 'I' for Inactive)
REMARK    1  A    between atoms: O_1  and  C_2
REMARK    2  A    between atoms: C_8  and  O_9
REMARK    3  A    between atoms: C_10  and  O_11
REMARK    4  A    between atoms: C_17  and  O_18
REMARK                            x       y       z     vdW  Elec       q    Type
REMARK                         _______ _______ _______ _____ _____    ______ ____
ROOT
ATOM      1  C   UNL     1       7.446   6.465  17.449  0.00  0.00    +0.000 C 
ATOM      2  N   UNL     1       6.753   5.967  18.635  0.00  0.00    +0.000 NA
ATOM      3  C   UNL     1       5.344   5.647  18.380  0.00  0.00    +0.000 C 
ATOM      4  C   UNL     1       4.773   4.786  19.530  0.00  0.00    +0.000 C 
ATOM      5  C   UNL     1       3.273   4.514  19.289  0.00  0.00    +0.000 C 
ATOM      6  N   UNL     1       2.680   3.748  20.400  0.00  0.00    +0.000 NA
ATOM      7  C   UNL     1       1.287   3.439  20.069  0.00  0.00    +0.000 C 
ATOM      8  C   UNL     1       1.269   2.531  18.779  0.00  0.00    +0.000 C 
ATOM      9  N   UNL     1       1.727   3.305  17.618  0.00  0.00    +0.000 NA
ATOM     10  C   UNL     1       3.084   3.807  17.895  0.00  0.00    +0.000 C 
ATOM     11  C   UNL     1       3.589   4.747  16.792  0.00  0.00    +0.000 C 
ATOM     12  C   UNL     1       5.100   4.895  17.027  0.00  0.00    +0.000 C 
ATOM     13  N   UNL     1       5.782   5.471  15.855  0.00  0.00    +0.000 NA
ATOM     14  C   UNL     1       7.218   5.573  16.173  0.00  0.00    +0.000 C 
ATOM     15  H   UNL     1       6.888   6.575  19.435  0.00  0.00    +0.000 HD
ATOM     16  H   UNL     1       2.683   4.286  21.263  0.00  0.00    +0.000 HD
ATOM     17  H   UNL     1       1.093   4.085  17.466  0.00  0.00    +0.000 HD
ATOM     18  H   UNL     1       5.465   6.436  15.740  0.00  0.00    +0.000 HD
ENDROOT
BRANCH   1  19
ATOM     19  O   UNL     1       6.988   7.782  17.164  0.00  0.00    +0.000 OA
ATOM     20  H   UNL     1       7.078   7.889  16.208  0.00  0.00    +0.000 HD
ENDBRANCH   1  19
BRANCH   7  21
ATOM     21  O   UNL     1       0.698   2.804  21.184  0.00  0.00    +0.000 OA
ATOM     22  H   UNL     1      -0.125   3.285  21.379  0.00  0.00    +0.000 HD
ENDBRANCH   7  21
BRANCH   8  23
ATOM     23  O   UNL     1       2.105   1.401  18.990  0.00  0.00    +0.000 OA
ATOM     24  H   UNL     1       1.669   0.901  19.713  0.00  0.00    +0.000 HD
ENDBRANCH   8  23
BRANCH  14  25
ATOM     25  O   UNL     1       7.762   4.274  16.331  0.00  0.00    +0.000 OA
ATOM     26  H   UNL     1       7.481   3.807  15.526  0.00  0.00    +0.000 HD
ENDBRANCH  14  25
TORSDOF 4
ENDMDL
MODEL 5
REMARK VINA RESULT:      -7.2      1.083      2.640
REMARK  Name = 
REMARK  4 active torsions:
REMARK  status: ('A' for Active; 'I' for Inactive)
REMARK    1  A    between atoms: O_1  and  C_2
REMARK    2  A    between atoms: C_8  and  O_9
REMARK    3  A    between atoms: C_10  and  O_11
REMARK    4  A    between atoms: C_17  and  O_18
REMARK                            x       y       z     vdW  Elec       q    Type
REMARK                         _______ _______ _______ _____ _____    ______ ____
ROOT
ATOM      1  C   UNL     1       1.497   3.365  21.041  0.00  0.00    +0.000 C 
ATOM      2  N   UNL     1       2.305   4.539  20.717  0.00  0.00    +0.000 NA
ATOM      3  C   UNL     1       3.474   4.216  19.892  0.00  0.00    +0.000 C 
ATOM      4  C   UNL     1       4.065   5.503  19.272  0.00  0.00    +0.000 C 
ATOM      5  C   UNL     1       5.335   5.162  18.465  0.00  0.00    +0.000 C 
ATOM      6  N   UNL     1       5.961   6.377  17.911  0.00  0.00    +0.000 NA
ATOM      7  C   UNL     1       7.100   5.982  17.078  0.00  0.00    +0.000 C 
ATOM      8  C   UNL     1       6.563   5.111  15.876  0.00  0.00    +0.000 C 
ATOM      9  N   UNL     1       6.053   3.829  16.378  0.00  0.00    +0.000 NA
ATOM     10  C   UNL     1       4.985   4.101  17.356  0.00  0.00    +0.000 C 
ATOM     11  C   UNL     1       4.488   2.819  18.040  0.00  0.00    +0.000 C 
ATOM     12  C   UNL     1       3.174   3.199  18.738  0.00  0.00    +0.000 C 
ATOM     13  N   UNL     1       2.400   2.010  19.132  0.00  0.00    +0.000 NA
ATOM     14  C   UNL     1       1.164   2.472  19.789  0.00  0.00    +0.000 C 
ATOM     15  H   UNL     1       2.534   5.079  21.544  0.00  0.00    +0.000 HD
ATOM     16  H   UNL     1       6.310   6.982  18.649  0.00  0.00    +0.000 HD
ATOM     17  H   UNL     1       6.811   3.320  16.825  0.00  0.00    +0.000 HD
ATOM     18  H   UNL     1       2.919   1.514  19.860  0.00  0.00    +0.000 HD
ENDROOT
BRANCH   1  19
ATOM     19  O   UNL     1       2.199   2.567  21.989  0.00  0.00    +0.000 OA
ATOM     20  H   UNL     1       2.255   1.686  21.597  0.00  0.00    +0.000 HD
ENDBRANCH   1  19
BRANCH   7  21
ATOM     21  O   UNL     1       7.758   7.154  16.644  0.00  0.00    +0.000 OA
ATOM     22  H   UNL     1       8.669   6.897  16.418  0.00  0.00    +0.000 HD
ENDBRANCH   7  21
BRANCH   8  23
ATOM     23  O   UNL     1       5.540   5.829  15.200  0.00  0.00    +0.000 OA
ATOM     24  H   UNL     1       5.879   5.946  14.286  0.00  0.00    +0.000 HD
ENDBRANCH   8  23
BRANCH  14  25
ATOM     25  O   UNL     1       0.356   3.158  18.849  0.00  0.00    +0.000 OA
ATOM     26  H   UNL     1      -0.339   2.515  18.628  0.00  0.00    +0.000 HD
ENDBRANCH  14  25
TORSDOF 4
ENDMDL
MODEL 6
REMARK VINA RESULT:      -6.7      1.192      5.938
REMARK  Name = 
REMARK  4 active torsions:
REMARK  status: ('A' for Active; 'I' for Inactive)
REMARK    1  A    between atoms: O_1  and  C_2
REMARK    2  A    between atoms: C_8  and  O_9
REMARK    3  A    between atoms: C_10  and  O_11
REMARK    4  A    between atoms: C_17  and  O_18
REMARK                            x       y       z     vdW  Elec       q    Type
REMARK                         _______ _______ _______ _____ _____    ______ ____
ROOT
ATOM      1  C   UNL     1       6.750   4.461  15.873  0.00  0.00    +0.000 C 
ATOM      2  N   UNL     1       5.894   3.468  16.520  0.00  0.00    +0.000 NA
ATOM      3  C   UNL     1       5.409   3.903  17.834  0.00  0.00    +0.000 C 
ATOM      4  C   UNL     1       4.233   3.010  18.293  0.00  0.00    +0.000 C 
ATOM      5  C   UNL     1       3.776   3.429  19.706  0.00  0.00    +0.000 C 
ATOM      6  N   UNL     1       2.696   2.556  20.202  0.00  0.00    +0.000 NA
ATOM      7  C   UNL     1       2.240   3.061  21.500  0.00  0.00    +0.000 C 
ATOM      8  C   UNL     1       1.649   4.510  21.294  0.00  0.00    +0.000 C 
ATOM      9  N   UNL     1       2.726   5.440  20.929  0.00  0.00    +0.000 NA
ATOM     10  C   UNL     1       3.372   4.950  19.700  0.00  0.00    +0.000 C 
ATOM     11  C   UNL     1       4.604   5.786  19.322  0.00  0.00    +0.000 C 
ATOM     12  C   UNL     1       4.945   5.399  17.875  0.00  0.00    +0.000 C 
ATOM     13  N   UNL     1       5.870   6.362  17.254  0.00  0.00    +0.000 NA
ATOM     14  C   UNL     1       6.137   5.910  15.876  0.00  0.00    +0.000 C 
ATOM     15  H   UNL     1       6.325   2.550  16.533  0.00  0.00    +0.000 HD
ATOM     16  H   UNL     1       3.023   1.603  20.336  0.00  0.00    +0.000 HD
ATOM     17  H   UNL     1       3.404   5.479  21.686  0.00  0.00    +0.000 HD
ATOM     18  H   UNL     1       6.770   6.300  17.735  0.00  0.00    +0.000 HD
ENDROOT
BRANCH   1  19
ATOM     19  O   UNL     1       8.003   4.501  16.547  0.00  0.00    +0.000 OA
ATOM     20  H   UNL     1       8.671   4.576  15.853  0.00  0.00    +0.000 HD
ENDBRANCH   1  19
BRANCH   7  21
ATOM     21  O   UNL     1       1.286   2.158  22.015  0.00  0.00    +0.000 OA
ATOM     22  H   UNL     1       0.462   2.306  21.520  0.00  0.00    +0.000 HD
ENDBRANCH   7  21
BRANCH   8  23
ATOM     23  O   UNL     1       0.656   4.470  20.278  0.00  0.00    +0.000 OA
ATOM     24  H   UNL     1       0.769   5.311  19.785  0.00  0.00    +0.000 HD
ENDBRANCH   8  23
BRANCH  14  25
ATOM     25  O   UNL     1       4.944   5.982  15.115  0.00  0.00    +0.000 OA
ATOM     26  H   UNL     1       5.109   5.382  14.368  0.00  0.00    +0.000 HD
ENDBRANCH  14  25
TORSDOF 4
ENDMDL
MODEL 7
REMARK VINA RESULT:      -6.6      1.375      5.891
REMARK  Name = 
REMARK  4 active torsions:
REMARK  status: ('A' for Active; 'I' for Inactive)
REMARK    1  A    between atoms: O_1  and  C_2
REMARK    2  A    between atoms: C_8  and  O_9
REMARK    3  A    between atoms: C_10  and  O_11
REMARK    4  A    between atoms: C_17  and  O_18
REMARK                            x       y       z     vdW  Elec       q    Type
REMARK                         _______ _______ _______ _____ _____    ______ ____
ROOT
ATOM      1  C   UNL     1       6.923   5.585  15.748  0.00  0.00    +0.000 C 
ATOM      2  N   UNL     1       5.548   5.100  15.639  0.00  0.00    +0.000 NA
ATOM      3  C   UNL     1       5.101   4.380  16.835  0.00  0.00    +0.000 C 
ATOM      4  C   UNL     1       3.562   4.229  16.826  0.00  0.00    +0.000 C 
ATOM      5  C   UNL     1       3.108   3.408  18.051  0.00  0.00    +0.000 C 
ATOM      6  N   UNL     1       1.649   3.190  18.040  0.00  0.00    +0.000 NA
ATOM      7  C   UNL     1       1.267   2.493  19.271  0.00  0.00    +0.000 C 
ATOM      8  C   UNL     1       1.619   3.419  20.500  0.00  0.00    +0.000 C 
ATOM      9  N   UNL     1       3.077   3.549  20.625  0.00  0.00    +0.000 NA
ATOM     10  C   UNL     1       3.606   4.109  19.369  0.00  0.00    +0.000 C 
ATOM     11  C   UNL     1       5.141   4.149  19.356  0.00  0.00    +0.000 C 
ATOM     12  C   UNL     1       5.527   5.060  18.182  0.00  0.00    +0.000 C 
ATOM     13  N   UNL     1       6.936   5.482  18.255  0.00  0.00    +0.000 NA
ATOM     14  C   UNL     1       7.210   6.348  17.094  0.00  0.00    +0.000 C 
ATOM     15  H   UNL     1       5.397   4.585  14.779  0.00  0.00    +0.000 HD
ATOM     16  H   UNL     1       1.368   2.610  17.254  0.00  0.00    +0.000 HD
ATOM     17  H   UNL     1       3.481   2.632  20.793  0.00  0.00    +0.000 HD
ATOM     18  H   UNL     1       7.526   4.658  18.119  0.00  0.00    +0.000 HD
ENDROOT
BRANCH   1  19
ATOM     19  O   UNL     1       7.812   4.477  15.660  0.00  0.00    +0.000 OA
ATOM     20  H   UNL     1       8.684   4.822  15.897  0.00  0.00    +0.000 HD
ENDBRANCH   1  19
BRANCH   7  21
ATOM     21  O   UNL     1      -0.110   2.191  19.199  0.00  0.00    +0.000 OA
ATOM     22  H   UNL     1      -0.180   1.234  19.040  0.00  0.00    +0.000 HD
ENDBRANCH   7  21
BRANCH   8  23
ATOM     23  O   UNL     1       1.016   4.692  20.314  0.00  0.00    +0.000 OA
ATOM     24  H   UNL     1       1.047   4.843  19.345  0.00  0.00    +0.000 HD
ENDBRANCH   8  23
BRANCH  14  25
ATOM     25  O   UNL     1       6.450   7.538  17.201  0.00  0.00    +0.000 OA
ATOM     26  H   UNL     1       5.942   7.415  18.020  0.00  0.00    +0.000 HD
ENDBRANCH  14  25
TORSDOF 4
ENDMDL
MODEL 8
REMARK VINA RESULT:      -6.4      1.596      5.877
REMARK  Name = 
REMARK  4 active torsions:
REMARK  status: ('A' for Active; 'I' for Inactive)
REMARK    1  A    between atoms: O_1  and  C_2
REMARK    2  A    between atoms: C_8  and  O_9
REMARK    3  A    between atoms: C_10  and  O_11
REMARK    4  A    between atoms: C_17  and  O_18
REMARK                            x       y       z     vdW  Elec       q    Type
REMARK                         _______ _______ _______ _____ _____    ______ ____
ROOT
ATOM      1  C   UNL     1       7.107   6.695  17.227  0.00  0.00    +0.000 C 
ATOM      2  N   UNL     1       5.672   6.791  17.486  0.00  0.00    +0.000 NA
ATOM      3  C   UNL     1       5.037   5.481  17.666  0.00  0.00    +0.000 C 
ATOM      4  C   UNL     1       3.637   5.646  18.302  0.00  0.00    +0.000 C 
ATOM      5  C   UNL     1       2.948   4.271  18.421  0.00  0.00    +0.000 C 
ATOM      6  N   UNL     1       1.584   4.399  18.967  0.00  0.00    +0.000 NA
ATOM      7  C   UNL     1       1.021   3.058  19.147  0.00  0.00    +0.000 C 
ATOM      8  C   UNL     1       1.903   2.282  20.201  0.00  0.00    +0.000 C 
ATOM      9  N   UNL     1       3.233   2.016  19.637  0.00  0.00    +0.000 NA
ATOM     10  C   UNL     1       3.852   3.301  19.270  0.00  0.00    +0.000 C 
ATOM     11  C   UNL     1       5.190   3.110  18.541  0.00  0.00    +0.000 C 
ATOM     12  C   UNL     1       5.870   4.487  18.546  0.00  0.00    +0.000 C 
ATOM     13  N   UNL     1       7.300   4.394  18.207  0.00  0.00    +0.000 NA
ATOM     14  C   UNL     1       7.863   5.756  18.238  0.00  0.00    +0.000 C 
ATOM     15  H   UNL     1       5.203   7.374  16.803  0.00  0.00    +0.000 HD
ATOM     16  H   UNL     1       0.977   4.908  18.329  0.00  0.00    +0.000 HD
ATOM     17  H   UNL     1       3.135   1.429  18.813  0.00  0.00    +0.000 HD
ATOM     18  H   UNL     1       7.381   4.093  17.233  0.00  0.00    +0.000 HD
ENDROOT
BRANCH   1  19
ATOM     19  O   UNL     1       7.306   6.192  15.910  0.00  0.00    +0.000 OA
ATOM     20  H   UNL     1       8.236   6.357  15.706  0.00  0.00    +0.000 HD
ENDBRANCH   1  19
BRANCH   7  21
ATOM     21  O   UNL     1      -0.322   3.195  19.562  0.00  0.00    +0.000 OA
ATOM     22  H   UNL     1      -0.491   4.149  19.656  0.00  0.00    +0.000 HD
ENDBRANCH   7  21
BRANCH   8  23
ATOM     23  O   UNL     1       2.006   3.059  21.386  0.00  0.00    +0.000 OA
ATOM     24  H   UNL     1       2.831   3.577  21.273  0.00  0.00    +0.000 HD
ENDBRANCH   8  23
BRANCH  14  25
ATOM     25  O   UNL     1       7.817   6.258  19.562  0.00  0.00    +0.000 OA
ATOM     26  H   UNL     1       6.867   6.290  19.764  0.00  0.00    +0.000 HD
ENDBRANCH  14  25
TORSDOF 4
ENDMDL
MODEL 9
REMARK VINA RESULT:      -6.3      2.105      2.707
REMARK  Name = 
REMARK  4 active torsions:
REMARK  status: ('A' for Active; 'I' for Inactive)
REMARK    1  A    between atoms: O_1  and  C_2
REMARK    2  A    between atoms: C_8  and  O_9
REMARK    3  A    between atoms: C_10  and  O_11
REMARK    4  A    between atoms: C_17  and  O_18
REMARK                            x       y       z     vdW  Elec       q    Type
REMARK                         _______ _______ _______ _____ _____    ______ ____
ROOT
ATOM      1  C   UNL     1       1.450   6.848  20.253  0.00  0.00    +0.000 C 
ATOM      2  N   UNL     1       2.014   7.068  18.922  0.00  0.00    +0.000 NA
ATOM      3  C   UNL     1       3.398   6.597  18.804  0.00  0.00    +0.000 C 
ATOM      4  C   UNL     1       3.806   6.501  17.316  0.00  0.00    +0.000 C 
ATOM      5  C   UNL     1       5.285   6.074  17.203  0.00  0.00    +0.000 C 
ATOM      6  N   UNL     1       5.726   6.034  15.797  0.00  0.00    +0.000 NA
ATOM      7  C   UNL     1       7.101   5.530  15.749  0.00  0.00    +0.000 C 
ATOM      8  C   UNL     1       7.115   4.056  16.313  0.00  0.00    +0.000 C 
ATOM      9  N   UNL     1       6.811   4.069  17.750  0.00  0.00    +0.000 NA
ATOM     10  C   UNL     1       5.494   4.701  17.944  0.00  0.00    +0.000 C 
ATOM     11  C   UNL     1       5.156   4.886  19.431  0.00  0.00    +0.000 C 
ATOM     12  C   UNL     1       3.655   5.207  19.482  0.00  0.00    +0.000 C 
ATOM     13  N   UNL     1       3.109   5.060  20.842  0.00  0.00    +0.000 NA
ATOM     14  C   UNL     1       1.672   5.387  20.791  0.00  0.00    +0.000 C 
ATOM     15  H   UNL     1       1.887   8.024  18.612  0.00  0.00    +0.000 HD
ATOM     16  H   UNL     1       5.720   6.962  15.381  0.00  0.00    +0.000 HD
ATOM     17  H   UNL     1       7.526   4.602  18.237  0.00  0.00    +0.000 HD
ATOM     18  H   UNL     1       3.526   5.781  21.436  0.00  0.00    +0.000 HD
ENDROOT
BRANCH   1  19
ATOM     19  O   UNL     1       2.052   7.760  21.166  0.00  0.00    +0.000 OA
ATOM     20  H   UNL     1       2.238   7.246  21.963  0.00  0.00    +0.000 HD
ENDBRANCH   1  19
BRANCH   7  21
ATOM     21  O   UNL     1       7.552   5.601  14.413  0.00  0.00    +0.000 OA
ATOM     22  H   UNL     1       8.407   5.137  14.379  0.00  0.00    +0.000 HD
ENDBRANCH   7  21
BRANCH   8  23
ATOM     23  O   UNL     1       6.160   3.277  15.605  0.00  0.00    +0.000 OA
ATOM     24  H   UNL     1       6.601   3.052  14.758  0.00  0.00    +0.000 HD
ENDBRANCH   8  23
BRANCH  14  25
ATOM     25  O   UNL     1       0.996   4.424  20.002  0.00  0.00    +0.000 OA
ATOM     26  H   UNL     1       0.098   4.787  19.914  0.00  0.00    +0.000 HD
ENDBRANCH  14  25
TORSDOF 4
ENDMDL
