MODEL 1
REMARK VINA RESULT:      -8.2      0.000      0.000
REMARK  Name = 
REMARK  4 active torsions:
REMARK  status: ('A' for Active; 'I' for Inactive)
REMARK    1  A    between atoms: N_3  and  C_4
REMARK    2  A    between atoms: C_4  and  C_5
REMARK    3  A    between atoms: N_7  and  C_8
REMARK    4  A    between atoms: C_12  and  C_13
REMARK                            x       y       z     vdW  Elec       q    Type
REMARK                         _______ _______ _______ _____ _____    ______ ____
ROOT
ATOM      1  C   UNL     1       5.391   4.131  17.235  0.00  0.00    +0.000 A 
ATOM      2  C   UNL     1       6.264   4.753  18.120  0.00  0.00    +0.000 A 
ATOM      3  C   UNL     1       5.775   5.361  19.274  0.00  0.00    +0.000 A 
ATOM      4  C   UNL     1       4.405   5.363  19.545  0.00  0.00    +0.000 A 
ATOM      5  C   UNL     1       3.488   4.758  18.673  0.00  0.00    +0.000 A 
ATOM      6  C   UNL     1       4.018   4.111  17.536  0.00  0.00    +0.000 A 
ENDROOT
BRANCH   1  10
ATOM      7  O   UNL     1       5.572   5.239  14.497  0.00  0.00    +0.000 OA
ATOM      8  C   UNL     1       5.866   4.088  14.785  0.00  0.00    +0.000 C 
ATOM      9  N   UNL     1       6.322   3.196  13.835  0.00  0.00    +0.000 N 
ATOM     10  N   UNL     1       5.806   3.510  16.036  0.00  0.00    +0.000 N 
ATOM     11  H   UNL     1       6.207   2.212  14.031  0.00  0.00    +0.000 HD
ATOM     12  H   UNL     1       6.004   2.524  16.083  0.00  0.00    +0.000 HD
BRANCH   9  13
ATOM     13  C   UNL     1       6.310   3.570  12.428  0.00  0.00    +0.000 C 
BRANCH  13  14
ATOM     14  C   UNL     1       5.595   2.554  11.549  0.00  0.00    +0.000 C 
ATOM     15 CL   UNL     1       3.937   3.088  11.159  0.00  0.00    +0.000 Cl
ENDBRANCH  13  14
ENDBRANCH   9  13
ENDBRANCH   1  10
BRANCH   5  16
ATOM     16  C   UNL     1       1.988   4.729  18.993  0.00  0.00    +0.000 C 
ATOM     17  C   UNL     1       1.258   3.412  18.634  0.00  0.00    +0.000 C 
ATOM     18  C   UNL     1       1.647   2.251  19.551  0.00  0.00    +0.000 C 
ATOM     19  C   UNL     1       1.458   2.584  21.029  0.00  0.00    +0.000 C 
ATOM     20  C   UNL     1       2.033   3.940  21.425  0.00  0.00    +0.000 C 
ATOM     21  C   UNL     1       1.615   5.051  20.460  0.00  0.00    +0.000 C 
ENDBRANCH   5  16
TORSDOF 4
ENDMDL
MODEL 2
REMARK VINA RESULT:      -7.5      1.191      1.266
REMARK  Name = 
REMARK  4 active torsions:
REMARK  status: ('A' for Active; 'I' for Inactive)
REMARK    1  A    between atoms: N_3  and  C_4
REMARK    2  A    between atoms: C_4  and  C_5
REMARK    3  A    between atoms: N_7  and  C_8
REMARK    4  A    between atoms: C_12  and  C_13
REMARK                            x       y       z     vdW  Elec       q    Type
REMARK                         _______ _______ _______ _____ _____    ______ ____
ROOT
ATOM      1  C   UNL     1       5.491   4.174  17.236  0.00  0.00    +0.000 A 
ATOM      2  C   UNL     1       6.363   4.758  18.149  0.00  0.00    +0.000 A 
ATOM      3  C   UNL     1       5.868   5.343  19.313  0.00  0.00    +0.000 A 
ATOM      4  C   UNL     1       4.495   5.361  19.566  0.00  0.00    +0.000 A 
ATOM      5  C   UNL     1       3.580   4.794  18.665  0.00  0.00    +0.000 A 
ATOM      6  C   UNL     1       4.115   4.169  17.519  0.00  0.00    +0.000 A 
ENDROOT
BRANCH   1  10
ATOM      7  O   UNL     1       5.220   5.149  14.455  0.00  0.00    +0.000 OA
ATOM      8  C   UNL     1       5.753   4.090  14.755  0.00  0.00    +0.000 C 
ATOM      9  N   UNL     1       6.288   3.250  13.799  0.00  0.00    +0.000 N 
ATOM     10  N   UNL     1       5.913   3.579  16.026  0.00  0.00    +0.000 N 
ATOM     11  H   UNL     1       6.381   2.274  14.041  0.00  0.00    +0.000 HD
ATOM     12  H   UNL     1       6.300   2.652  16.090  0.00  0.00    +0.000 HD
BRANCH   9  13
ATOM     13  C   UNL     1       6.083   3.539  12.387  0.00  0.00    +0.000 C 
BRANCH  13  14
ATOM     14  C   UNL     1       7.328   4.092  11.707  0.00  0.00    +0.000 C 
ATOM     15 CL   UNL     1       8.068   5.396  12.673  0.00  0.00    +0.000 Cl
ENDBRANCH  13  14
ENDBRANCH   9  13
ENDBRANCH   1  10
BRANCH   5  16
ATOM     16  C   UNL     1       2.075   4.781  18.965  0.00  0.00    +0.000 C 
ATOM     17  C   UNL     1       1.325   3.494  18.544  0.00  0.00    +0.000 C 
ATOM     18  C   UNL     1       1.680   2.290  19.417  0.00  0.00    +0.000 C 
ATOM     19  C   UNL     1       1.477   2.566  20.905  0.00  0.00    +0.000 C 
ATOM     20  C   UNL     1       2.073   3.894  21.363  0.00  0.00    +0.000 C 
ATOM     21  C   UNL     1       1.689   5.051  20.439  0.00  0.00    +0.000 C 
ENDBRANCH   5  16
TORSDOF 4
ENDMDL
MODEL 3
REMARK VINA RESULT:      -7.4      4.484      5.551
REMARK  Name = 
REMARK  4 active torsions:
REMARK  status: ('A' for Active; 'I' for Inactive)
REMARK    1  A    between atoms: N_3  and  C_4
REMARK    2  A    between atoms: C_4  and  C_5
REMARK    3  A    between atoms: N_7  and  C_8
REMARK    4  A    between atoms: C_12  and  C_13
REMARK                            x       y       z     vdW  Elec       q    Type
REMARK                         _______ _______ _______ _____ _____    ______ ____
ROOT
ATOM      1  C   UNL     1       6.147   6.191  16.653  0.00  0.00    +0.000 A 
ATOM      2  C   UNL     1       6.725   5.102  16.008  0.00  0.00    +0.000 A 
ATOM      3  C   UNL     1       6.021   3.906  15.888  0.00  0.00    +0.000 A 
ATOM      4  C   UNL     1       4.737   3.785  16.424  0.00  0.00    +0.000 A 
ATOM      5  C   UNL     1       4.122   4.854  17.094  0.00  0.00    +0.000 A 
ATOM      6  C   UNL     1       4.842   6.067  17.159  0.00  0.00    +0.000 A 
ENDROOT
BRANCH   1  10
ATOM      7  O   UNL     1       8.091   7.019  18.726  0.00  0.00    +0.000 OA
ATOM      8  C   UNL     1       7.702   7.751  17.826  0.00  0.00    +0.000 C 
ATOM      9  N   UNL     1       8.154   9.049  17.702  0.00  0.00    +0.000 N 
ATOM     10  N   UNL     1       6.802   7.429  16.832  0.00  0.00    +0.000 N 
ATOM     11  H   UNL     1       7.567   9.698  17.199  0.00  0.00    +0.000 HD
ATOM     12  H   UNL     1       6.527   8.178  16.219  0.00  0.00    +0.000 HD
BRANCH   9  13
ATOM     13  C   UNL     1       8.993   9.626  18.744  0.00  0.00    +0.000 C 
BRANCH  13  14
ATOM     14  C   UNL     1       9.550  10.993  18.370  0.00  0.00    +0.000 C 
ATOM     15 CL   UNL     1      10.921  11.442  19.418  0.00  0.00    +0.000 Cl
ENDBRANCH  13  14
ENDBRANCH   9  13
ENDBRANCH   1  10
BRANCH   5  16
ATOM     16  C   UNL     1       2.697   4.729  17.648  0.00  0.00    +0.000 C 
ATOM     17  C   UNL     1       2.173   3.282  17.814  0.00  0.00    +0.000 C 
ATOM     18  C   UNL     1       2.863   2.530  18.954  0.00  0.00    +0.000 C 
ATOM     19  C   UNL     1       2.788   3.283  20.280  0.00  0.00    +0.000 C 
ATOM     20  C   UNL     1       3.158   4.759  20.163  0.00  0.00    +0.000 C 
ATOM     21  C   UNL     1       2.444   5.444  18.997  0.00  0.00    +0.000 C 
ENDBRANCH   5  16
TORSDOF 4
ENDMDL
MODEL 4
REMARK VINA RESULT:      -7.3      1.048      1.079
REMARK  Name = 
REMARK  4 active torsions:
REMARK  status: ('A' for Active; 'I' for Inactive)
REMARK    1  A    between atoms: N_3  and  C_4
REMARK    2  A    between atoms: C_4  and  C_5
REMARK    3  A    between atoms: N_7  and  C_8
REMARK    4  A    between atoms: C_12  and  C_13
REMARK                            x       y       z     vdW  Elec       q    Type
REMARK                         _______ _______ _______ _____ _____    ______ ____
ROOT
ATOM      1  C   UNL     1       4.596   4.750  16.784  0.00  0.00    +0.000 A 
ATOM      2  C   UNL     1       4.893   6.055  17.161  0.00  0.00    +0.000 A 
ATOM      3  C   UNL     1       4.084   6.720  18.080  0.00  0.00    +0.000 A 
ATOM      4  C   UNL     1       2.961   6.088  18.619  0.00  0.00    +0.000 A 
ATOM      5  C   UNL     1       2.617   4.777  18.256  0.00  0.00    +0.000 A 
ATOM      6  C   UNL     1       3.482   4.114  17.359  0.00  0.00    +0.000 A 
ENDROOT
BRANCH   1  10
ATOM      7  O   UNL     1       5.120   5.311  13.925  0.00  0.00    +0.000 OA
ATOM      8  C   UNL     1       5.560   4.336  14.519  0.00  0.00    +0.000 C 
ATOM      9  N   UNL     1       6.358   3.402  13.890  0.00  0.00    +0.000 N 
ATOM     10  N   UNL     1       5.355   4.017  15.845  0.00  0.00    +0.000 N 
ATOM     11  H   UNL     1       6.392   2.477  14.291  0.00  0.00    +0.000 HD
ATOM     12  H   UNL     1       5.721   3.131  16.154  0.00  0.00    +0.000 HD
BRANCH   9  13
ATOM     13  C   UNL     1       6.563   3.480  12.450  0.00  0.00    +0.000 C 
BRANCH  13  14
ATOM     14  C   UNL     1       5.692   2.503  11.672  0.00  0.00    +0.000 C 
ATOM     15 CL   UNL     1       4.091   3.205  11.315  0.00  0.00    +0.000 Cl
ENDBRANCH  13  14
ENDBRANCH   9  13
ENDBRANCH   1  10
BRANCH   5  16
ATOM     16  C   UNL     1       1.405   4.072  18.879  0.00  0.00    +0.000 C 
ATOM     17  C   UNL     1       1.483   2.527  18.920  0.00  0.00    +0.000 C 
ATOM     18  C   UNL     1       2.512   2.013  19.928  0.00  0.00    +0.000 C 
ATOM     19  C   UNL     1       2.289   2.575  21.330  0.00  0.00    +0.000 C 
ATOM     20  C   UNL     1       2.063   4.084  21.350  0.00  0.00    +0.000 C 
ATOM     21  C   UNL     1       1.034   4.530  20.310  0.00  0.00    +0.000 C 
ENDBRANCH   5  16
TORSDOF 4
ENDMDL
MODEL 5
REMARK VINA RESULT:      -7.2      4.440      5.792
REMARK  Name = 
REMARK  4 active torsions:
REMARK  status: ('A' for Active; 'I' for Inactive)
REMARK    1  A    between atoms: N_3  and  C_4
REMARK    2  A    between atoms: C_4  and  C_5
REMARK    3  A    between atoms: N_7  and  C_8
REMARK    4  A    between atoms: C_12  and  C_13
REMARK                            x       y       z     vdW  Elec       q    Type
REMARK                         _______ _______ _______ _____ _____    ______ ____
ROOT
ATOM      1  C   UNL     1       6.304   6.123  16.702  0.00  0.00    +0.000 A 
ATOM      2  C   UNL     1       6.455   5.401  15.523  0.00  0.00    +0.000 A 
ATOM      3  C   UNL     1       5.923   4.118  15.416  0.00  0.00    +0.000 A 
ATOM      4  C   UNL     1       5.247   3.541  16.493  0.00  0.00    +0.000 A 
ATOM      5  C   UNL     1       5.084   4.229  17.705  0.00  0.00    +0.000 A 
ATOM      6  C   UNL     1       5.593   5.544  17.767  0.00  0.00    +0.000 A 
ENDROOT
BRANCH   1  10
ATOM      7  O   UNL     1       8.305   7.078  18.663  0.00  0.00    +0.000 OA
ATOM      8  C   UNL     1       7.767   7.799  17.835  0.00  0.00    +0.000 C 
ATOM      9  N   UNL     1       8.060   9.145  17.744  0.00  0.00    +0.000 N 
ATOM     10  N   UNL     1       6.830   7.420  16.896  0.00  0.00    +0.000 N 
ATOM     11  H   UNL     1       7.366   9.743  17.322  0.00  0.00    +0.000 HD
ATOM     12  H   UNL     1       6.425   8.158  16.345  0.00  0.00    +0.000 HD
BRANCH   9  13
ATOM     13  C   UNL     1       8.911   9.768  18.749  0.00  0.00    +0.000 C 
BRANCH  13  14
ATOM     14  C   UNL     1       9.413  11.143  18.331  0.00  0.00    +0.000 C 
ATOM     15 CL   UNL     1      11.074  11.431  18.916  0.00  0.00    +0.000 Cl
ENDBRANCH  13  14
ENDBRANCH   9  13
ENDBRANCH   1  10
BRANCH   5  16
ATOM     16  C   UNL     1       4.308   3.607  18.873  0.00  0.00    +0.000 C 
ATOM     17  C   UNL     1       3.290   4.543  19.568  0.00  0.00    +0.000 C 
ATOM     18  C   UNL     1       2.069   4.841  18.696  0.00  0.00    +0.000 C 
ATOM     19  C   UNL     1       1.380   3.572  18.201  0.00  0.00    +0.000 C 
ATOM     20  C   UNL     1       2.346   2.539  17.629  0.00  0.00    +0.000 C 
ATOM     21  C   UNL     1       3.548   2.300  18.544  0.00  0.00    +0.000 C 
ENDBRANCH   5  16
TORSDOF 4
ENDMDL
MODEL 6
REMARK VINA RESULT:      -7.1      0.869      1.637
REMARK  Name = 
REMARK  4 active torsions:
REMARK  status: ('A' for Active; 'I' for Inactive)
REMARK    1  A    between atoms: N_3  and  C_4
REMARK    2  A    between atoms: C_4  and  C_5
REMARK    3  A    between atoms: N_7  and  C_8
REMARK    4  A    between atoms: C_12  and  C_13
REMARK                            x       y       z     vdW  Elec       q    Type
REMARK                         _______ _______ _______ _____ _____    ______ ____
ROOT
ATOM      1  C   UNL     1       5.399   4.228  17.153  0.00  0.00    +0.000 A 
ATOM      2  C   UNL     1       5.539   5.575  17.471  0.00  0.00    +0.000 A 
ATOM      3  C   UNL     1       4.965   6.083  18.634  0.00  0.00    +0.000 A 
ATOM      4  C   UNL     1       4.234   5.249  19.483  0.00  0.00    +0.000 A 
ATOM      5  C   UNL     1       4.058   3.887  19.194  0.00  0.00    +0.000 A 
ATOM      6  C   UNL     1       4.690   3.393  18.032  0.00  0.00    +0.000 A 
ENDROOT
BRANCH   1  10
ATOM      7  O   UNL     1       5.253   5.146  14.342  0.00  0.00    +0.000 OA
ATOM      8  C   UNL     1       5.828   4.125  14.696  0.00  0.00    +0.000 C 
ATOM      9  N   UNL     1       6.473   3.306  13.792  0.00  0.00    +0.000 N 
ATOM     10  N   UNL     1       5.933   3.643  15.984  0.00  0.00    +0.000 N 
ATOM     11  H   UNL     1       6.608   2.341  14.056  0.00  0.00    +0.000 HD
ATOM     12  H   UNL     1       6.370   2.742  16.089  0.00  0.00    +0.000 HD
BRANCH   9  13
ATOM     13  C   UNL     1       6.345   3.562  12.364  0.00  0.00    +0.000 C 
BRANCH  13  14
ATOM     14  C   UNL     1       5.491   2.525  11.648  0.00  0.00    +0.000 C 
ATOM     15 CL   UNL     1       3.911   3.204  11.172  0.00  0.00    +0.000 Cl
ENDBRANCH  13  14
ENDBRANCH   9  13
ENDBRANCH   1  10
BRANCH   5  16
ATOM     16  C   UNL     1       3.287   2.966  20.148  0.00  0.00    +0.000 C 
ATOM     17  C   UNL     1       2.315   3.679  21.120  0.00  0.00    +0.000 C 
ATOM     18  C   UNL     1       1.087   4.253  20.412  0.00  0.00    +0.000 C 
ATOM     19  C   UNL     1       0.345   3.205  19.585  0.00  0.00    +0.000 C 
ATOM     20  C   UNL     1       1.265   2.365  18.704  0.00  0.00    +0.000 C 
ATOM     21  C   UNL     1       2.477   1.835  19.471  0.00  0.00    +0.000 C 
ENDBRANCH   5  16
TORSDOF 4
ENDMDL
MODEL 7
REMARK VINA RESULT:      -7.1      0.975      1.416
REMARK  Name = 
REMARK  4 active torsions:
REMARK  status: ('A' for Active; 'I' for Inactive)
REMARK    1  A    between atoms: N_3  and  C_4
REMARK    2  A    between atoms: C_4  and  C_5
REMARK    3  A    between atoms: N_7  and  C_8
REMARK    4  A    between atoms: C_12  and  C_13
REMARK                            x       y       z     vdW  Elec       q    Type
REMARK                         _______ _______ _______ _____ _____    ______ ____
ROOT
ATOM      1  C   UNL     1       6.135   4.231  16.932  0.00  0.00    +0.000 A 
ATOM      2  C   UNL     1       7.257   4.580  17.676  0.00  0.00    +0.000 A 
ATOM      3  C   UNL     1       7.113   5.260  18.883  0.00  0.00    +0.000 A 
ATOM      4  C   UNL     1       5.844   5.608  19.351  0.00  0.00    +0.000 A 
ATOM      5  C   UNL     1       4.686   5.287  18.626  0.00  0.00    +0.000 A 
ATOM      6  C   UNL     1       4.862   4.558  17.431  0.00  0.00    +0.000 A 
ENDROOT
BRANCH   1  10
ATOM      7  O   UNL     1       5.752   5.283  14.193  0.00  0.00    +0.000 OA
ATOM      8  C   UNL     1       6.008   4.113  14.443  0.00  0.00    +0.000 C 
ATOM      9  N   UNL     1       6.147   3.171  13.443  0.00  0.00    +0.000 N 
ATOM     10  N   UNL     1       6.198   3.560  15.691  0.00  0.00    +0.000 N 
ATOM     11  H   UNL     1       6.000   2.205  13.694  0.00  0.00    +0.000 HD
ATOM     12  H   UNL     1       6.318   2.561  15.724  0.00  0.00    +0.000 HD
BRANCH   9  13
ATOM     13  C   UNL     1       5.832   3.527  12.066  0.00  0.00    +0.000 C 
BRANCH  13  14
ATOM     14  C   UNL     1       4.632   2.770  11.517  0.00  0.00    +0.000 C 
ATOM     15 CL   UNL     1       3.623   3.817  10.483  0.00  0.00    +0.000 Cl
ENDBRANCH  13  14
ENDBRANCH   9  13
ENDBRANCH   1  10
BRANCH   5  16
ATOM     16  C   UNL     1       3.292   5.637  19.162  0.00  0.00    +0.000 C 
ATOM     17  C   UNL     1       2.158   5.642  18.109  0.00  0.00    +0.000 C 
ATOM     18  C   UNL     1       1.801   4.238  17.618  0.00  0.00    +0.000 C 
ATOM     19  C   UNL     1       1.465   3.285  18.763  0.00  0.00    +0.000 C 
ATOM     20  C   UNL     1       2.473   3.333  19.908  0.00  0.00    +0.000 C 
ATOM     21  C   UNL     1       2.794   4.765  20.339  0.00  0.00    +0.000 C 
ENDBRANCH   5  16
TORSDOF 4
ENDMDL
MODEL 8
REMARK VINA RESULT:      -7.1      1.228      2.011
REMARK  Name = 
REMARK  4 active torsions:
REMARK  status: ('A' for Active; 'I' for Inactive)
REMARK    1  A    between atoms: N_3  and  C_4
REMARK    2  A    between atoms: C_4  and  C_5
REMARK    3  A    between atoms: N_7  and  C_8
REMARK    4  A    between atoms: C_12  and  C_13
REMARK                            x       y       z     vdW  Elec       q    Type
REMARK                         _______ _______ _______ _____ _____    ______ ____
ROOT
ATOM      1  C   UNL     1       6.545   4.246  16.951  0.00  0.00    +0.000 A 
ATOM      2  C   UNL     1       7.557   5.001  17.536  0.00  0.00    +0.000 A 
ATOM      3  C   UNL     1       7.360   5.588  18.783  0.00  0.00    +0.000 A 
ATOM      4  C   UNL     1       6.143   5.436  19.451  0.00  0.00    +0.000 A 
ATOM      5  C   UNL     1       5.092   4.693  18.893  0.00  0.00    +0.000 A 
ATOM      6  C   UNL     1       5.338   4.072  17.649  0.00  0.00    +0.000 A 
ENDROOT
BRANCH   1  10
ATOM      7  O   UNL     1       5.668   5.220  14.298  0.00  0.00    +0.000 OA
ATOM      8  C   UNL     1       6.228   4.147  14.478  0.00  0.00    +0.000 C 
ATOM      9  N   UNL     1       6.504   3.289  13.433  0.00  0.00    +0.000 N 
ATOM     10  N   UNL     1       6.661   3.635  15.683  0.00  0.00    +0.000 N 
ATOM     11  H   UNL     1       6.624   2.312  13.655  0.00  0.00    +0.000 HD
ATOM     12  H   UNL     1       7.027   2.698  15.665  0.00  0.00    +0.000 HD
BRANCH   9  13
ATOM     13  C   UNL     1       5.988   3.581  12.102  0.00  0.00    +0.000 C 
BRANCH  13  14
ATOM     14  C   UNL     1       5.104   2.471  11.552  0.00  0.00    +0.000 C 
ATOM     15 CL   UNL     1       3.630   3.133  10.794  0.00  0.00    +0.000 Cl
ENDBRANCH  13  14
ENDBRANCH   9  13
ENDBRANCH   1  10
BRANCH   5  16
ATOM     16  C   UNL     1       3.770   4.496  19.647  0.00  0.00    +0.000 C 
ATOM     17  C   UNL     1       2.760   5.663  19.533  0.00  0.00    +0.000 C 
ATOM     18  C   UNL     1       2.142   5.776  18.139  0.00  0.00    +0.000 C 
ATOM     19  C   UNL     1       1.505   4.469  17.673  0.00  0.00    +0.000 C 
ATOM     20  C   UNL     1       2.397   3.249  17.887  0.00  0.00    +0.000 C 
ATOM     21  C   UNL     1       2.991   3.206  19.296  0.00  0.00    +0.000 C 
ENDBRANCH   5  16
TORSDOF 4
ENDMDL
MODEL 9
REMARK VINA RESULT:      -7.1      4.606      6.093
REMARK  Name = 
REMARK  4 active torsions:
REMARK  status: ('A' for Active; 'I' for Inactive)
REMARK    1  A    between atoms: N_3  and  C_4
REMARK    2  A    between atoms: C_4  and  C_5
REMARK    3  A    between atoms: N_7  and  C_8
REMARK    4  A    between atoms: C_12  and  C_13
REMARK                            x       y       z     vdW  Elec       q    Type
REMARK                         _______ _______ _______ _____ _____    ______ ____
ROOT
ATOM      1  C   UNL     1       3.044   7.085  17.693  0.00  0.00    +0.000 A 
ATOM      2  C   UNL     1       4.424   7.004  17.541  0.00  0.00    +0.000 A 
ATOM      3  C   UNL     1       5.075   5.782  17.700  0.00  0.00    +0.000 A 
ATOM      4  C   UNL     1       4.351   4.633  18.025  0.00  0.00    +0.000 A 
ATOM      5  C   UNL     1       2.959   4.673  18.200  0.00  0.00    +0.000 A 
ATOM      6  C   UNL     1       2.323   5.915  17.987  0.00  0.00    +0.000 A 
ENDROOT
BRANCH   1  10
ATOM      7  O   UNL     1       1.594   8.640  19.752  0.00  0.00    +0.000 OA
ATOM      8  C   UNL     1       1.658   8.964  18.574  0.00  0.00    +0.000 C 
ATOM      9  N   UNL     1       1.049  10.110  18.103  0.00  0.00    +0.000 N 
ATOM     10  N   UNL     1       2.314   8.288  17.567  0.00  0.00    +0.000 N 
ATOM     11  H   UNL     1       0.825  10.144  17.119  0.00  0.00    +0.000 HD
ATOM     12  H   UNL     1       2.196   8.649  16.635  0.00  0.00    +0.000 HD
BRANCH   9  13
ATOM     13  C   UNL     1       0.177  10.879  18.981  0.00  0.00    +0.000 C 
BRANCH  13  14
ATOM     14  C   UNL     1      -1.295  10.535  18.806  0.00  0.00    +0.000 C 
ATOM     15 CL   UNL     1      -1.618   9.879  17.178  0.00  0.00    +0.000 Cl
ENDBRANCH  13  14
ENDBRANCH   9  13
ENDBRANCH   1  10
BRANCH   5  16
ATOM     16  C   UNL     1       2.163   3.401  18.519  0.00  0.00    +0.000 C 
ATOM     17  C   UNL     1       2.991   2.225  19.091  0.00  0.00    +0.000 C 
ATOM     18  C   UNL     1       3.475   2.482  20.519  0.00  0.00    +0.000 C 
ATOM     19  C   UNL     1       2.335   2.846  21.467  0.00  0.00    +0.000 C 
ATOM     20  C   UNL     1       1.392   3.905  20.904  0.00  0.00    +0.000 C 
ATOM     21  C   UNL     1       0.959   3.593  19.471  0.00  0.00    +0.000 C 
ENDBRANCH   5  16
TORSDOF 4
ENDMDL
