MODEL 1
REMARK VINA RESULT:      -6.4      0.000      0.000
REMARK  Name = 
REMARK  5 active torsions:
REMARK  status: ('A' for Active; 'I' for Inactive)
REMARK    1  A    between atoms: C_5  and  C_6
REMARK    2  A    between atoms: C_6  and  N_8
REMARK    3  A    between atoms: N_8  and  C_9
REMARK    4  A    between atoms: C_9  and  C_10
REMARK    5  A    between atoms: C_10  and  C_11
REMARK                            x       y       z     vdW  Elec       q    Type
REMARK                         _______ _______ _______ _____ _____    ______ ____
ROOT
ATOM      1  N   UNL     1       2.843   6.264  20.259  0.00  0.00    +0.000 N 
ATOM      2  H   UNL     1       3.558   6.217  20.974  0.00  0.00    +0.000 HD
ENDROOT
BRANCH   1   3
ATOM      3  C   UNL     1       3.213   6.654  18.968  0.00  0.00    +0.000 C 
ATOM      4  S   UNL     1       2.422   7.888  18.128  0.00  0.00    +0.000 S 
BRANCH   3   9
ATOM      5  F   UNL     1       7.580   4.042  16.518  0.00  0.00    +0.000 F 
ATOM      6  C   UNL     1       6.527   4.621  17.112  0.00  0.00    +0.000 A 
ATOM      7  C   UNL     1       6.557   4.860  18.478  0.00  0.00    +0.000 A 
ATOM      8  C   UNL     1       5.462   5.479  19.093  0.00  0.00    +0.000 A 
ATOM      9  C   UNL     1       4.341   5.871  18.343  0.00  0.00    +0.000 A 
ATOM     10  C   UNL     1       4.334   5.620  16.959  0.00  0.00    +0.000 A 
ATOM     11  C   UNL     1       5.428   4.990  16.348  0.00  0.00    +0.000 A 
ENDBRANCH   3   9
ENDBRANCH   1   3
BRANCH   1  12
ATOM     12  C   UNL     1       1.547   5.651  20.576  0.00  0.00    +0.000 C 
BRANCH  12  13
ATOM     13  C   UNL     1       1.632   4.183  21.003  0.00  0.00    +0.000 C 
BRANCH  13  14
ATOM     14  C   UNL     1       2.284   3.340  19.931  0.00  0.00    +0.000 A 
ATOM     15  C   UNL     1       3.484   2.660  20.178  0.00  0.00    +0.000 A 
ATOM     16  C   UNL     1       4.107   1.923  19.167  0.00  0.00    +0.000 A 
ATOM     17  C   UNL     1       3.539   1.862  17.895  0.00  0.00    +0.000 A 
ATOM     18  C   UNL     1       2.349   2.535  17.634  0.00  0.00    +0.000 A 
ATOM     19  C   UNL     1       1.726   3.272  18.645  0.00  0.00    +0.000 A 
ENDBRANCH  13  14
ENDBRANCH  12  13
ENDBRANCH   1  12
TORSDOF 5
ENDMDL
MODEL 2
REMARK VINA RESULT:      -6.3      0.364      1.183
REMARK  Name = 
REMARK  5 active torsions:
REMARK  status: ('A' for Active; 'I' for Inactive)
REMARK    1  A    between atoms: C_5  and  C_6
REMARK    2  A    between atoms: C_6  and  N_8
REMARK    3  A    between atoms: N_8  and  C_9
REMARK    4  A    between atoms: C_9  and  C_10
REMARK    5  A    between atoms: C_10  and  C_11
REMARK                            x       y       z     vdW  Elec       q    Type
REMARK                         _______ _______ _______ _____ _____    ______ ____
ROOT
ATOM      1  N   UNL     1       2.908   5.924  20.235  0.00  0.00    +0.000 N 
ATOM      2  H   UNL     1       3.635   5.419  20.726  0.00  0.00    +0.000 HD
ENDROOT
BRANCH   1   3
ATOM      3  C   UNL     1       3.233   6.564  19.036  0.00  0.00    +0.000 C 
ATOM      4  S   UNL     1       2.334   7.856  18.421  0.00  0.00    +0.000 S 
BRANCH   3   9
ATOM      5  F   UNL     1       7.506   4.124  16.264  0.00  0.00    +0.000 F 
ATOM      6  C   UNL     1       6.513   4.743  16.919  0.00  0.00    +0.000 A 
ATOM      7  C   UNL     1       5.506   5.369  16.199  0.00  0.00    +0.000 A 
ATOM      8  C   UNL     1       4.461   6.001  16.884  0.00  0.00    +0.000 A 
ATOM      9  C   UNL     1       4.416   6.001  18.289  0.00  0.00    +0.000 A 
ATOM     10  C   UNL     1       5.449   5.360  18.996  0.00  0.00    +0.000 A 
ATOM     11  C   UNL     1       6.498   4.736  18.306  0.00  0.00    +0.000 A 
ENDBRANCH   3   9
ENDBRANCH   1   3
BRANCH   1  12
ATOM     12  C   UNL     1       1.527   5.700  20.682  0.00  0.00    +0.000 C 
BRANCH  12  13
ATOM     13  C   UNL     1       1.059   4.245  20.576  0.00  0.00    +0.000 C 
BRANCH  13  14
ATOM     14  C   UNL     1       1.923   3.463  19.614  0.00  0.00    +0.000 A 
ATOM     15  C   UNL     1       3.020   2.720  20.069  0.00  0.00    +0.000 A 
ATOM     16  C   UNL     1       3.843   2.039  19.168  0.00  0.00    +0.000 A 
ATOM     17  C   UNL     1       3.582   2.098  17.800  0.00  0.00    +0.000 A 
ATOM     18  C   UNL     1       2.497   2.836  17.332  0.00  0.00    +0.000 A 
ATOM     19  C   UNL     1       1.674   3.517  18.233  0.00  0.00    +0.000 A 
ENDBRANCH  13  14
ENDBRANCH  12  13
ENDBRANCH   1  12
TORSDOF 5
ENDMDL
MODEL 3
REMARK VINA RESULT:      -6.3      0.332      1.631
REMARK  Name = 
REMARK  5 active torsions:
REMARK  status: ('A' for Active; 'I' for Inactive)
REMARK    1  A    between atoms: C_5  and  C_6
REMARK    2  A    between atoms: C_6  and  N_8
REMARK    3  A    between atoms: N_8  and  C_9
REMARK    4  A    between atoms: C_9  and  C_10
REMARK    5  A    between atoms: C_10  and  C_11
REMARK                            x       y       z     vdW  Elec       q    Type
REMARK                         _______ _______ _______ _____ _____    ______ ____
ROOT
ATOM      1  N   UNL     1       2.898   6.148  20.109  0.00  0.00    +0.000 N 
ATOM      2  H   UNL     1       3.628   5.726  20.670  0.00  0.00    +0.000 HD
ENDROOT
BRANCH   1   3
ATOM      3  C   UNL     1       3.244   6.708  18.875  0.00  0.00    +0.000 C 
ATOM      4  S   UNL     1       2.385   7.989  18.185  0.00  0.00    +0.000 S 
BRANCH   3   9
ATOM      5  F   UNL     1       7.451   3.984  16.273  0.00  0.00    +0.000 F 
ATOM      6  C   UNL     1       6.474   4.670  16.883  0.00  0.00    +0.000 A 
ATOM      7  C   UNL     1       5.466   5.246  16.124  0.00  0.00    +0.000 A 
ATOM      8  C   UNL     1       4.438   5.949  16.765  0.00  0.00    +0.000 A 
ATOM      9  C   UNL     1       4.410   6.067  18.166  0.00  0.00    +0.000 A 
ATOM     10  C   UNL     1       5.443   5.475  18.913  0.00  0.00    +0.000 A 
ATOM     11  C   UNL     1       6.476   4.780  18.267  0.00  0.00    +0.000 A 
ENDBRANCH   3   9
ENDBRANCH   1   3
BRANCH   1  12
ATOM     12  C   UNL     1       1.512   5.881  20.514  0.00  0.00    +0.000 C 
BRANCH  12  13
ATOM     13  C   UNL     1       1.144   4.395  20.559  0.00  0.00    +0.000 C 
BRANCH  13  14
ATOM     14  C   UNL     1       2.018   3.588  19.627  0.00  0.00    +0.000 A 
ATOM     15  C   UNL     1       1.719   3.491  18.262  0.00  0.00    +0.000 A 
ATOM     16  C   UNL     1       2.503   2.703  17.415  0.00  0.00    +0.000 A 
ATOM     17  C   UNL     1       3.593   1.999  17.924  0.00  0.00    +0.000 A 
ATOM     18  C   UNL     1       3.900   2.082  19.280  0.00  0.00    +0.000 A 
ATOM     19  C   UNL     1       3.116   2.871  20.127  0.00  0.00    +0.000 A 
ENDBRANCH  13  14
ENDBRANCH  12  13
ENDBRANCH   1  12
TORSDOF 5
ENDMDL
MODEL 4
REMARK VINA RESULT:      -6.1      2.727      4.059
REMARK  Name = 
REMARK  5 active torsions:
REMARK  status: ('A' for Active; 'I' for Inactive)
REMARK    1  A    between atoms: C_5  and  C_6
REMARK    2  A    between atoms: C_6  and  N_8
REMARK    3  A    between atoms: N_8  and  C_9
REMARK    4  A    between atoms: C_9  and  C_10
REMARK    5  A    between atoms: C_10  and  C_11
REMARK                            x       y       z     vdW  Elec       q    Type
REMARK                         _______ _______ _______ _____ _____    ______ ____
ROOT
ATOM      1  N   UNL     1       5.214   3.624  17.762  0.00  0.00    +0.000 N 
ATOM      2  H   UNL     1       5.895   2.895  17.936  0.00  0.00    +0.000 HD
ENDROOT
BRANCH   1   3
ATOM      3  C   UNL     1       5.612   4.957  17.899  0.00  0.00    +0.000 C 
ATOM      4  S   UNL     1       7.219   5.449  17.725  0.00  0.00    +0.000 S 
BRANCH   3   9
ATOM      5  F   UNL     1       1.309   8.433  19.036  0.00  0.00    +0.000 F 
ATOM      6  C   UNL     1       2.357   7.633  18.793  0.00  0.00    +0.000 A 
ATOM      7  C   UNL     1       2.656   6.609  19.679  0.00  0.00    +0.000 A 
ATOM      8  C   UNL     1       3.741   5.765  19.416  0.00  0.00    +0.000 A 
ATOM      9  C   UNL     1       4.523   5.936  18.261  0.00  0.00    +0.000 A 
ATOM     10  C   UNL     1       4.201   6.981  17.377  0.00  0.00    +0.000 A 
ATOM     11  C   UNL     1       3.118   7.831  17.649  0.00  0.00    +0.000 A 
ENDBRANCH   3   9
ENDBRANCH   1   3
BRANCH   1  12
ATOM     12  C   UNL     1       3.961   3.219  17.112  0.00  0.00    +0.000 C 
BRANCH  12  13
ATOM     13  C   UNL     1       3.270   2.019  17.767  0.00  0.00    +0.000 C 
BRANCH  13  14
ATOM     14  C   UNL     1       2.571   2.423  19.045  0.00  0.00    +0.000 A 
ATOM     15  C   UNL     1       1.295   3.000  19.017  0.00  0.00    +0.000 A 
ATOM     16  C   UNL     1       0.675   3.417  20.198  0.00  0.00    +0.000 A 
ATOM     17  C   UNL     1       1.327   3.266  21.421  0.00  0.00    +0.000 A 
ATOM     18  C   UNL     1       2.597   2.698  21.464  0.00  0.00    +0.000 A 
ATOM     19  C   UNL     1       3.217   2.281  20.283  0.00  0.00    +0.000 A 
ENDBRANCH  13  14
ENDBRANCH  12  13
ENDBRANCH   1  12
TORSDOF 5
ENDMDL
MODEL 5
REMARK VINA RESULT:      -6.0      2.741      4.085
REMARK  Name = 
REMARK  5 active torsions:
REMARK  status: ('A' for Active; 'I' for Inactive)
REMARK    1  A    between atoms: C_5  and  C_6
REMARK    2  A    between atoms: C_6  and  N_8
REMARK    3  A    between atoms: N_8  and  C_9
REMARK    4  A    between atoms: C_9  and  C_10
REMARK    5  A    between atoms: C_10  and  C_11
REMARK                            x       y       z     vdW  Elec       q    Type
REMARK                         _______ _______ _______ _____ _____    ______ ____
ROOT
ATOM      1  N   UNL     1       5.104   3.865  18.014  0.00  0.00    +0.000 N 
ATOM      2  H   UNL     1       5.751   3.401  18.640  0.00  0.00    +0.000 HD
ENDROOT
BRANCH   1   3
ATOM      3  C   UNL     1       5.278   5.230  17.768  0.00  0.00    +0.000 C 
ATOM      4  S   UNL     1       6.705   5.864  17.124  0.00  0.00    +0.000 S 
BRANCH   3   9
ATOM      5  F   UNL     1       1.186   8.740  19.453  0.00  0.00    +0.000 F 
ATOM      6  C   UNL     1       2.127   7.886  19.025  0.00  0.00    +0.000 A 
ATOM      7  C   UNL     1       2.815   8.158  17.851  0.00  0.00    +0.000 A 
ATOM      8  C   UNL     1       3.809   7.273  17.415  0.00  0.00    +0.000 A 
ATOM      9  C   UNL     1       4.124   6.122  18.156  0.00  0.00    +0.000 A 
ATOM     10  C   UNL     1       3.414   5.868  19.343  0.00  0.00    +0.000 A 
ATOM     11  C   UNL     1       2.412   6.751  19.771  0.00  0.00    +0.000 A 
ENDBRANCH   3   9
ENDBRANCH   1   3
BRANCH   1  12
ATOM     12  C   UNL     1       4.225   3.006  17.212  0.00  0.00    +0.000 C 
BRANCH  12  13
ATOM     13  C   UNL     1       3.594   1.847  17.991  0.00  0.00    +0.000 C 
BRANCH  13  14
ATOM     14  C   UNL     1       2.792   2.354  19.167  0.00  0.00    +0.000 A 
ATOM     15  C   UNL     1       3.332   2.361  20.459  0.00  0.00    +0.000 A 
ATOM     16  C   UNL     1       2.567   2.784  21.550  0.00  0.00    +0.000 A 
ATOM     17  C   UNL     1       1.251   3.202  21.360  0.00  0.00    +0.000 A 
ATOM     18  C   UNL     1       0.699   3.197  20.082  0.00  0.00    +0.000 A 
ATOM     19  C   UNL     1       1.464   2.774  18.991  0.00  0.00    +0.000 A 
ENDBRANCH  13  14
ENDBRANCH  12  13
ENDBRANCH   1  12
TORSDOF 5
ENDMDL
MODEL 6
REMARK VINA RESULT:      -6.0      2.146      3.484
REMARK  Name = 
REMARK  5 active torsions:
REMARK  status: ('A' for Active; 'I' for Inactive)
REMARK    1  A    between atoms: C_5  and  C_6
REMARK    2  A    between atoms: C_6  and  N_8
REMARK    3  A    between atoms: N_8  and  C_9
REMARK    4  A    between atoms: C_9  and  C_10
REMARK    5  A    between atoms: C_10  and  C_11
REMARK                            x       y       z     vdW  Elec       q    Type
REMARK                         _______ _______ _______ _____ _____    ______ ____
ROOT
ATOM      1  N   UNL     1       3.894   6.820  18.199  0.00  0.00    +0.000 N 
ATOM      2  H   UNL     1       4.518   7.345  18.801  0.00  0.00    +0.000 HD
ENDROOT
BRANCH   1   3
ATOM      3  C   UNL     1       4.447   5.900  17.304  0.00  0.00    +0.000 C 
ATOM      4  S   UNL     1       5.239   6.371  15.888  0.00  0.00    +0.000 S 
BRANCH   3   9
ATOM      5  F   UNL     1       3.474   0.557  18.856  0.00  0.00    +0.000 F 
ATOM      6  C   UNL     1       3.737   1.810  18.458  0.00  0.00    +0.000 A 
ATOM      7  C   UNL     1       3.113   2.313  17.326  0.00  0.00    +0.000 A 
ATOM      8  C   UNL     1       3.377   3.627  16.921  0.00  0.00    +0.000 A 
ATOM      9  C   UNL     1       4.255   4.445  17.653  0.00  0.00    +0.000 A 
ATOM     10  C   UNL     1       4.875   3.913  18.798  0.00  0.00    +0.000 A 
ATOM     11  C   UNL     1       4.616   2.593  19.195  0.00  0.00    +0.000 A 
ENDBRANCH   3   9
ENDBRANCH   1   3
BRANCH   1  12
ATOM     12  C   UNL     1       2.463   6.872  18.522  0.00  0.00    +0.000 C 
BRANCH  12  13
ATOM     13  C   UNL     1       2.145   6.689  20.009  0.00  0.00    +0.000 C 
BRANCH  13  14
ATOM     14  C   UNL     1       1.879   5.238  20.335  0.00  0.00    +0.000 A 
ATOM     15  C   UNL     1       0.997   4.474  19.558  0.00  0.00    +0.000 A 
ATOM     16  C   UNL     1       0.717   3.147  19.894  0.00  0.00    +0.000 A 
ATOM     17  C   UNL     1       1.312   2.569  21.014  0.00  0.00    +0.000 A 
ATOM     18  C   UNL     1       2.187   3.316  21.798  0.00  0.00    +0.000 A 
ATOM     19  C   UNL     1       2.468   4.643  21.462  0.00  0.00    +0.000 A 
ENDBRANCH  13  14
ENDBRANCH  12  13
ENDBRANCH   1  12
TORSDOF 5
ENDMDL
MODEL 7
REMARK VINA RESULT:      -6.0      2.727      3.784
REMARK  Name = 
REMARK  5 active torsions:
REMARK  status: ('A' for Active; 'I' for Inactive)
REMARK    1  A    between atoms: C_5  and  C_6
REMARK    2  A    between atoms: C_6  and  N_8
REMARK    3  A    between atoms: N_8  and  C_9
REMARK    4  A    between atoms: C_9  and  C_10
REMARK    5  A    between atoms: C_10  and  C_11
REMARK                            x       y       z     vdW  Elec       q    Type
REMARK                         _______ _______ _______ _____ _____    ______ ____
ROOT
ATOM      1  N   UNL     1       5.156   3.318  16.709  0.00  0.00    +0.000 N 
ATOM      2  H   UNL     1       5.453   2.368  16.897  0.00  0.00    +0.000 HD
ENDROOT
BRANCH   1   3
ATOM      3  C   UNL     1       6.017   4.158  15.997  0.00  0.00    +0.000 C 
ATOM      4  S   UNL     1       6.213   4.050  14.322  0.00  0.00    +0.000 S 
BRANCH   3   9
ATOM      5  F   UNL     1       8.649   7.967  19.230  0.00  0.00    +0.000 F 
ATOM      6  C   UNL     1       8.065   7.051  18.445  0.00  0.00    +0.000 A 
ATOM      7  C   UNL     1       8.004   5.730  18.864  0.00  0.00    +0.000 A 
ATOM      8  C   UNL     1       7.379   4.778  18.050  0.00  0.00    +0.000 A 
ATOM      9  C   UNL     1       6.805   5.145  16.821  0.00  0.00    +0.000 A 
ATOM     10  C   UNL     1       6.879   6.491  16.418  0.00  0.00    +0.000 A 
ATOM     11  C   UNL     1       7.514   7.440  17.232  0.00  0.00    +0.000 A 
ENDBRANCH   3   9
ENDBRANCH   1   3
BRANCH   1  12
ATOM     12  C   UNL     1       3.744   3.631  16.956  0.00  0.00    +0.000 C 
BRANCH  12  13
ATOM     13  C   UNL     1       3.507   4.607  18.114  0.00  0.00    +0.000 C 
BRANCH  13  14
ATOM     14  C   UNL     1       2.770   3.936  19.250  0.00  0.00    +0.000 A 
ATOM     15  C   UNL     1       1.383   4.072  19.389  0.00  0.00    +0.000 A 
ATOM     16  C   UNL     1       0.714   3.490  20.470  0.00  0.00    +0.000 A 
ATOM     17  C   UNL     1       1.427   2.768  21.426  0.00  0.00    +0.000 A 
ATOM     18  C   UNL     1       2.807   2.627  21.303  0.00  0.00    +0.000 A 
ATOM     19  C   UNL     1       3.475   3.209  20.222  0.00  0.00    +0.000 A 
ENDBRANCH  13  14
ENDBRANCH  12  13
ENDBRANCH   1  12
TORSDOF 5
ENDMDL
MODEL 8
REMARK VINA RESULT:      -6.0      2.730      3.721
REMARK  Name = 
REMARK  5 active torsions:
REMARK  status: ('A' for Active; 'I' for Inactive)
REMARK    1  A    between atoms: C_5  and  C_6
REMARK    2  A    between atoms: C_6  and  N_8
REMARK    3  A    between atoms: N_8  and  C_9
REMARK    4  A    between atoms: C_9  and  C_10
REMARK    5  A    between atoms: C_10  and  C_11
REMARK                            x       y       z     vdW  Elec       q    Type
REMARK                         _______ _______ _______ _____ _____    ______ ____
ROOT
ATOM      1  N   UNL     1       4.958   3.408  16.797  0.00  0.00    +0.000 N 
ATOM      2  H   UNL     1       5.188   2.437  16.972  0.00  0.00    +0.000 HD
ENDROOT
BRANCH   1   3
ATOM      3  C   UNL     1       5.896   4.208  16.139  0.00  0.00    +0.000 C 
ATOM      4  S   UNL     1       6.285   4.001  14.508  0.00  0.00    +0.000 S 
BRANCH   3   9
ATOM      5  F   UNL     1       8.788   8.011  19.150  0.00  0.00    +0.000 F 
ATOM      6  C   UNL     1       8.064   7.121  18.457  0.00  0.00    +0.000 A 
ATOM      7  C   UNL     1       7.379   7.531  17.323  0.00  0.00    +0.000 A 
ATOM      8  C   UNL     1       6.636   6.596  16.592  0.00  0.00    +0.000 A 
ATOM      9  C   UNL     1       6.585   5.248  16.987  0.00  0.00    +0.000 A 
ATOM     10  C   UNL     1       7.287   4.857  18.140  0.00  0.00    +0.000 A 
ATOM     11  C   UNL     1       8.023   5.798  18.875  0.00  0.00    +0.000 A 
ENDBRANCH   3   9
ENDBRANCH   1   3
BRANCH   1  12
ATOM     12  C   UNL     1       3.558   3.803  16.997  0.00  0.00    +0.000 C 
BRANCH  12  13
ATOM     13  C   UNL     1       2.647   2.672  17.482  0.00  0.00    +0.000 C 
BRANCH  13  14
ATOM     14  C   UNL     1       2.353   2.805  18.959  0.00  0.00    +0.000 A 
ATOM     15  C   UNL     1       3.313   2.461  19.919  0.00  0.00    +0.000 A 
ATOM     16  C   UNL     1       3.018   2.539  21.283  0.00  0.00    +0.000 A 
ATOM     17  C   UNL     1       1.756   2.957  21.702  0.00  0.00    +0.000 A 
ATOM     18  C   UNL     1       0.790   3.300  20.759  0.00  0.00    +0.000 A 
ATOM     19  C   UNL     1       1.086   3.222  19.395  0.00  0.00    +0.000 A 
ENDBRANCH  13  14
ENDBRANCH  12  13
ENDBRANCH   1  12
TORSDOF 5
ENDMDL
MODEL 9
REMARK VINA RESULT:      -5.9      0.876      1.437
REMARK  Name = 
REMARK  5 active torsions:
REMARK  status: ('A' for Active; 'I' for Inactive)
REMARK    1  A    between atoms: C_5  and  C_6
REMARK    2  A    between atoms: C_6  and  N_8
REMARK    3  A    between atoms: N_8  and  C_9
REMARK    4  A    between atoms: C_9  and  C_10
REMARK    5  A    between atoms: C_10  and  C_11
REMARK                            x       y       z     vdW  Elec       q    Type
REMARK                         _______ _______ _______ _____ _____    ______ ____
ROOT
ATOM      1  N   UNL     1       3.239   6.024  19.788  0.00  0.00    +0.000 N 
ATOM      2  H   UNL     1       3.962   5.442  20.193  0.00  0.00    +0.000 HD
ENDROOT
BRANCH   1   3
ATOM      3  C   UNL     1       3.482   6.625  18.550  0.00  0.00    +0.000 C 
ATOM      4  S   UNL     1       2.580   7.936  17.982  0.00  0.00    +0.000 S 
BRANCH   3   9
ATOM      5  F   UNL     1       7.456   4.487  15.154  0.00  0.00    +0.000 F 
ATOM      6  C   UNL     1       6.529   4.969  15.994  0.00  0.00    +0.000 A 
ATOM      7  C   UNL     1       6.843   6.041  16.816  0.00  0.00    +0.000 A 
ATOM      8  C   UNL     1       5.869   6.553  17.682  0.00  0.00    +0.000 A 
ATOM      9  C   UNL     1       4.576   6.003  17.719  0.00  0.00    +0.000 A 
ATOM     10  C   UNL     1       4.282   4.916  16.876  0.00  0.00    +0.000 A 
ATOM     11  C   UNL     1       5.263   4.400  16.017  0.00  0.00    +0.000 A 
ENDBRANCH   3   9
ENDBRANCH   1   3
BRANCH   1  12
ATOM     12  C   UNL     1       1.907   5.951  20.402  0.00  0.00    +0.000 C 
BRANCH  12  13
ATOM     13  C   UNL     1       1.396   4.525  20.631  0.00  0.00    +0.000 C 
BRANCH  13  14
ATOM     14  C   UNL     1       2.142   3.533  19.769  0.00  0.00    +0.000 A 
ATOM     15  C   UNL     1       1.615   3.102  18.544  0.00  0.00    +0.000 A 
ATOM     16  C   UNL     1       2.287   2.147  17.776  0.00  0.00    +0.000 A 
ATOM     17  C   UNL     1       3.492   1.610  18.225  0.00  0.00    +0.000 A 
ATOM     18  C   UNL     1       4.027   2.026  19.441  0.00  0.00    +0.000 A 
ATOM     19  C   UNL     1       3.355   2.981  20.210  0.00  0.00    +0.000 A 
ENDBRANCH  13  14
ENDBRANCH  12  13
ENDBRANCH   1  12
TORSDOF 5
ENDMDL
