MODEL 1
REMARK VINA RESULT:      -7.8      0.000      0.000
REMARK  Name = 
REMARK  4 active torsions:
REMARK  status: ('A' for Active; 'I' for Inactive)
REMARK    1  A    between atoms: C_1  and  O_2
REMARK    2  A    between atoms: O_2  and  C_3
REMARK    3  A    between atoms: C_9  and  C_10
REMARK    4  A    between atoms: C_17  and  C_18
REMARK                            x       y       z     vdW  Elec       q    Type
REMARK                         _______ _______ _______ _____ _____    ______ ____
ROOT
ATOM      1  C   UNL     1       4.461   3.482  17.690  0.00  0.00    +0.000 A 
ATOM      2  C   UNL     1       4.522   2.128  17.984  0.00  0.00    +0.000 A 
ATOM      3  C   UNL     1       3.706   1.610  18.980  0.00  0.00    +0.000 A 
ATOM      4  C   UNL     1       2.853   2.451  19.696  0.00  0.00    +0.000 A 
ATOM      5  C   UNL     1       2.051   1.930  20.723  0.00  0.00    +0.000 A 
ATOM      6  C   UNL     1       1.216   2.763  21.453  0.00  0.00    +0.000 A 
ATOM      7  C   UNL     1       1.176   4.120  21.152  0.00  0.00    +0.000 A 
ATOM      8  C   UNL     1       1.975   4.665  20.125  0.00  0.00    +0.000 A 
ATOM      9  C   UNL     1       2.833   3.826  19.374  0.00  0.00    +0.000 A 
ATOM     10  N   UNL     1       3.632   4.303  18.388  0.00  0.00    +0.000 NA
ENDROOT
BRANCH   8  11
ATOM     11  C   UNL     1       1.881   6.117  19.858  0.00  0.00    +0.000 A 
ATOM     12  C   UNL     1       1.390   7.154  20.643  0.00  0.00    +0.000 A 
ATOM     13  C   UNL     1       1.566   8.373  19.944  0.00  0.00    +0.000 A 
ATOM     14  C   UNL     1       2.132   8.046  18.728  0.00  0.00    +0.000 A 
ATOM     15  N   UNL     1       2.311   6.694  18.677  0.00  0.00    +0.000 N 
ATOM     16  C   UNL     1       2.514   9.027  17.682  0.00  0.00    +0.000 C 
ATOM     17  C   UNL     1       1.767  10.351  17.945  0.00  0.00    +0.000 C 
ATOM     18  N   UNL     1       1.609  10.689  19.358  0.00  0.00    +0.000 N 
ATOM     19  C   UNL     1       1.285   9.748  20.322  0.00  0.00    +0.000 C 
ATOM     20  O   UNL     1       0.827  10.085  21.408  0.00  0.00    +0.000 OA
ATOM     21  H   UNL     1       2.708   6.186  17.899  0.00  0.00    +0.000 HD
ATOM     22  H   UNL     1       1.318  11.623  19.611  0.00  0.00    +0.000 HD
ENDBRANCH   8  11
BRANCH   1  29
ATOM     23  C   UNL     1       6.119   5.296  16.940  0.00  0.00    +0.000 A 
ATOM     24  C   UNL     1       6.872   5.892  15.914  0.00  0.00    +0.000 A 
ATOM     25  C   UNL     1       6.836   5.384  14.616  0.00  0.00    +0.000 A 
ATOM     26  C   UNL     1       6.064   4.265  14.342  0.00  0.00    +0.000 A 
ATOM     27 CL   UNL     1       6.025   3.626  12.743  0.00  0.00    +0.000 Cl
ATOM     28  C   UNL     1       5.319   3.659  15.352  0.00  0.00    +0.000 A 
ATOM     29  C   UNL     1       5.314   4.159  16.676  0.00  0.00    +0.000 A 
BRANCH  23  31
ATOM     30  C   UNL     1       7.502   5.772  18.815  0.00  0.00    +0.000 C 
ATOM     31  O   UNL     1       6.200   5.737  18.239  0.00  0.00    +0.000 OA
ENDBRANCH  23  31
ENDBRANCH   1  29
TORSDOF 3
ENDMDL
MODEL 2
REMARK VINA RESULT:      -7.5      1.101      1.480
REMARK  Name = 
REMARK  4 active torsions:
REMARK  status: ('A' for Active; 'I' for Inactive)
REMARK    1  A    between atoms: C_1  and  O_2
REMARK    2  A    between atoms: O_2  and  C_3
REMARK    3  A    between atoms: C_9  and  C_10
REMARK    4  A    between atoms: C_17  and  C_18
REMARK                            x       y       z     vdW  Elec       q    Type
REMARK                         _______ _______ _______ _____ _____    ______ ____
ROOT
ATOM      1  C   UNL     1       4.624   3.624  18.003  0.00  0.00    +0.000 A 
ATOM      2  C   UNL     1       4.723   2.279  18.323  0.00  0.00    +0.000 A 
ATOM      3  C   UNL     1       3.904   1.752  19.314  0.00  0.00    +0.000 A 
ATOM      4  C   UNL     1       3.011   2.578  19.997  0.00  0.00    +0.000 A 
ATOM      5  C   UNL     1       2.206   2.049  21.018  0.00  0.00    +0.000 A 
ATOM      6  C   UNL     1       1.330   2.867  21.716  0.00  0.00    +0.000 A 
ATOM      7  C   UNL     1       1.252   4.216  21.390  0.00  0.00    +0.000 A 
ATOM      8  C   UNL     1       2.054   4.769  20.368  0.00  0.00    +0.000 A 
ATOM      9  C   UNL     1       2.952   3.944  19.649  0.00  0.00    +0.000 A 
ATOM     10  N   UNL     1       3.755   4.430  18.670  0.00  0.00    +0.000 NA
ENDROOT
BRANCH   8  11
ATOM     11  C   UNL     1       1.918   6.211  20.072  0.00  0.00    +0.000 A 
ATOM     12  C   UNL     1       2.233   6.937  18.928  0.00  0.00    +0.000 A 
ATOM     13  C   UNL     1       1.871   8.290  19.136  0.00  0.00    +0.000 A 
ATOM     14  C   UNL     1       1.372   8.366  20.420  0.00  0.00    +0.000 A 
ATOM     15  N   UNL     1       1.409   7.122  20.980  0.00  0.00    +0.000 N 
ATOM     16  C   UNL     1       0.846   9.602  21.052  0.00  0.00    +0.000 C 
ATOM     17  C   UNL     1       1.372  10.823  20.269  0.00  0.00    +0.000 C 
ATOM     18  N   UNL     1       1.464  10.623  18.824  0.00  0.00    +0.000 N 
ATOM     19  C   UNL     1       1.927   9.447  18.258  0.00  0.00    +0.000 C 
ATOM     20  O   UNL     1       2.319   9.413  17.096  0.00  0.00    +0.000 OA
ATOM     21  H   UNL     1       1.104   6.892  21.916  0.00  0.00    +0.000 HD
ATOM     22  H   UNL     1       1.602  11.425  18.224  0.00  0.00    +0.000 HD
ENDBRANCH   8  11
BRANCH   1  29
ATOM     23  C   UNL     1       6.293   5.435  17.270  0.00  0.00    +0.000 A 
ATOM     24  C   UNL     1       7.042   6.041  16.247  0.00  0.00    +0.000 A 
ATOM     25  C   UNL     1       6.989   5.556  14.941  0.00  0.00    +0.000 A 
ATOM     26  C   UNL     1       6.204   4.450  14.655  0.00  0.00    +0.000 A 
ATOM     27 CL   UNL     1       6.144   3.840  13.046  0.00  0.00    +0.000 Cl
ATOM     28  C   UNL     1       5.462   3.834  15.661  0.00  0.00    +0.000 A 
ATOM     29  C   UNL     1       5.474   4.311  16.994  0.00  0.00    +0.000 A 
BRANCH  23  31
ATOM     30  C   UNL     1       7.676   5.746  19.180  0.00  0.00    +0.000 C 
ATOM     31  O   UNL     1       6.391   5.852  18.576  0.00  0.00    +0.000 OA
ENDBRANCH  23  31
ENDBRANCH   1  29
TORSDOF 3
ENDMDL
MODEL 3
REMARK VINA RESULT:      -7.4      7.015     10.666
REMARK  Name = 
REMARK  4 active torsions:
REMARK  status: ('A' for Active; 'I' for Inactive)
REMARK    1  A    between atoms: C_1  and  O_2
REMARK    2  A    between atoms: O_2  and  C_3
REMARK    3  A    between atoms: C_9  and  C_10
REMARK    4  A    between atoms: C_17  and  C_18
REMARK                            x       y       z     vdW  Elec       q    Type
REMARK                         _______ _______ _______ _____ _____    ______ ____
ROOT
ATOM      1  C   UNL     1      -0.834  11.588  22.068  0.00  0.00    +0.000 A 
ATOM      2  C   UNL     1      -0.799  10.209  22.211  0.00  0.00    +0.000 A 
ATOM      3  C   UNL     1      -0.072   9.448  21.305  0.00  0.00    +0.000 A 
ATOM      4  C   UNL     1       0.593  10.066  20.245  0.00  0.00    +0.000 A 
ATOM      5  C   UNL     1       1.302   9.292  19.314  0.00  0.00    +0.000 A 
ATOM      6  C   UNL     1       1.949   9.897  18.246  0.00  0.00    +0.000 A 
ATOM      7  C   UNL     1       1.894  11.280  18.111  0.00  0.00    +0.000 A 
ATOM      8  C   UNL     1       1.185  12.077  19.035  0.00  0.00    +0.000 A 
ATOM      9  C   UNL     1       0.520  11.471  20.128  0.00  0.00    +0.000 A 
ATOM     10  N   UNL     1      -0.188  12.191  21.034  0.00  0.00    +0.000 NA
ENDROOT
BRANCH   8  11
ATOM     11  C   UNL     1       1.169  13.542  18.832  0.00  0.00    +0.000 A 
ATOM     12  C   UNL     1       2.196  14.426  18.517  0.00  0.00    +0.000 A 
ATOM     13  C   UNL     1       1.650  15.726  18.390  0.00  0.00    +0.000 A 
ATOM     14  C   UNL     1       0.303  15.611  18.665  0.00  0.00    +0.000 A 
ATOM     15  N   UNL     1       0.020  14.304  18.937  0.00  0.00    +0.000 N 
ATOM     16  C   UNL     1      -0.668  16.733  18.622  0.00  0.00    +0.000 C 
ATOM     17  C   UNL     1       0.107  18.064  18.703  0.00  0.00    +0.000 C 
ATOM     18  N   UNL     1       1.385  18.067  17.994  0.00  0.00    +0.000 N 
ATOM     19  C   UNL     1       2.260  16.993  18.022  0.00  0.00    +0.000 C 
ATOM     20  O   UNL     1       3.441  17.130  17.725  0.00  0.00    +0.000 OA
ATOM     21  H   UNL     1      -0.893  13.939  19.172  0.00  0.00    +0.000 HD
ATOM     22  H   UNL     1       1.853  18.947  17.827  0.00  0.00    +0.000 HD
ENDBRANCH   8  11
BRANCH   1  29
ATOM     23  C   UNL     1      -1.133  13.749  23.425  0.00  0.00    +0.000 A 
ATOM     24  C   UNL     1      -1.924  14.537  24.278  0.00  0.00    +0.000 A 
ATOM     25  C   UNL     1      -3.189  14.108  24.677  0.00  0.00    +0.000 A 
ATOM     26  C   UNL     1      -3.679  12.898  24.208  0.00  0.00    +0.000 A 
ATOM     27 CL   UNL     1      -5.245  12.368  24.688  0.00  0.00    +0.000 Cl
ATOM     28  C   UNL     1      -2.908  12.110  23.355  0.00  0.00    +0.000 A 
ATOM     29  C   UNL     1      -1.611  12.503  22.946  0.00  0.00    +0.000 A 
BRANCH  23  31
ATOM     30  C   UNL     1       0.115  15.505  22.419  0.00  0.00    +0.000 C 
ATOM     31  O   UNL     1       0.084  14.190  22.962  0.00  0.00    +0.000 OA
ENDBRANCH  23  31
ENDBRANCH   1  29
TORSDOF 3
ENDMDL
MODEL 4
REMARK VINA RESULT:      -7.4      1.769      2.338
REMARK  Name = 
REMARK  4 active torsions:
REMARK  status: ('A' for Active; 'I' for Inactive)
REMARK    1  A    between atoms: C_1  and  O_2
REMARK    2  A    between atoms: O_2  and  C_3
REMARK    3  A    between atoms: C_9  and  C_10
REMARK    4  A    between atoms: C_17  and  C_18
REMARK                            x       y       z     vdW  Elec       q    Type
REMARK                         _______ _______ _______ _____ _____    ______ ____
ROOT
ATOM      1  C   UNL     1       4.926   4.376  18.374  0.00  0.00    +0.000 A 
ATOM      2  C   UNL     1       5.084   3.011  18.561  0.00  0.00    +0.000 A 
ATOM      3  C   UNL     1       4.159   2.317  19.330  0.00  0.00    +0.000 A 
ATOM      4  C   UNL     1       3.097   2.995  19.931  0.00  0.00    +0.000 A 
ATOM      5  C   UNL     1       2.182   2.297  20.733  0.00  0.00    +0.000 A 
ATOM      6  C   UNL     1       1.136   2.967  21.350  0.00  0.00    +0.000 A 
ATOM      7  C   UNL     1       1.000   4.338  21.162  0.00  0.00    +0.000 A 
ATOM      8  C   UNL     1       1.911   5.060  20.361  0.00  0.00    +0.000 A 
ATOM      9  C   UNL     1       2.983   4.387  19.727  0.00  0.00    +0.000 A 
ATOM     10  N   UNL     1       3.894   5.038  18.961  0.00  0.00    +0.000 NA
ENDROOT
BRANCH   8  11
ATOM     11  C   UNL     1       1.705   6.516  20.203  0.00  0.00    +0.000 A 
ATOM     12  C   UNL     1       1.264   7.474  21.109  0.00  0.00    +0.000 A 
ATOM     13  C   UNL     1       1.283   8.740  20.474  0.00  0.00    +0.000 A 
ATOM     14  C   UNL     1       1.705   8.519  19.179  0.00  0.00    +0.000 A 
ATOM     15  N   UNL     1       1.950   7.186  19.018  0.00  0.00    +0.000 N 
ATOM     16  C   UNL     1       1.898   9.581  18.159  0.00  0.00    +0.000 C 
ATOM     17  C   UNL     1       1.120  10.838  18.598  0.00  0.00    +0.000 C 
ATOM     18  N   UNL     1       1.126  11.084  20.039  0.00  0.00    +0.000 N 
ATOM     19  C   UNL     1       0.979  10.071  20.972  0.00  0.00    +0.000 C 
ATOM     20  O   UNL     1       0.646  10.316  22.127  0.00  0.00    +0.000 OA
ATOM     21  H   UNL     1       2.270   6.749  18.165  0.00  0.00    +0.000 HD
ATOM     22  H   UNL     1       0.819  11.982  20.387  0.00  0.00    +0.000 HD
ENDBRANCH   8  11
BRANCH   1  29
ATOM     23  C   UNL     1       6.107   5.117  16.216  0.00  0.00    +0.000 A 
ATOM     24  C   UNL     1       7.043   5.949  15.578  0.00  0.00    +0.000 A 
ATOM     25  C   UNL     1       7.764   6.897  16.302  0.00  0.00    +0.000 A 
ATOM     26  C   UNL     1       7.539   7.033  17.665  0.00  0.00    +0.000 A 
ATOM     27 CL   UNL     1       8.418   8.210  18.561  0.00  0.00    +0.000 Cl
ATOM     28  C   UNL     1       6.607   6.220  18.308  0.00  0.00    +0.000 A 
ATOM     29  C   UNL     1       5.872   5.232  17.609  0.00  0.00    +0.000 A 
BRANCH  23  31
ATOM     30  C   UNL     1       5.680   4.042  14.138  0.00  0.00    +0.000 C 
ATOM     31  O   UNL     1       5.333   4.230  15.506  0.00  0.00    +0.000 OA
ENDBRANCH  23  31
ENDBRANCH   1  29
TORSDOF 3
ENDMDL
MODEL 5
REMARK VINA RESULT:      -7.3      7.776     11.174
REMARK  Name = 
REMARK  4 active torsions:
REMARK  status: ('A' for Active; 'I' for Inactive)
REMARK    1  A    between atoms: C_1  and  O_2
REMARK    2  A    between atoms: O_2  and  C_3
REMARK    3  A    between atoms: C_9  and  C_10
REMARK    4  A    between atoms: C_17  and  C_18
REMARK                            x       y       z     vdW  Elec       q    Type
REMARK                         _______ _______ _______ _____ _____    ______ ____
ROOT
ATOM      1  C   UNL     1      -4.104  11.340  17.925  0.00  0.00    +0.000 A 
ATOM      2  C   UNL     1      -3.729  10.537  16.858  0.00  0.00    +0.000 A 
ATOM      3  C   UNL     1      -2.455   9.984  16.836  0.00  0.00    +0.000 A 
ATOM      4  C   UNL     1      -1.554  10.260  17.866  0.00  0.00    +0.000 A 
ATOM      5  C   UNL     1      -0.257   9.725  17.825  0.00  0.00    +0.000 A 
ATOM      6  C   UNL     1       0.652  10.011  18.834  0.00  0.00    +0.000 A 
ATOM      7  C   UNL     1       0.263  10.827  19.889  0.00  0.00    +0.000 A 
ATOM      8  C   UNL     1      -1.035  11.378  19.948  0.00  0.00    +0.000 A 
ATOM      9  C   UNL     1      -1.971  11.095  18.924  0.00  0.00    +0.000 A 
ATOM     10  N   UNL     1      -3.225  11.611  18.926  0.00  0.00    +0.000 NA
ENDROOT
BRANCH   8  11
ATOM     11  C   UNL     1      -1.382  12.237  21.100  0.00  0.00    +0.000 A 
ATOM     12  C   UNL     1      -0.620  13.165  21.803  0.00  0.00    +0.000 A 
ATOM     13  C   UNL     1      -1.433  13.757  22.799  0.00  0.00    +0.000 A 
ATOM     14  C   UNL     1      -2.669  13.150  22.704  0.00  0.00    +0.000 A 
ATOM     15  N   UNL     1      -2.632  12.236  21.692  0.00  0.00    +0.000 N 
ATOM     16  C   UNL     1      -3.843  13.486  23.548  0.00  0.00    +0.000 C 
ATOM     17  C   UNL     1      -3.354  14.228  24.808  0.00  0.00    +0.000 C 
ATOM     18  N   UNL     1      -2.230  15.135  24.581  0.00  0.00    +0.000 N 
ATOM     19  C   UNL     1      -1.161  14.812  23.762  0.00  0.00    +0.000 C 
ATOM     20  O   UNL     1      -0.093  15.409  23.848  0.00  0.00    +0.000 OA
ATOM     21  H   UNL     1      -3.403  11.648  21.406  0.00  0.00    +0.000 HD
ATOM     22  H   UNL     1      -1.984  15.803  25.299  0.00  0.00    +0.000 HD
ENDBRANCH   8  11
BRANCH   1  29
ATOM     23  C   UNL     1      -6.460  11.612  18.913  0.00  0.00    +0.000 A 
ATOM     24  C   UNL     1      -7.687  12.296  18.934  0.00  0.00    +0.000 A 
ATOM     25  C   UNL     1      -7.911  13.384  18.092  0.00  0.00    +0.000 A 
ATOM     26  C   UNL     1      -6.902  13.808  17.240  0.00  0.00    +0.000 A 
ATOM     27 CL   UNL     1      -7.170  15.159  16.206  0.00  0.00    +0.000 Cl
ATOM     28  C   UNL     1      -5.677  13.143  17.215  0.00  0.00    +0.000 A 
ATOM     29  C   UNL     1      -5.421  12.021  18.039  0.00  0.00    +0.000 A 
BRANCH  23  31
ATOM     30  C   UNL     1      -7.152   9.533  19.837  0.00  0.00    +0.000 C 
ATOM     31  O   UNL     1      -6.195  10.585  19.787  0.00  0.00    +0.000 OA
ENDBRANCH  23  31
ENDBRANCH   1  29
TORSDOF 3
ENDMDL
MODEL 6
REMARK VINA RESULT:      -7.3      7.570     10.690
REMARK  Name = 
REMARK  4 active torsions:
REMARK  status: ('A' for Active; 'I' for Inactive)
REMARK    1  A    between atoms: C_1  and  O_2
REMARK    2  A    between atoms: O_2  and  C_3
REMARK    3  A    between atoms: C_9  and  C_10
REMARK    4  A    between atoms: C_17  and  C_18
REMARK                            x       y       z     vdW  Elec       q    Type
REMARK                         _______ _______ _______ _____ _____    ______ ____
ROOT
ATOM      1  C   UNL     1      -2.255  11.922  18.591  0.00  0.00    +0.000 A 
ATOM      2  C   UNL     1      -2.645  11.135  17.518  0.00  0.00    +0.000 A 
ATOM      3  C   UNL     1      -3.990  10.828  17.351  0.00  0.00    +0.000 A 
ATOM      4  C   UNL     1      -4.933  11.285  18.273  0.00  0.00    +0.000 A 
ATOM      5  C   UNL     1      -6.286  10.948  18.119  0.00  0.00    +0.000 A 
ATOM      6  C   UNL     1      -7.226  11.381  19.042  0.00  0.00    +0.000 A 
ATOM      7  C   UNL     1      -6.816  12.159  20.119  0.00  0.00    +0.000 A 
ATOM      8  C   UNL     1      -5.460  12.508  20.294  0.00  0.00    +0.000 A 
ATOM      9  C   UNL     1      -4.490  12.071  19.359  0.00  0.00    +0.000 A 
ATOM     10  N   UNL     1      -3.173  12.366  19.491  0.00  0.00    +0.000 NA
ENDROOT
BRANCH   8  11
ATOM     11  C   UNL     1      -5.093  13.339  21.461  0.00  0.00    +0.000 A 
ATOM     12  C   UNL     1      -5.585  14.568  21.890  0.00  0.00    +0.000 A 
ATOM     13  C   UNL     1      -4.929  14.922  23.094  0.00  0.00    +0.000 A 
ATOM     14  C   UNL     1      -4.024  13.913  23.355  0.00  0.00    +0.000 A 
ATOM     15  N   UNL     1      -4.120  12.972  22.372  0.00  0.00    +0.000 N 
ATOM     16  C   UNL     1      -3.135  13.860  24.543  0.00  0.00    +0.000 C 
ATOM     17  C   UNL     1      -3.030  15.275  25.148  0.00  0.00    +0.000 C 
ATOM     18  N   UNL     1      -4.266  16.052  25.091  0.00  0.00    +0.000 N 
ATOM     19  C   UNL     1      -5.098  16.058  23.984  0.00  0.00    +0.000 C 
ATOM     20  O   UNL     1      -5.921  16.951  23.813  0.00  0.00    +0.000 OA
ATOM     21  H   UNL     1      -3.571  12.125  22.316  0.00  0.00    +0.000 HD
ATOM     22  H   UNL     1      -4.342  16.898  25.640  0.00  0.00    +0.000 HD
ENDBRANCH   8  11
BRANCH   1  29
ATOM     23  C   UNL     1       0.104  11.388  19.456  0.00  0.00    +0.000 A 
ATOM     24  C   UNL     1       1.410  11.822  19.743  0.00  0.00    +0.000 A 
ATOM     25  C   UNL     1       1.796  13.138  19.494  0.00  0.00    +0.000 A 
ATOM     26  C   UNL     1       0.884  14.023  18.937  0.00  0.00    +0.000 A 
ATOM     27 CL   UNL     1       1.359  15.646  18.616  0.00  0.00    +0.000 Cl
ATOM     28  C   UNL     1      -0.411  13.603  18.640  0.00  0.00    +0.000 A 
ATOM     29  C   UNL     1      -0.845  12.281  18.899  0.00  0.00    +0.000 A 
BRANCH  23  31
ATOM     30  C   UNL     1      -0.225   9.572  20.955  0.00  0.00    +0.000 C 
ATOM     31  O   UNL     1      -0.270  10.077  19.625  0.00  0.00    +0.000 OA
ENDBRANCH  23  31
ENDBRANCH   1  29
TORSDOF 3
ENDMDL
MODEL 7
REMARK VINA RESULT:      -7.3      8.620     12.578
REMARK  Name = 
REMARK  4 active torsions:
REMARK  status: ('A' for Active; 'I' for Inactive)
REMARK    1  A    between atoms: C_1  and  O_2
REMARK    2  A    between atoms: O_2  and  C_3
REMARK    3  A    between atoms: C_9  and  C_10
REMARK    4  A    between atoms: C_17  and  C_18
REMARK                            x       y       z     vdW  Elec       q    Type
REMARK                         _______ _______ _______ _____ _____    ______ ____
ROOT
ATOM      1  C   UNL     1      -6.556  13.760  20.469  0.00  0.00    +0.000 A 
ATOM      2  C   UNL     1      -7.566  13.679  21.415  0.00  0.00    +0.000 A 
ATOM      3  C   UNL     1      -7.252  13.321  22.720  0.00  0.00    +0.000 A 
ATOM      4  C   UNL     1      -5.934  13.019  23.065  0.00  0.00    +0.000 A 
ATOM      5  C   UNL     1      -5.623  12.628  24.377  0.00  0.00    +0.000 A 
ATOM      6  C   UNL     1      -4.319  12.306  24.723  0.00  0.00    +0.000 A 
ATOM      7  C   UNL     1      -3.320  12.382  23.759  0.00  0.00    +0.000 A 
ATOM      8  C   UNL     1      -3.611  12.771  22.434  0.00  0.00    +0.000 A 
ATOM      9  C   UNL     1      -4.938  13.100  22.068  0.00  0.00    +0.000 A 
ATOM     10  N   UNL     1      -5.272  13.464  20.805  0.00  0.00    +0.000 NA
ENDROOT
BRANCH   8  11
ATOM     11  C   UNL     1      -2.500  12.831  21.460  0.00  0.00    +0.000 A 
ATOM     12  C   UNL     1      -1.682  11.827  20.952  0.00  0.00    +0.000 A 
ATOM     13  C   UNL     1      -0.794  12.400  20.010  0.00  0.00    +0.000 A 
ATOM     14  C   UNL     1      -1.068  13.752  19.989  0.00  0.00    +0.000 A 
ATOM     15  N   UNL     1      -2.083  14.008  20.864  0.00  0.00    +0.000 N 
ATOM     16  C   UNL     1      -0.385  14.740  19.116  0.00  0.00    +0.000 C 
ATOM     17  C   UNL     1       0.944  14.134  18.623  0.00  0.00    +0.000 C 
ATOM     18  N   UNL     1       0.890  12.701  18.342  0.00  0.00    +0.000 N 
ATOM     19  C   UNL     1       0.218  11.802  19.154  0.00  0.00    +0.000 C 
ATOM     20  O   UNL     1       0.460  10.601  19.108  0.00  0.00    +0.000 OA
ATOM     21  H   UNL     1      -2.483  14.917  21.047  0.00  0.00    +0.000 HD
ATOM     22  H   UNL     1       1.648  12.270  17.828  0.00  0.00    +0.000 HD
ENDBRANCH   8  11
BRANCH   1  29
ATOM     23  C   UNL     1      -6.974  13.128  18.015  0.00  0.00    +0.000 A 
ATOM     24  C   UNL     1      -7.142  13.528  16.678  0.00  0.00    +0.000 A 
ATOM     25  C   UNL     1      -7.108  14.877  16.328  0.00  0.00    +0.000 A 
ATOM     26  C   UNL     1      -6.926  15.835  17.315  0.00  0.00    +0.000 A 
ATOM     27 CL   UNL     1      -6.894  17.502  16.889  0.00  0.00    +0.000 Cl
ATOM     28  C   UNL     1      -6.766  15.451  18.645  0.00  0.00    +0.000 A 
ATOM     29  C   UNL     1      -6.774  14.091  19.035  0.00  0.00    +0.000 A 
BRANCH  23  31
ATOM     30  C   UNL     1      -5.938  10.992  18.157  0.00  0.00    +0.000 C 
ATOM     31  O   UNL     1      -7.080  11.809  18.388  0.00  0.00    +0.000 OA
ENDBRANCH  23  31
ENDBRANCH   1  29
TORSDOF 3
ENDMDL
MODEL 8
REMARK VINA RESULT:      -7.3      7.693     11.517
REMARK  Name = 
REMARK  4 active torsions:
REMARK  status: ('A' for Active; 'I' for Inactive)
REMARK    1  A    between atoms: C_1  and  O_2
REMARK    2  A    between atoms: O_2  and  C_3
REMARK    3  A    between atoms: C_9  and  C_10
REMARK    4  A    between atoms: C_17  and  C_18
REMARK                            x       y       z     vdW  Elec       q    Type
REMARK                         _______ _______ _______ _____ _____    ______ ____
ROOT
ATOM      1  C   UNL     1      -1.246  12.414  22.645  0.00  0.00    +0.000 A 
ATOM      2  C   UNL     1      -1.215  11.057  22.928  0.00  0.00    +0.000 A 
ATOM      3  C   UNL     1      -0.526  10.199  22.079  0.00  0.00    +0.000 A 
ATOM      4  C   UNL     1       0.104  10.699  20.938  0.00  0.00    +0.000 A 
ATOM      5  C   UNL     1       0.773   9.827  20.067  0.00  0.00    +0.000 A 
ATOM      6  C   UNL     1       1.384  10.312  18.920  0.00  0.00    +0.000 A 
ATOM      7  C   UNL     1       1.333  11.674  18.646  0.00  0.00    +0.000 A 
ATOM      8  C   UNL     1       0.663  12.569  19.508  0.00  0.00    +0.000 A 
ATOM      9  C   UNL     1       0.035  12.085  20.680  0.00  0.00    +0.000 A 
ATOM     10  N   UNL     1      -0.635  12.901  21.532  0.00  0.00    +0.000 NA
ENDROOT
BRANCH   8  11
ATOM     11  C   UNL     1       0.649  14.005  19.156  0.00  0.00    +0.000 A 
ATOM     12  C   UNL     1       1.678  14.852  18.756  0.00  0.00    +0.000 A 
ATOM     13  C   UNL     1       1.133  16.133  18.495  0.00  0.00    +0.000 A 
ATOM     14  C   UNL     1      -0.215  16.047  18.774  0.00  0.00    +0.000 A 
ATOM     15  N   UNL     1      -0.500  14.775  19.177  0.00  0.00    +0.000 N 
ATOM     16  C   UNL     1      -1.186  17.159  18.612  0.00  0.00    +0.000 C 
ATOM     17  C   UNL     1      -0.410  18.491  18.560  0.00  0.00    +0.000 C 
ATOM     18  N   UNL     1       0.871  18.421  17.860  0.00  0.00    +0.000 N 
ATOM     19  C   UNL     1       1.745  17.356  18.001  0.00  0.00    +0.000 C 
ATOM     20  O   UNL     1       2.928  17.461  17.697  0.00  0.00    +0.000 OA
ATOM     21  H   UNL     1      -1.414  14.436  19.445  0.00  0.00    +0.000 HD
ATOM     22  H   UNL     1       1.340  19.280  17.605  0.00  0.00    +0.000 HD
ENDBRANCH   8  11
BRANCH   1  29
ATOM     23  C   UNL     1      -3.396  13.475  23.567  0.00  0.00    +0.000 A 
ATOM     24  C   UNL     1      -4.013  14.482  24.329  0.00  0.00    +0.000 A 
ATOM     25  C   UNL     1      -3.252  15.453  24.978  0.00  0.00    +0.000 A 
ATOM     26  C   UNL     1      -1.869  15.409  24.887  0.00  0.00    +0.000 A 
ATOM     27 CL   UNL     1      -0.923  16.599  25.697  0.00  0.00    +0.000 Cl
ATOM     28  C   UNL     1      -1.244  14.411  24.142  0.00  0.00    +0.000 A 
ATOM     29  C   UNL     1      -1.985  13.422  23.452  0.00  0.00    +0.000 A 
BRANCH  23  31
ATOM     30  C   UNL     1      -5.193  12.871  22.131  0.00  0.00    +0.000 C 
ATOM     31  O   UNL     1      -4.126  12.467  22.983  0.00  0.00    +0.000 OA
ENDBRANCH  23  31
ENDBRANCH   1  29
TORSDOF 3
ENDMDL
MODEL 9
REMARK VINA RESULT:      -7.3      7.170     10.450
REMARK  Name = 
REMARK  4 active torsions:
REMARK  status: ('A' for Active; 'I' for Inactive)
REMARK    1  A    between atoms: C_1  and  O_2
REMARK    2  A    between atoms: O_2  and  C_3
REMARK    3  A    between atoms: C_9  and  C_10
REMARK    4  A    between atoms: C_17  and  C_18
REMARK                            x       y       z     vdW  Elec       q    Type
REMARK                         _______ _______ _______ _____ _____    ______ ____
ROOT
ATOM      1  C   UNL     1      -2.428  11.619  18.141  0.00  0.00    +0.000 A 
ATOM      2  C   UNL     1      -2.931  11.180  16.925  0.00  0.00    +0.000 A 
ATOM      3  C   UNL     1      -4.291  11.299  16.668  0.00  0.00    +0.000 A 
ATOM      4  C   UNL     1      -5.144  11.830  17.638  0.00  0.00    +0.000 A 
ATOM      5  C   UNL     1      -6.522  11.921  17.387  0.00  0.00    +0.000 A 
ATOM      6  C   UNL     1      -7.379  12.428  18.352  0.00  0.00    +0.000 A 
ATOM      7  C   UNL     1      -6.858  12.852  19.570  0.00  0.00    +0.000 A 
ATOM      8  C   UNL     1      -5.476  12.767  19.843  0.00  0.00    +0.000 A 
ATOM      9  C   UNL     1      -4.592  12.250  18.867  0.00  0.00    +0.000 A 
ATOM     10  N   UNL     1      -3.258  12.134  19.086  0.00  0.00    +0.000 NA
ENDROOT
BRANCH   8  11
ATOM     11  C   UNL     1      -4.990  13.238  21.159  0.00  0.00    +0.000 A 
ATOM     12  C   UNL     1      -5.032  12.633  22.411  0.00  0.00    +0.000 A 
ATOM     13  C   UNL     1      -4.390  13.483  23.344  0.00  0.00    +0.000 A 
ATOM     14  C   UNL     1      -4.001  14.607  22.644  0.00  0.00    +0.000 A 
ATOM     15  N   UNL     1      -4.368  14.460  21.339  0.00  0.00    +0.000 N 
ATOM     16  C   UNL     1      -3.263  15.755  23.230  0.00  0.00    +0.000 C 
ATOM     17  C   UNL     1      -3.428  15.722  24.763  0.00  0.00    +0.000 C 
ATOM     18  N   UNL     1      -3.438  14.380  25.343  0.00  0.00    +0.000 N 
ATOM     19  C   UNL     1      -4.106  13.316  24.760  0.00  0.00    +0.000 C 
ATOM     20  O   UNL     1      -4.393  12.315  25.408  0.00  0.00    +0.000 OA
ATOM     21  H   UNL     1      -4.206  15.136  20.605  0.00  0.00    +0.000 HD
ATOM     22  H   UNL     1      -3.337  14.276  26.344  0.00  0.00    +0.000 HD
ENDBRANCH   8  11
BRANCH   1  29
ATOM     23  C   UNL     1      -0.066  12.568  18.485  0.00  0.00    +0.000 A 
ATOM     24  C   UNL     1       1.273  12.363  18.861  0.00  0.00    +0.000 A 
ATOM     25  C   UNL     1       1.709  11.112  19.295  0.00  0.00    +0.000 A 
ATOM     26  C   UNL     1       0.805  10.063  19.374  0.00  0.00    +0.000 A 
ATOM     27 CL   UNL     1       1.335   8.519  19.919  0.00  0.00    +0.000 Cl
ATOM     28  C   UNL     1      -0.528  10.255  19.012  0.00  0.00    +0.000 A 
ATOM     29  C   UNL     1      -1.002  11.505  18.547  0.00  0.00    +0.000 A 
BRANCH  23  31
ATOM     30  C   UNL     1      -0.196  14.886  19.000  0.00  0.00    +0.000 C 
ATOM     31  O   UNL     1      -0.529  13.811  18.128  0.00  0.00    +0.000 OA
ENDBRANCH  23  31
ENDBRANCH   1  29
TORSDOF 3
ENDMDL
