MODEL 1
REMARK VINA RESULT:      -6.7      0.000      0.000
REMARK  Name = 
REMARK  10 active torsions:
REMARK  status: ('A' for Active; 'I' for Inactive)
REMARK    1  A    between atoms: C_1  and  N_2
REMARK    2  A    between atoms: N_2  and  C_3
REMARK    3  A    between atoms: N_2  and  C_4
REMARK    4  A    between atoms: C_4  and  C_5
REMARK    5  A    between atoms: C_5  and  C_6
REMARK    6  A    between atoms: C_6  and  C_7
REMARK    7  A    between atoms: C_7  and  O_8
REMARK    8  A    between atoms: O_8  and  C_9
REMARK    9  A    between atoms: C_14  and  C_15
REMARK   10  A    between atoms: C_16  and  C_17
REMARK                            x       y       z     vdW  Elec       q    Type
REMARK                         _______ _______ _______ _____ _____    ______ ____
ROOT
ATOM      1  C   UNL     1       2.244   6.986  19.953  0.00  0.00    +0.000 A 
ATOM      2  C   UNL     1       1.499   7.887  20.728  0.00  0.00    +0.000 A 
ATOM      3  C   UNL     1       1.003   9.068  20.179  0.00  0.00    +0.000 A 
ATOM      4  C   UNL     1       1.237   9.361  18.842  0.00  0.00    +0.000 A 
ATOM      5  C   UNL     1       1.980   8.476  18.058  0.00  0.00    +0.000 A 
ATOM      6  C   UNL     1       2.496   7.279  18.592  0.00  0.00    +0.000 A 
ENDROOT
BRANCH   6   7
ATOM      7  C   UNL     1       3.387   6.496  17.702  0.00  0.00    +0.000 C 
ATOM      8  C   UNL     1       4.725   6.568  17.671  0.00  0.00    +0.000 C 
BRANCH   8   9
ATOM      9  C   UNL     1       5.605   5.928  16.669  0.00  0.00    +0.000 A 
ATOM     10  C   UNL     1       5.073   5.756  15.377  0.00  0.00    +0.000 A 
ATOM     11  C   UNL     1       5.758   5.023  14.399  0.00  0.00    +0.000 A 
ATOM     12  C   UNL     1       6.992   4.456  14.690  0.00  0.00    +0.000 A 
ATOM     13  C   UNL     1       7.547   4.628  15.956  0.00  0.00    +0.000 A 
ATOM     14  C   UNL     1       6.861   5.349  16.943  0.00  0.00    +0.000 A 
ATOM     15 CL   UNL     1       7.614   5.404  18.502  0.00  0.00    +0.000 Cl
ENDBRANCH   8   9
ENDBRANCH   6   7
BRANCH   1  16
ATOM     16  O   UNL     1       2.786   5.829  20.473  0.00  0.00    +0.000 OA
BRANCH  16  17
ATOM     17  C   UNL     1       1.888   4.927  21.126  0.00  0.00    +0.000 C 
BRANCH  17  18
ATOM     18  C   UNL     1       0.778   4.516  20.162  0.00  0.00    +0.000 C 
BRANCH  18  19
ATOM     19  C   UNL     1       1.147   3.338  19.257  0.00  0.00    +0.000 C 
BRANCH  19  20
ATOM     20  C   UNL     1       2.377   2.536  19.713  0.00  0.00    +0.000 C 
BRANCH  20  22
ATOM     21  C   UNL     1       4.698   3.187  19.371  0.00  0.00    +0.000 C 
ATOM     22  N   UNL     1       3.511   2.572  18.770  0.00  0.00    +0.000 NA
ATOM     23  C   UNL     1       3.837   1.211  18.330  0.00  0.00    +0.000 C 
ENDBRANCH  20  22
ENDBRANCH  19  20
ENDBRANCH  18  19
ENDBRANCH  17  18
ENDBRANCH  16  17
ENDBRANCH   1  16
TORSDOF 8
ENDMDL
MODEL 2
REMARK VINA RESULT:      -6.6      0.922      1.103
REMARK  Name = 
REMARK  10 active torsions:
REMARK  status: ('A' for Active; 'I' for Inactive)
REMARK    1  A    between atoms: C_1  and  N_2
REMARK    2  A    between atoms: N_2  and  C_3
REMARK    3  A    between atoms: N_2  and  C_4
REMARK    4  A    between atoms: C_4  and  C_5
REMARK    5  A    between atoms: C_5  and  C_6
REMARK    6  A    between atoms: C_6  and  C_7
REMARK    7  A    between atoms: C_7  and  O_8
REMARK    8  A    between atoms: O_8  and  C_9
REMARK    9  A    between atoms: C_14  and  C_15
REMARK   10  A    between atoms: C_16  and  C_17
REMARK                            x       y       z     vdW  Elec       q    Type
REMARK                         _______ _______ _______ _____ _____    ______ ____
ROOT
ATOM      1  C   UNL     1       1.925   7.893  19.657  0.00  0.00    +0.000 A 
ATOM      2  C   UNL     1       1.029   8.694  20.382  0.00  0.00    +0.000 A 
ATOM      3  C   UNL     1       0.522   9.875  19.844  0.00  0.00    +0.000 A 
ATOM      4  C   UNL     1       0.895  10.269  18.567  0.00  0.00    +0.000 A 
ATOM      5  C   UNL     1       1.789   9.485  17.832  0.00  0.00    +0.000 A 
ATOM      6  C   UNL     1       2.319   8.291  18.357  0.00  0.00    +0.000 A 
ENDROOT
BRANCH   6   7
ATOM      7  C   UNL     1       3.364   7.626  17.543  0.00  0.00    +0.000 C 
ATOM      8  C   UNL     1       3.967   6.465  17.836  0.00  0.00    +0.000 C 
BRANCH   8   9
ATOM      9  C   UNL     1       5.130   5.888  17.128  0.00  0.00    +0.000 A 
ATOM     10  C   UNL     1       5.016   5.747  15.732  0.00  0.00    +0.000 A 
ATOM     11  C   UNL     1       5.990   5.071  14.986  0.00  0.00    +0.000 A 
ATOM     12  C   UNL     1       7.102   4.530  15.619  0.00  0.00    +0.000 A 
ATOM     13  C   UNL     1       7.246   4.673  16.998  0.00  0.00    +0.000 A 
ATOM     14  C   UNL     1       6.268   5.337  17.751  0.00  0.00    +0.000 A 
ATOM     15 CL   UNL     1       6.519   5.357  19.465  0.00  0.00    +0.000 Cl
ENDBRANCH   8   9
ENDBRANCH   6   7
BRANCH   1  16
ATOM     16  O   UNL     1       2.479   6.741  20.172  0.00  0.00    +0.000 OA
BRANCH  16  17
ATOM     17  C   UNL     1       1.592   5.830  20.828  0.00  0.00    +0.000 C 
BRANCH  17  18
ATOM     18  C   UNL     1       1.361   4.608  19.943  0.00  0.00    +0.000 C 
BRANCH  18  19
ATOM     19  C   UNL     1       1.994   3.322  20.483  0.00  0.00    +0.000 C 
BRANCH  19  20
ATOM     20  C   UNL     1       2.039   2.156  19.481  0.00  0.00    +0.000 C 
BRANCH  20  22
ATOM     21  C   UNL     1       3.644   2.587  17.702  0.00  0.00    +0.000 C 
ATOM     22  N   UNL     1       3.383   1.862  18.949  0.00  0.00    +0.000 NA
ATOM     23  C   UNL     1       4.401   2.217  19.943  0.00  0.00    +0.000 C 
ENDBRANCH  20  22
ENDBRANCH  19  20
ENDBRANCH  18  19
ENDBRANCH  17  18
ENDBRANCH  16  17
ENDBRANCH   1  16
TORSDOF 8
ENDMDL
MODEL 3
REMARK VINA RESULT:      -6.6      3.968      7.665
REMARK  Name = 
REMARK  10 active torsions:
REMARK  status: ('A' for Active; 'I' for Inactive)
REMARK    1  A    between atoms: C_1  and  N_2
REMARK    2  A    between atoms: N_2  and  C_3
REMARK    3  A    between atoms: N_2  and  C_4
REMARK    4  A    between atoms: C_4  and  C_5
REMARK    5  A    between atoms: C_5  and  C_6
REMARK    6  A    between atoms: C_6  and  C_7
REMARK    7  A    between atoms: C_7  and  O_8
REMARK    8  A    between atoms: O_8  and  C_9
REMARK    9  A    between atoms: C_14  and  C_15
REMARK   10  A    between atoms: C_16  and  C_17
REMARK                            x       y       z     vdW  Elec       q    Type
REMARK                         _______ _______ _______ _____ _____    ______ ____
ROOT
ATOM      1  C   UNL     1       6.910   5.000  15.797  0.00  0.00    +0.000 A 
ATOM      2  C   UNL     1       7.619   5.178  14.600  0.00  0.00    +0.000 A 
ATOM      3  C   UNL     1       7.156   4.638  13.402  0.00  0.00    +0.000 A 
ATOM      4  C   UNL     1       5.968   3.920  13.381  0.00  0.00    +0.000 A 
ATOM      5  C   UNL     1       5.251   3.730  14.564  0.00  0.00    +0.000 A 
ATOM      6  C   UNL     1       5.703   4.261  15.788  0.00  0.00    +0.000 A 
ENDROOT
BRANCH   6   7
ATOM      7  C   UNL     1       4.933   3.871  16.994  0.00  0.00    +0.000 C 
ATOM      8  C   UNL     1       3.665   4.217  17.262  0.00  0.00    +0.000 C 
BRANCH   8   9
ATOM      9  C   UNL     1       2.954   3.985  18.537  0.00  0.00    +0.000 A 
ATOM     10  C   UNL     1       2.427   5.120  19.184  0.00  0.00    +0.000 A 
ATOM     11  C   UNL     1       1.876   5.035  20.468  0.00  0.00    +0.000 A 
ATOM     12  C   UNL     1       1.831   3.813  21.129  0.00  0.00    +0.000 A 
ATOM     13  C   UNL     1       2.331   2.674  20.502  0.00  0.00    +0.000 A 
ATOM     14  C   UNL     1       2.896   2.754  19.222  0.00  0.00    +0.000 A 
ATOM     15 CL   UNL     1       3.569   1.285  18.598  0.00  0.00    +0.000 Cl
ENDBRANCH   8   9
ENDBRANCH   6   7
BRANCH   1  16
ATOM     16  O   UNL     1       7.359   5.483  17.009  0.00  0.00    +0.000 OA
BRANCH  16  17
ATOM     17  C   UNL     1       6.878   6.768  17.414  0.00  0.00    +0.000 C 
BRANCH  17  18
ATOM     18  C   UNL     1       7.989   7.532  18.128  0.00  0.00    +0.000 C 
BRANCH  18  19
ATOM     19  C   UNL     1       8.205   8.953  17.598  0.00  0.00    +0.000 C 
BRANCH  19  20
ATOM     20  C   UNL     1       8.795   9.938  18.621  0.00  0.00    +0.000 C 
BRANCH  20  22
ATOM     21  C   UNL     1       8.759  12.240  17.828  0.00  0.00    +0.000 C 
ATOM     22  N   UNL     1       9.576  11.039  18.026  0.00  0.00    +0.000 NA
ATOM     23  C   UNL     1      10.718  11.363  18.887  0.00  0.00    +0.000 C 
ENDBRANCH  20  22
ENDBRANCH  19  20
ENDBRANCH  18  19
ENDBRANCH  17  18
ENDBRANCH  16  17
ENDBRANCH   1  16
TORSDOF 8
ENDMDL
MODEL 4
REMARK VINA RESULT:      -6.6      3.798      7.529
REMARK  Name = 
REMARK  10 active torsions:
REMARK  status: ('A' for Active; 'I' for Inactive)
REMARK    1  A    between atoms: C_1  and  N_2
REMARK    2  A    between atoms: N_2  and  C_3
REMARK    3  A    between atoms: N_2  and  C_4
REMARK    4  A    between atoms: C_4  and  C_5
REMARK    5  A    between atoms: C_5  and  C_6
REMARK    6  A    between atoms: C_6  and  C_7
REMARK    7  A    between atoms: C_7  and  O_8
REMARK    8  A    between atoms: O_8  and  C_9
REMARK    9  A    between atoms: C_14  and  C_15
REMARK   10  A    between atoms: C_16  and  C_17
REMARK                            x       y       z     vdW  Elec       q    Type
REMARK                         _______ _______ _______ _____ _____    ______ ____
ROOT
ATOM      1  C   UNL     1       6.987   4.824  16.028  0.00  0.00    +0.000 A 
ATOM      2  C   UNL     1       7.648   4.951  14.798  0.00  0.00    +0.000 A 
ATOM      3  C   UNL     1       7.006   4.638  13.601  0.00  0.00    +0.000 A 
ATOM      4  C   UNL     1       5.689   4.204  13.616  0.00  0.00    +0.000 A 
ATOM      5  C   UNL     1       5.017   4.068  14.834  0.00  0.00    +0.000 A 
ATOM      6  C   UNL     1       5.647   4.373  16.056  0.00  0.00    +0.000 A 
ENDROOT
BRANCH   6   7
ATOM      7  C   UNL     1       4.880   4.053  17.284  0.00  0.00    +0.000 C 
ATOM      8  C   UNL     1       3.544   4.047  17.397  0.00  0.00    +0.000 C 
BRANCH   8   9
ATOM      9  C   UNL     1       2.780   3.907  18.655  0.00  0.00    +0.000 A 
ATOM     10  C   UNL     1       2.335   2.613  18.986  0.00  0.00    +0.000 A 
ATOM     11  C   UNL     1       1.473   2.394  20.068  0.00  0.00    +0.000 A 
ATOM     12  C   UNL     1       1.045   3.462  20.846  0.00  0.00    +0.000 A 
ATOM     13  C   UNL     1       1.487   4.750  20.548  0.00  0.00    +0.000 A 
ATOM     14  C   UNL     1       2.339   4.978  19.460  0.00  0.00    +0.000 A 
ATOM     15 CL   UNL     1       2.732   6.634  19.140  0.00  0.00    +0.000 Cl
ENDBRANCH   8   9
ENDBRANCH   6   7
BRANCH   1  16
ATOM     16  O   UNL     1       7.603   5.084  17.235  0.00  0.00    +0.000 OA
BRANCH  16  17
ATOM     17  C   UNL     1       7.099   6.184  17.998  0.00  0.00    +0.000 C 
BRANCH  17  18
ATOM     18  C   UNL     1       7.622   7.496  17.419  0.00  0.00    +0.000 C 
BRANCH  18  19
ATOM     19  C   UNL     1       8.353   8.376  18.437  0.00  0.00    +0.000 C 
BRANCH  19  20
ATOM     20  C   UNL     1       8.449   9.862  18.051  0.00  0.00    +0.000 C 
BRANCH  20  22
ATOM     21  C   UNL     1       9.880  11.828  17.932  0.00  0.00    +0.000 C 
ATOM     22  N   UNL     1       9.608  10.568  18.629  0.00  0.00    +0.000 NA
ATOM     23  C   UNL     1       9.369  10.838  20.051  0.00  0.00    +0.000 C 
ENDBRANCH  20  22
ENDBRANCH  19  20
ENDBRANCH  18  19
ENDBRANCH  17  18
ENDBRANCH  16  17
ENDBRANCH   1  16
TORSDOF 8
ENDMDL
MODEL 5
REMARK VINA RESULT:      -6.6      2.316      4.949
REMARK  Name = 
REMARK  10 active torsions:
REMARK  status: ('A' for Active; 'I' for Inactive)
REMARK    1  A    between atoms: C_1  and  N_2
REMARK    2  A    between atoms: N_2  and  C_3
REMARK    3  A    between atoms: N_2  and  C_4
REMARK    4  A    between atoms: C_4  and  C_5
REMARK    5  A    between atoms: C_5  and  C_6
REMARK    6  A    between atoms: C_6  and  C_7
REMARK    7  A    between atoms: C_7  and  O_8
REMARK    8  A    between atoms: O_8  and  C_9
REMARK    9  A    between atoms: C_14  and  C_15
REMARK   10  A    between atoms: C_16  and  C_17
REMARK                            x       y       z     vdW  Elec       q    Type
REMARK                         _______ _______ _______ _____ _____    ______ ____
ROOT
ATOM      1  C   UNL     1       2.498   5.018  19.522  0.00  0.00    +0.000 A 
ATOM      2  C   UNL     1       1.569   4.583  20.479  0.00  0.00    +0.000 A 
ATOM      3  C   UNL     1       0.906   3.365  20.336  0.00  0.00    +0.000 A 
ATOM      4  C   UNL     1       1.171   2.558  19.239  0.00  0.00    +0.000 A 
ATOM      5  C   UNL     1       2.091   2.978  18.275  0.00  0.00    +0.000 A 
ATOM      6  C   UNL     1       2.768   4.207  18.394  0.00  0.00    +0.000 A 
ENDROOT
BRANCH   6   7
ATOM      7  C   UNL     1       3.608   4.606  17.240  0.00  0.00    +0.000 C 
ATOM      8  C   UNL     1       4.543   3.848  16.650  0.00  0.00    +0.000 C 
BRANCH   8   9
ATOM      9  C   UNL     1       5.505   4.299  15.621  0.00  0.00    +0.000 A 
ATOM     10  C   UNL     1       5.332   3.783  14.323  0.00  0.00    +0.000 A 
ATOM     11  C   UNL     1       6.274   4.020  13.314  0.00  0.00    +0.000 A 
ATOM     12  C   UNL     1       7.404   4.783  13.580  0.00  0.00    +0.000 A 
ATOM     13  C   UNL     1       7.587   5.320  14.853  0.00  0.00    +0.000 A 
ATOM     14  C   UNL     1       6.655   5.076  15.870  0.00  0.00    +0.000 A 
ATOM     15 CL   UNL     1       7.052   5.716  17.431  0.00  0.00    +0.000 Cl
ENDBRANCH   8   9
ENDBRANCH   6   7
BRANCH   1  16
ATOM     16  O   UNL     1       3.141   6.235  19.608  0.00  0.00    +0.000 OA
BRANCH  16  17
ATOM     17  C   UNL     1       2.326   7.408  19.529  0.00  0.00    +0.000 C 
BRANCH  17  18
ATOM     18  C   UNL     1       2.182   7.838  18.072  0.00  0.00    +0.000 C 
BRANCH  18  19
ATOM     19  C   UNL     1       1.995   9.347  17.886  0.00  0.00    +0.000 C 
BRANCH  19  20
ATOM     20  C   UNL     1       0.559   9.849  18.111  0.00  0.00    +0.000 C 
BRANCH  20  22
ATOM     21  C   UNL     1      -0.347  11.908  19.042  0.00  0.00    +0.000 C 
ATOM     22  N   UNL     1       0.384  10.670  19.324  0.00  0.00    +0.000 NA
ATOM     23  C   UNL     1      -0.334   9.901  20.347  0.00  0.00    +0.000 C 
ENDBRANCH  20  22
ENDBRANCH  19  20
ENDBRANCH  18  19
ENDBRANCH  17  18
ENDBRANCH  16  17
ENDBRANCH   1  16
TORSDOF 8
ENDMDL
MODEL 6
REMARK VINA RESULT:      -6.5      1.002      1.243
REMARK  Name = 
REMARK  10 active torsions:
REMARK  status: ('A' for Active; 'I' for Inactive)
REMARK    1  A    between atoms: C_1  and  N_2
REMARK    2  A    between atoms: N_2  and  C_3
REMARK    3  A    between atoms: N_2  and  C_4
REMARK    4  A    between atoms: C_4  and  C_5
REMARK    5  A    between atoms: C_5  and  C_6
REMARK    6  A    between atoms: C_6  and  C_7
REMARK    7  A    between atoms: C_7  and  O_8
REMARK    8  A    between atoms: O_8  and  C_9
REMARK    9  A    between atoms: C_14  and  C_15
REMARK   10  A    between atoms: C_16  and  C_17
REMARK                            x       y       z     vdW  Elec       q    Type
REMARK                         _______ _______ _______ _____ _____    ______ ____
ROOT
ATOM      1  C   UNL     1       2.077   7.554  19.712  0.00  0.00    +0.000 A 
ATOM      2  C   UNL     1       1.257   8.295  20.576  0.00  0.00    +0.000 A 
ATOM      3  C   UNL     1       0.734   9.528  20.190  0.00  0.00    +0.000 A 
ATOM      4  C   UNL     1       1.015  10.034  18.928  0.00  0.00    +0.000 A 
ATOM      5  C   UNL     1       1.834   9.310  18.058  0.00  0.00    +0.000 A 
ATOM      6  C   UNL     1       2.378   8.066  18.428  0.00  0.00    +0.000 A 
ENDROOT
BRANCH   6   7
ATOM      7  C   UNL     1       3.343   7.465  17.476  0.00  0.00    +0.000 C 
ATOM      8  C   UNL     1       3.829   6.217  17.534  0.00  0.00    +0.000 C 
BRANCH   8   9
ATOM      9  C   UNL     1       4.922   5.672  16.700  0.00  0.00    +0.000 A 
ATOM     10  C   UNL     1       4.653   4.477  16.005  0.00  0.00    +0.000 A 
ATOM     11  C   UNL     1       5.663   3.793  15.315  0.00  0.00    +0.000 A 
ATOM     12  C   UNL     1       6.958   4.294  15.298  0.00  0.00    +0.000 A 
ATOM     13  C   UNL     1       7.244   5.484  15.964  0.00  0.00    +0.000 A 
ATOM     14  C   UNL     1       6.242   6.166  16.667  0.00  0.00    +0.000 A 
ATOM     15 CL   UNL     1       6.752   7.578  17.533  0.00  0.00    +0.000 Cl
ENDBRANCH   8   9
ENDBRANCH   6   7
BRANCH   1  16
ATOM     16  O   UNL     1       2.646   6.351  20.075  0.00  0.00    +0.000 OA
BRANCH  16  17
ATOM     17  C   UNL     1       1.821   5.435  20.800  0.00  0.00    +0.000 C 
BRANCH  17  18
ATOM     18  C   UNL     1       1.202   4.425  19.837  0.00  0.00    +0.000 C 
BRANCH  18  19
ATOM     19  C   UNL     1       1.442   2.964  20.230  0.00  0.00    +0.000 C 
BRANCH  19  20
ATOM     20  C   UNL     1       2.826   2.680  20.838  0.00  0.00    +0.000 C 
BRANCH  20  22
ATOM     21  C   UNL     1       3.232   1.726  18.636  0.00  0.00    +0.000 C 
ATOM     22  N   UNL     1       3.843   2.249  19.861  0.00  0.00    +0.000 NA
ATOM     23  C   UNL     1       4.722   3.374  19.527  0.00  0.00    +0.000 C 
ENDBRANCH  20  22
ENDBRANCH  19  20
ENDBRANCH  18  19
ENDBRANCH  17  18
ENDBRANCH  16  17
ENDBRANCH   1  16
TORSDOF 8
ENDMDL
MODEL 7
REMARK VINA RESULT:      -6.5      2.665      6.450
REMARK  Name = 
REMARK  10 active torsions:
REMARK  status: ('A' for Active; 'I' for Inactive)
REMARK    1  A    between atoms: C_1  and  N_2
REMARK    2  A    between atoms: N_2  and  C_3
REMARK    3  A    between atoms: N_2  and  C_4
REMARK    4  A    between atoms: C_4  and  C_5
REMARK    5  A    between atoms: C_5  and  C_6
REMARK    6  A    between atoms: C_6  and  C_7
REMARK    7  A    between atoms: C_7  and  O_8
REMARK    8  A    between atoms: O_8  and  C_9
REMARK    9  A    between atoms: C_14  and  C_15
REMARK   10  A    between atoms: C_16  and  C_17
REMARK                            x       y       z     vdW  Elec       q    Type
REMARK                         _______ _______ _______ _____ _____    ______ ____
ROOT
ATOM      1  C   UNL     1       3.351   4.419  18.866  0.00  0.00    +0.000 A 
ATOM      2  C   UNL     1       3.648   3.095  19.220  0.00  0.00    +0.000 A 
ATOM      3  C   UNL     1       3.197   2.553  20.423  0.00  0.00    +0.000 A 
ATOM      4  C   UNL     1       2.433   3.327  21.285  0.00  0.00    +0.000 A 
ATOM      5  C   UNL     1       2.132   4.649  20.949  0.00  0.00    +0.000 A 
ATOM      6  C   UNL     1       2.581   5.219  19.743  0.00  0.00    +0.000 A 
ENDROOT
BRANCH   6   7
ATOM      7  C   UNL     1       2.320   6.668  19.567  0.00  0.00    +0.000 C 
ATOM      8  C   UNL     1       1.673   7.460  20.434  0.00  0.00    +0.000 C 
BRANCH   8   9
ATOM      9  C   UNL     1       1.252   8.856  20.187  0.00  0.00    +0.000 A 
ATOM     10  C   UNL     1       1.458   9.359  18.888  0.00  0.00    +0.000 A 
ATOM     11  C   UNL     1       1.243  10.710  18.588  0.00  0.00    +0.000 A 
ATOM     12  C   UNL     1       0.810  11.584  19.577  0.00  0.00    +0.000 A 
ATOM     13  C   UNL     1       0.582  11.105  20.866  0.00  0.00    +0.000 A 
ATOM     14  C   UNL     1       0.808   9.757  21.176  0.00  0.00    +0.000 A 
ATOM     15 CL   UNL     1       0.583   9.314  22.836  0.00  0.00    +0.000 Cl
ENDBRANCH   8   9
ENDBRANCH   6   7
BRANCH   1  16
ATOM     16  O   UNL     1       3.815   5.002  17.705  0.00  0.00    +0.000 OA
BRANCH  16  17
ATOM     17  C   UNL     1       4.566   4.170  16.816  0.00  0.00    +0.000 C 
BRANCH  17  18
ATOM     18  C   UNL     1       5.187   5.022  15.712  0.00  0.00    +0.000 C 
BRANCH  18  19
ATOM     19  C   UNL     1       6.710   5.147  15.806  0.00  0.00    +0.000 C 
BRANCH  19  20
ATOM     20  C   UNL     1       7.318   4.636  17.124  0.00  0.00    +0.000 C 
BRANCH  20  22
ATOM     21  C   UNL     1       7.531   7.034  17.481  0.00  0.00    +0.000 C 
ATOM     22  N   UNL     1       7.770   5.700  18.039  0.00  0.00    +0.000 NA
ATOM     23  C   UNL     1       7.076   5.579  19.326  0.00  0.00    +0.000 C 
ENDBRANCH  20  22
ENDBRANCH  19  20
ENDBRANCH  18  19
ENDBRANCH  17  18
ENDBRANCH  16  17
ENDBRANCH   1  16
TORSDOF 8
ENDMDL
MODEL 8
REMARK VINA RESULT:      -6.4      2.612      6.222
REMARK  Name = 
REMARK  10 active torsions:
REMARK  status: ('A' for Active; 'I' for Inactive)
REMARK    1  A    between atoms: C_1  and  N_2
REMARK    2  A    between atoms: N_2  and  C_3
REMARK    3  A    between atoms: N_2  and  C_4
REMARK    4  A    between atoms: C_4  and  C_5
REMARK    5  A    between atoms: C_5  and  C_6
REMARK    6  A    between atoms: C_6  and  C_7
REMARK    7  A    between atoms: C_7  and  O_8
REMARK    8  A    between atoms: O_8  and  C_9
REMARK    9  A    between atoms: C_14  and  C_15
REMARK   10  A    between atoms: C_16  and  C_17
REMARK                            x       y       z     vdW  Elec       q    Type
REMARK                         _______ _______ _______ _____ _____    ______ ____
ROOT
ATOM      1  C   UNL     1       3.487   3.797  19.662  0.00  0.00    +0.000 A 
ATOM      2  C   UNL     1       3.698   2.574  20.316  0.00  0.00    +0.000 A 
ATOM      3  C   UNL     1       2.814   2.118  21.292  0.00  0.00    +0.000 A 
ATOM      4  C   UNL     1       1.699   2.875  21.621  0.00  0.00    +0.000 A 
ATOM      5  C   UNL     1       1.476   4.097  20.983  0.00  0.00    +0.000 A 
ATOM      6  C   UNL     1       2.358   4.581  19.998  0.00  0.00    +0.000 A 
ENDROOT
BRANCH   6   7
ATOM      7  C   UNL     1       2.093   5.951  19.498  0.00  0.00    +0.000 C 
ATOM      8  C   UNL     1       1.958   7.050  20.254  0.00  0.00    +0.000 C 
BRANCH   8   9
ATOM      9  C   UNL     1       1.516   8.380  19.781  0.00  0.00    +0.000 A 
ATOM     10  C   UNL     1       1.928   8.762  18.490  0.00  0.00    +0.000 A 
ATOM     11  C   UNL     1       1.701  10.057  18.007  0.00  0.00    +0.000 A 
ATOM     12  C   UNL     1       1.050  10.993  18.800  0.00  0.00    +0.000 A 
ATOM     13  C   UNL     1       0.616  10.632  20.075  0.00  0.00    +0.000 A 
ATOM     14  C   UNL     1       0.853   9.343  20.569  0.00  0.00    +0.000 A 
ATOM     15 CL   UNL     1       0.352   9.055  22.203  0.00  0.00    +0.000 Cl
ENDBRANCH   8   9
ENDBRANCH   6   7
BRANCH   1  16
ATOM     16  O   UNL     1       4.362   4.300  18.721  0.00  0.00    +0.000 OA
BRANCH  16  17
ATOM     17  C   UNL     1       4.328   3.708  17.420  0.00  0.00    +0.000 C 
BRANCH  17  18
ATOM     18  C   UNL     1       5.031   4.621  16.419  0.00  0.00    +0.000 C 
BRANCH  18  19
ATOM     19  C   UNL     1       6.466   4.199  16.095  0.00  0.00    +0.000 C 
BRANCH  19  20
ATOM     20  C   UNL     1       7.532   4.744  17.061  0.00  0.00    +0.000 C 
BRANCH  20  22
ATOM     21  C   UNL     1       7.479   5.766  19.270  0.00  0.00    +0.000 C 
ATOM     22  N   UNL     1       7.091   5.901  17.863  0.00  0.00    +0.000 NA
ATOM     23  C   UNL     1       7.665   7.135  17.314  0.00  0.00    +0.000 C 
ENDBRANCH  20  22
ENDBRANCH  19  20
ENDBRANCH  18  19
ENDBRANCH  17  18
ENDBRANCH  16  17
ENDBRANCH   1  16
TORSDOF 8
ENDMDL
MODEL 9
REMARK VINA RESULT:      -6.3      2.303      6.554
REMARK  Name = 
REMARK  10 active torsions:
REMARK  status: ('A' for Active; 'I' for Inactive)
REMARK    1  A    between atoms: C_1  and  N_2
REMARK    2  A    between atoms: N_2  and  C_3
REMARK    3  A    between atoms: N_2  and  C_4
REMARK    4  A    between atoms: C_4  and  C_5
REMARK    5  A    between atoms: C_5  and  C_6
REMARK    6  A    between atoms: C_6  and  C_7
REMARK    7  A    between atoms: C_7  and  O_8
REMARK    8  A    between atoms: O_8  and  C_9
REMARK    9  A    between atoms: C_14  and  C_15
REMARK   10  A    between atoms: C_16  and  C_17
REMARK                            x       y       z     vdW  Elec       q    Type
REMARK                         _______ _______ _______ _____ _____    ______ ____
ROOT
ATOM      1  C   UNL     1       3.678   4.253  19.590  0.00  0.00    +0.000 A 
ATOM      2  C   UNL     1       4.034   2.955  19.194  0.00  0.00    +0.000 A 
ATOM      3  C   UNL     1       3.073   1.956  19.056  0.00  0.00    +0.000 A 
ATOM      4  C   UNL     1       1.738   2.243  19.302  0.00  0.00    +0.000 A 
ATOM      5  C   UNL     1       1.366   3.530  19.700  0.00  0.00    +0.000 A 
ATOM      6  C   UNL     1       2.321   4.554  19.852  0.00  0.00    +0.000 A 
ENDROOT
BRANCH   6   7
ATOM      7  C   UNL     1       1.825   5.832  20.416  0.00  0.00    +0.000 C 
ATOM      8  C   UNL     1       1.645   6.973  19.735  0.00  0.00    +0.000 C 
BRANCH   8   9
ATOM      9  C   UNL     1       1.325   8.292  20.322  0.00  0.00    +0.000 A 
ATOM     10  C   UNL     1       1.112   8.332  21.713  0.00  0.00    +0.000 A 
ATOM     11  C   UNL     1       0.651   9.493  22.346  0.00  0.00    +0.000 A 
ATOM     12  C   UNL     1       0.402  10.640  21.604  0.00  0.00    +0.000 A 
ATOM     13  C   UNL     1       0.622  10.630  20.227  0.00  0.00    +0.000 A 
ATOM     14  C   UNL     1       1.071   9.468  19.586  0.00  0.00    +0.000 A 
ATOM     15 CL   UNL     1       1.208   9.560  17.862  0.00  0.00    +0.000 Cl
ENDBRANCH   8   9
ENDBRANCH   6   7
BRANCH   1  16
ATOM     16  O   UNL     1       4.607   5.256  19.777  0.00  0.00    +0.000 OA
BRANCH  16  17
ATOM     17  C   UNL     1       5.492   5.533  18.688  0.00  0.00    +0.000 C 
BRANCH  17  18
ATOM     18  C   UNL     1       4.764   6.355  17.628  0.00  0.00    +0.000 C 
BRANCH  18  19
ATOM     19  C   UNL     1       5.389   6.263  16.233  0.00  0.00    +0.000 C 
BRANCH  19  20
ATOM     20  C   UNL     1       6.865   5.829  16.217  0.00  0.00    +0.000 C 
BRANCH  20  22
ATOM     21  C   UNL     1       6.060   3.661  15.455  0.00  0.00    +0.000 C 
ATOM     22  N   UNL     1       7.142   4.647  15.379  0.00  0.00    +0.000 NA
ATOM     23  C   UNL     1       7.329   5.058  13.983  0.00  0.00    +0.000 C 
ENDBRANCH  20  22
ENDBRANCH  19  20
ENDBRANCH  18  19
ENDBRANCH  17  18
ENDBRANCH  16  17
ENDBRANCH   1  16
TORSDOF 8
ENDMDL
