MODEL 1
REMARK VINA RESULT:      -8.2      0.000      0.000
REMARK  Name = 
REMARK  6 active torsions:
REMARK  status: ('A' for Active; 'I' for Inactive)
REMARK    1  A    between atoms: O_1  and  N_2
REMARK    2  A    between atoms: N_2  and  C_3
REMARK    3  A    between atoms: N_2  and  C_12
REMARK    4  A    between atoms: C_3  and  C_4
REMARK    5  A    between atoms: C_5  and  C_6
REMARK    6  A    between atoms: C_12  and  C_13
REMARK                            x       y       z     vdW  Elec       q    Type
REMARK                         _______ _______ _______ _____ _____    ______ ____
ROOT
ATOM      1  N   UNL     1       6.947   6.688  18.347  0.00  0.00    +0.000 NA
ENDROOT
BRANCH   1   2
ATOM      2  O   UNL     1       7.997   6.052  19.122  0.00  0.00    +0.000 OA
ATOM      3  H   UNL     1       8.180   5.273  18.562  0.00  0.00    +0.000 HD
ENDBRANCH   1   2
BRANCH   1   4
ATOM      4  C   UNL     1       7.594   7.680  17.472  0.00  0.00    +0.000 C 
BRANCH   4   5
ATOM      5  C   UNL     1       8.535   8.507  18.282  0.00  0.00    +0.000 C 
ATOM      6  C   UNL     1       8.569   9.839  18.188  0.00  0.00    +0.000 C 
BRANCH   6   7
ATOM      7  C   UNL     1       9.561  10.625  18.908  0.00  0.00    +0.000 A 
ATOM      8  C   UNL     1       9.375  10.861  20.282  0.00  0.00    +0.000 A 
ATOM      9  C   UNL     1      10.097  11.869  20.902  0.00  0.00    +0.000 A 
ATOM     10  C   UNL     1      11.101  12.556  20.212  0.00  0.00    +0.000 A 
ATOM     11  C   UNL     1      11.348  12.232  18.888  0.00  0.00    +0.000 A 
ATOM     12  C   UNL     1      10.586  11.287  18.214  0.00  0.00    +0.000 A 
ENDBRANCH   6   7
ENDBRANCH   4   5
ENDBRANCH   1   4
BRANCH   1  13
ATOM     13  C   UNL     1       6.290   5.652  17.557  0.00  0.00    +0.000 C 
BRANCH  13  14
ATOM     14  C   UNL     1       4.761   5.842  17.574  0.00  0.00    +0.000 A 
ATOM     15  C   UNL     1       4.343   7.206  17.554  0.00  0.00    +0.000 A 
ATOM     16  C   UNL     1       3.023   7.483  17.826  0.00  0.00    +0.000 A 
ATOM     17  C   UNL     1       2.172   6.412  18.081  0.00  0.00    +0.000 A 
ATOM     18  C   UNL     1       2.578   5.053  18.083  0.00  0.00    +0.000 A 
ATOM     19  C   UNL     1       1.714   4.065  18.495  0.00  0.00    +0.000 A 
ATOM     20  C   UNL     1       2.033   2.677  18.704  0.00  0.00    +0.000 A 
ATOM     21  C   UNL     1       2.772   2.037  17.768  0.00  0.00    +0.000 A 
ATOM     22  C   UNL     1       3.737   3.025  17.504  0.00  0.00    +0.000 A 
ATOM     23  C   UNL     1       3.790   4.632  17.668  0.00  0.00    +0.000 A 
ENDBRANCH  13  14
ENDBRANCH   1  13
TORSDOF 6
ENDMDL
MODEL 2
REMARK VINA RESULT:      -8.2      4.439      6.083
REMARK  Name = 
REMARK  6 active torsions:
REMARK  status: ('A' for Active; 'I' for Inactive)
REMARK    1  A    between atoms: O_1  and  N_2
REMARK    2  A    between atoms: N_2  and  C_3
REMARK    3  A    between atoms: N_2  and  C_12
REMARK    4  A    between atoms: C_3  and  C_4
REMARK    5  A    between atoms: C_5  and  C_6
REMARK    6  A    between atoms: C_12  and  C_13
REMARK                            x       y       z     vdW  Elec       q    Type
REMARK                         _______ _______ _______ _____ _____    ______ ____
ROOT
ATOM      1  N   UNL     1       7.102   5.725  18.545  0.00  0.00    +0.000 NA
ENDROOT
BRANCH   1   2
ATOM      2  O   UNL     1       8.176   6.412  19.240  0.00  0.00    +0.000 OA
ATOM      3  H   UNL     1       7.659   7.008  19.815  0.00  0.00    +0.000 HD
ENDBRANCH   1   2
BRANCH   1   4
ATOM      4  C   UNL     1       7.695   4.551  17.884  0.00  0.00    +0.000 C 
BRANCH   4   5
ATOM      5  C   UNL     1       7.586   4.714  16.406  0.00  0.00    +0.000 C 
ATOM      6  C   UNL     1       6.538   4.253  15.716  0.00  0.00    +0.000 C 
BRANCH   6   7
ATOM      7  C   UNL     1       6.494   4.329  14.264  0.00  0.00    +0.000 A 
ATOM      8  C   UNL     1       5.550   3.551  13.569  0.00  0.00    +0.000 A 
ATOM      9  C   UNL     1       5.711   3.342  12.209  0.00  0.00    +0.000 A 
ATOM     10  C   UNL     1       6.716   4.006  11.499  0.00  0.00    +0.000 A 
ATOM     11  C   UNL     1       7.569   4.859  12.180  0.00  0.00    +0.000 A 
ATOM     12  C   UNL     1       7.488   5.024  13.556  0.00  0.00    +0.000 A 
ENDBRANCH   6   7
ENDBRANCH   4   5
ENDBRANCH   1   4
BRANCH   1  13
ATOM     13  C   UNL     1       6.120   5.316  19.545  0.00  0.00    +0.000 C 
BRANCH  13  14
ATOM     14  C   UNL     1       4.692   5.401  18.970  0.00  0.00    +0.000 A 
ATOM     15  C   UNL     1       4.519   6.421  17.987  0.00  0.00    +0.000 A 
ATOM     16  C   UNL     1       3.237   6.744  17.609  0.00  0.00    +0.000 A 
ATOM     17  C   UNL     1       2.188   6.039  18.191  0.00  0.00    +0.000 A 
ATOM     18  C   UNL     1       2.356   5.011  19.154  0.00  0.00    +0.000 A 
ATOM     19  C   UNL     1       1.266   4.468  19.795  0.00  0.00    +0.000 A 
ATOM     20  C   UNL     1       1.291   3.544  20.899  0.00  0.00    +0.000 A 
ATOM     21  C   UNL     1       2.141   2.492  20.839  0.00  0.00    +0.000 A 
ATOM     22  C   UNL     1       3.287   3.133  20.337  0.00  0.00    +0.000 A 
ATOM     23  C   UNL     1       3.551   4.481  19.484  0.00  0.00    +0.000 A 
ENDBRANCH  13  14
ENDBRANCH   1  13
TORSDOF 6
ENDMDL
MODEL 3
REMARK VINA RESULT:      -8.2      4.643      7.207
REMARK  Name = 
REMARK  6 active torsions:
REMARK  status: ('A' for Active; 'I' for Inactive)
REMARK    1  A    between atoms: O_1  and  N_2
REMARK    2  A    between atoms: N_2  and  C_3
REMARK    3  A    between atoms: N_2  and  C_12
REMARK    4  A    between atoms: C_3  and  C_4
REMARK    5  A    between atoms: C_5  and  C_6
REMARK    6  A    between atoms: C_12  and  C_13
REMARK                            x       y       z     vdW  Elec       q    Type
REMARK                         _______ _______ _______ _____ _____    ______ ____
ROOT
ATOM      1  N   UNL     1       6.444   5.022  16.952  0.00  0.00    +0.000 NA
ENDROOT
BRANCH   1   2
ATOM      2  O   UNL     1       7.457   4.165  17.540  0.00  0.00    +0.000 OA
ATOM      3  H   UNL     1       7.253   4.276  18.488  0.00  0.00    +0.000 HD
ENDBRANCH   1   2
BRANCH   1   4
ATOM      4  C   UNL     1       6.950   5.454  15.639  0.00  0.00    +0.000 C 
BRANCH   4   5
ATOM      5  C   UNL     1       6.543   4.458  14.606  0.00  0.00    +0.000 C 
ATOM      6  C   UNL     1       7.058   4.465  13.373  0.00  0.00    +0.000 C 
BRANCH   6   7
ATOM      7  C   UNL     1       6.578   3.552  12.346  0.00  0.00    +0.000 A 
ATOM      8  C   UNL     1       5.195   3.460  12.109  0.00  0.00    +0.000 A 
ATOM      9  C   UNL     1       4.697   2.376  11.404  0.00  0.00    +0.000 A 
ATOM     10  C   UNL     1       5.563   1.453  10.809  0.00  0.00    +0.000 A 
ATOM     11  C   UNL     1       6.929   1.622  10.958  0.00  0.00    +0.000 A 
ATOM     12  C   UNL     1       7.458   2.648  11.730  0.00  0.00    +0.000 A 
ENDBRANCH   6   7
ENDBRANCH   4   5
ENDBRANCH   1   4
BRANCH   1  13
ATOM     13  C   UNL     1       5.227   4.230  16.803  0.00  0.00    +0.000 C 
BRANCH  13  14
ATOM     14  C   UNL     1       4.024   4.956  17.437  0.00  0.00    +0.000 A 
ATOM     15  C   UNL     1       4.143   6.378  17.450  0.00  0.00    +0.000 A 
ATOM     16  C   UNL     1       3.254   7.094  18.217  0.00  0.00    +0.000 A 
ATOM     17  C   UNL     1       2.278   6.389  18.914  0.00  0.00    +0.000 A 
ATOM     18  C   UNL     1       2.144   4.977  18.889  0.00  0.00    +0.000 A 
ATOM     19  C   UNL     1       1.253   4.344  19.725  0.00  0.00    +0.000 A 
ATOM     20  C   UNL     1       1.124   2.924  19.926  0.00  0.00    +0.000 A 
ATOM     21  C   UNL     1       1.119   2.117  18.839  0.00  0.00    +0.000 A 
ATOM     22  C   UNL     1       2.157   2.705  18.095  0.00  0.00    +0.000 A 
ATOM     23  C   UNL     1       2.832   4.174  18.053  0.00  0.00    +0.000 A 
ENDBRANCH  13  14
ENDBRANCH   1  13
TORSDOF 6
ENDMDL
MODEL 4
REMARK VINA RESULT:      -8.1      4.243      5.891
REMARK  Name = 
REMARK  6 active torsions:
REMARK  status: ('A' for Active; 'I' for Inactive)
REMARK    1  A    between atoms: O_1  and  N_2
REMARK    2  A    between atoms: N_2  and  C_3
REMARK    3  A    between atoms: N_2  and  C_12
REMARK    4  A    between atoms: C_3  and  C_4
REMARK    5  A    between atoms: C_5  and  C_6
REMARK    6  A    between atoms: C_12  and  C_13
REMARK                            x       y       z     vdW  Elec       q    Type
REMARK                         _______ _______ _______ _____ _____    ______ ____
ROOT
ATOM      1  N   UNL     1       7.107   5.838  18.336  0.00  0.00    +0.000 NA
ENDROOT
BRANCH   1   2
ATOM      2  O   UNL     1       8.080   6.668  19.024  0.00  0.00    +0.000 OA
ATOM      3  H   UNL     1       8.183   6.165  19.854  0.00  0.00    +0.000 HD
ENDBRANCH   1   2
BRANCH   1   4
ATOM      4  C   UNL     1       7.784   4.580  17.980  0.00  0.00    +0.000 C 
BRANCH   4   5
ATOM      5  C   UNL     1       7.570   4.303  16.530  0.00  0.00    +0.000 C 
ATOM      6  C   UNL     1       6.837   5.107  15.754  0.00  0.00    +0.000 C 
BRANCH   6   7
ATOM      7  C   UNL     1       6.554   4.770  14.367  0.00  0.00    +0.000 A 
ATOM      8  C   UNL     1       5.390   4.038  14.068  0.00  0.00    +0.000 A 
ATOM      9  C   UNL     1       5.276   3.418  12.835  0.00  0.00    +0.000 A 
ATOM     10  C   UNL     1       6.236   3.625  11.840  0.00  0.00    +0.000 A 
ATOM     11  C   UNL     1       7.321   4.441  12.113  0.00  0.00    +0.000 A 
ATOM     12  C   UNL     1       7.509   5.008  13.367  0.00  0.00    +0.000 A 
ENDBRANCH   6   7
ENDBRANCH   4   5
ENDBRANCH   1   4
BRANCH   1  13
ATOM     13  C   UNL     1       6.006   5.590  19.261  0.00  0.00    +0.000 C 
BRANCH  13  14
ATOM     14  C   UNL     1       4.649   5.751  18.547  0.00  0.00    +0.000 A 
ATOM     15  C   UNL     1       4.280   7.106  18.295  0.00  0.00    +0.000 A 
ATOM     16  C   UNL     1       2.987   7.362  17.903  0.00  0.00    +0.000 A 
ATOM     17  C   UNL     1       2.125   6.279  17.752  0.00  0.00    +0.000 A 
ATOM     18  C   UNL     1       2.493   4.929  17.982  0.00  0.00    +0.000 A 
ATOM     19  C   UNL     1       1.545   3.932  17.961  0.00  0.00    +0.000 A 
ATOM     20  C   UNL     1       1.738   2.555  18.332  0.00  0.00    +0.000 A 
ATOM     21  C   UNL     1       2.838   1.912  17.874  0.00  0.00    +0.000 A 
ATOM     22  C   UNL     1       3.805   2.913  18.074  0.00  0.00    +0.000 A 
ATOM     23  C   UNL     1       3.761   4.525  18.201  0.00  0.00    +0.000 A 
ENDBRANCH  13  14
ENDBRANCH   1  13
TORSDOF 6
ENDMDL
MODEL 5
REMARK VINA RESULT:      -8.1      1.459      2.056
REMARK  Name = 
REMARK  6 active torsions:
REMARK  status: ('A' for Active; 'I' for Inactive)
REMARK    1  A    between atoms: O_1  and  N_2
REMARK    2  A    between atoms: N_2  and  C_3
REMARK    3  A    between atoms: N_2  and  C_12
REMARK    4  A    between atoms: C_3  and  C_4
REMARK    5  A    between atoms: C_5  and  C_6
REMARK    6  A    between atoms: C_12  and  C_13
REMARK                            x       y       z     vdW  Elec       q    Type
REMARK                         _______ _______ _______ _____ _____    ______ ____
ROOT
ATOM      1  N   UNL     1       7.412   6.111  18.616  0.00  0.00    +0.000 NA
ENDROOT
BRANCH   1   2
ATOM      2  O   UNL     1       8.375   6.227  19.696  0.00  0.00    +0.000 OA
ATOM      3  H   UNL     1       9.066   5.614  19.381  0.00  0.00    +0.000 HD
ENDBRANCH   1   2
BRANCH   1   4
ATOM      4  C   UNL     1       7.570   7.300  17.764  0.00  0.00    +0.000 C 
BRANCH   4   5
ATOM      5  C   UNL     1       8.495   8.262  18.432  0.00  0.00    +0.000 C 
ATOM      6  C   UNL     1       8.454   9.574  18.183  0.00  0.00    +0.000 C 
BRANCH   6   7
ATOM      7  C   UNL     1       9.428  10.486  18.765  0.00  0.00    +0.000 A 
ATOM      8  C   UNL     1       9.441  10.670  20.159  0.00  0.00    +0.000 A 
ATOM      9  C   UNL     1      10.103  11.763  20.694  0.00  0.00    +0.000 A 
ATOM     10  C   UNL     1      10.869  12.603  19.880  0.00  0.00    +0.000 A 
ATOM     11  C   UNL     1      10.938  12.340  18.521  0.00  0.00    +0.000 A 
ATOM     12  C   UNL     1      10.218  11.304  17.942  0.00  0.00    +0.000 A 
ENDBRANCH   6   7
ENDBRANCH   4   5
ENDBRANCH   1   4
BRANCH   1  13
ATOM     13  C   UNL     1       7.727   4.895  17.872  0.00  0.00    +0.000 C 
BRANCH  13  14
ATOM     14  C   UNL     1       6.503   4.418  17.066  0.00  0.00    +0.000 A 
ATOM     15  C   UNL     1       6.702   4.409  15.653  0.00  0.00    +0.000 A 
ATOM     16  C   UNL     1       5.601   4.250  14.845  0.00  0.00    +0.000 A 
ATOM     17  C   UNL     1       4.362   4.084  15.457  0.00  0.00    +0.000 A 
ATOM     18  C   UNL     1       4.161   4.073  16.861  0.00  0.00    +0.000 A 
ATOM     19  C   UNL     1       2.890   4.058  17.386  0.00  0.00    +0.000 A 
ATOM     20  C   UNL     1       2.530   4.208  18.772  0.00  0.00    +0.000 A 
ATOM     21  C   UNL     1       3.229   3.510  19.697  0.00  0.00    +0.000 A 
ATOM     22  C   UNL     1       4.534   3.697  19.209  0.00  0.00    +0.000 A 
ATOM     23  C   UNL     1       5.165   4.046  17.761  0.00  0.00    +0.000 A 
ENDBRANCH  13  14
ENDBRANCH   1  13
TORSDOF 6
ENDMDL
MODEL 6
REMARK VINA RESULT:      -7.9      5.460      9.251
REMARK  Name = 
REMARK  6 active torsions:
REMARK  status: ('A' for Active; 'I' for Inactive)
REMARK    1  A    between atoms: O_1  and  N_2
REMARK    2  A    between atoms: N_2  and  C_3
REMARK    3  A    between atoms: N_2  and  C_12
REMARK    4  A    between atoms: C_3  and  C_4
REMARK    5  A    between atoms: C_5  and  C_6
REMARK    6  A    between atoms: C_12  and  C_13
REMARK                            x       y       z     vdW  Elec       q    Type
REMARK                         _______ _______ _______ _____ _____    ______ ____
ROOT
ATOM      1  N   UNL     1       1.692   9.451  17.687  0.00  0.00    +0.000 NA
ENDROOT
BRANCH   1   2
ATOM      2  O   UNL     1       2.237  10.774  17.445  0.00  0.00    +0.000 OA
ATOM      3  H   UNL     1       3.151  10.649  17.763  0.00  0.00    +0.000 HD
ENDBRANCH   1   2
BRANCH   1   4
ATOM      4  C   UNL     1       2.815   8.501  17.625  0.00  0.00    +0.000 C 
BRANCH   4   5
ATOM      5  C   UNL     1       2.488   7.302  18.450  0.00  0.00    +0.000 C 
ATOM      6  C   UNL     1       2.574   6.061  17.962  0.00  0.00    +0.000 C 
BRANCH   6   7
ATOM      7  C   UNL     1       2.155   4.908  18.744  0.00  0.00    +0.000 A 
ATOM      8  C   UNL     1       1.701   3.758  18.073  0.00  0.00    +0.000 A 
ATOM      9  C   UNL     1       0.985   2.801  18.774  0.00  0.00    +0.000 A 
ATOM     10  C   UNL     1       0.831   2.897  20.161  0.00  0.00    +0.000 A 
ATOM     11  C   UNL     1       1.383   3.981  20.824  0.00  0.00    +0.000 A 
ATOM     12  C   UNL     1       2.032   5.001  20.140  0.00  0.00    +0.000 A 
ENDBRANCH   6   7
ENDBRANCH   4   5
ENDBRANCH   1   4
BRANCH   1  13
ATOM     13  C   UNL     1       1.091   9.457  19.017  0.00  0.00    +0.000 C 
BRANCH  13  14
ATOM     14  C   UNL     1      -0.292  10.136  18.986  0.00  0.00    +0.000 A 
ATOM     15  C   UNL     1      -0.986   9.989  17.748  0.00  0.00    +0.000 A 
ATOM     16  C   UNL     1      -2.099  10.768  17.533  0.00  0.00    +0.000 A 
ATOM     17  C   UNL     1      -2.494  11.634  18.548  0.00  0.00    +0.000 A 
ATOM     18  C   UNL     1      -1.819  11.769  19.788  0.00  0.00    +0.000 A 
ATOM     19  C   UNL     1      -2.180  12.755  20.677  0.00  0.00    +0.000 A 
ATOM     20  C   UNL     1      -1.490  13.115  21.888  0.00  0.00    +0.000 A 
ATOM     21  C   UNL     1      -1.078  12.124  22.713  0.00  0.00    +0.000 A 
ATOM     22  C   UNL     1      -0.567  11.218  21.768  0.00  0.00    +0.000 A 
ATOM     23  C   UNL     1      -0.826  10.952  20.195  0.00  0.00    +0.000 A 
ENDBRANCH  13  14
ENDBRANCH   1  13
TORSDOF 6
ENDMDL
MODEL 7
REMARK VINA RESULT:      -7.9      1.481      2.287
REMARK  Name = 
REMARK  6 active torsions:
REMARK  status: ('A' for Active; 'I' for Inactive)
REMARK    1  A    between atoms: O_1  and  N_2
REMARK    2  A    between atoms: N_2  and  C_3
REMARK    3  A    between atoms: N_2  and  C_12
REMARK    4  A    between atoms: C_3  and  C_4
REMARK    5  A    between atoms: C_5  and  C_6
REMARK    6  A    between atoms: C_12  and  C_13
REMARK                            x       y       z     vdW  Elec       q    Type
REMARK                         _______ _______ _______ _____ _____    ______ ____
ROOT
ATOM      1  N   UNL     1       7.436   6.143  18.623  0.00  0.00    +0.000 NA
ENDROOT
BRANCH   1   2
ATOM      2  O   UNL     1       8.389   6.292  19.707  0.00  0.00    +0.000 OA
ATOM      3  H   UNL     1       8.179   5.500  20.237  0.00  0.00    +0.000 HD
ENDBRANCH   1   2
BRANCH   1   4
ATOM      4  C   UNL     1       7.623   7.288  17.719  0.00  0.00    +0.000 C 
BRANCH   4   5
ATOM      5  C   UNL     1       8.239   8.416  18.477  0.00  0.00    +0.000 C 
ATOM      6  C   UNL     1       8.688   9.518  17.870  0.00  0.00    +0.000 C 
BRANCH   6   7
ATOM      7  C   UNL     1       9.378  10.564  18.610  0.00  0.00    +0.000 A 
ATOM      8  C   UNL     1      10.226  11.444  17.915  0.00  0.00    +0.000 A 
ATOM      9  C   UNL     1      11.142  12.206  18.623  0.00  0.00    +0.000 A 
ATOM     10  C   UNL     1      11.136  12.213  20.022  0.00  0.00    +0.000 A 
ATOM     11  C   UNL     1      10.215  11.424  20.693  0.00  0.00    +0.000 A 
ATOM     12  C   UNL     1       9.343  10.584  20.014  0.00  0.00    +0.000 A 
ENDBRANCH   6   7
ENDBRANCH   4   5
ENDBRANCH   1   4
BRANCH   1  13
ATOM     13  C   UNL     1       7.737   4.888  17.940  0.00  0.00    +0.000 C 
BRANCH  13  14
ATOM     14  C   UNL     1       6.554   4.455  17.052  0.00  0.00    +0.000 A 
ATOM     15  C   UNL     1       6.807   4.559  15.652  0.00  0.00    +0.000 A 
ATOM     16  C   UNL     1       5.741   4.446  14.791  0.00  0.00    +0.000 A 
ATOM     17  C   UNL     1       4.483   4.212  15.338  0.00  0.00    +0.000 A 
ATOM     18  C   UNL     1       4.229   4.089  16.728  0.00  0.00    +0.000 A 
ATOM     19  C   UNL     1       2.938   4.013  17.200  0.00  0.00    +0.000 A 
ATOM     20  C   UNL     1       2.524   4.048  18.577  0.00  0.00    +0.000 A 
ATOM     21  C   UNL     1       3.200   3.292  19.474  0.00  0.00    +0.000 A 
ATOM     22  C   UNL     1       4.518   3.538  19.053  0.00  0.00    +0.000 A 
ATOM     23  C   UNL     1       5.197   4.008  17.663  0.00  0.00    +0.000 A 
ENDBRANCH  13  14
ENDBRANCH   1  13
TORSDOF 6
ENDMDL
MODEL 8
REMARK VINA RESULT:      -7.9      4.191      7.010
REMARK  Name = 
REMARK  6 active torsions:
REMARK  status: ('A' for Active; 'I' for Inactive)
REMARK    1  A    between atoms: O_1  and  N_2
REMARK    2  A    between atoms: N_2  and  C_3
REMARK    3  A    between atoms: N_2  and  C_12
REMARK    4  A    between atoms: C_3  and  C_4
REMARK    5  A    between atoms: C_5  and  C_6
REMARK    6  A    between atoms: C_12  and  C_13
REMARK                            x       y       z     vdW  Elec       q    Type
REMARK                         _______ _______ _______ _____ _____    ______ ____
ROOT
ATOM      1  N   UNL     1       6.535   6.170  16.542  0.00  0.00    +0.000 NA
ENDROOT
BRANCH   1   2
ATOM      2  O   UNL     1       7.501   7.250  16.636  0.00  0.00    +0.000 OA
ATOM      3  H   UNL     1       8.304   6.747  16.868  0.00  0.00    +0.000 HD
ENDBRANCH   1   2
BRANCH   1   4
ATOM      4  C   UNL     1       7.280   4.953  16.181  0.00  0.00    +0.000 C 
BRANCH   4   5
ATOM      5  C   UNL     1       6.574   4.261  15.063  0.00  0.00    +0.000 C 
ATOM      6  C   UNL     1       7.040   4.280  13.811  0.00  0.00    +0.000 C 
BRANCH   6   7
ATOM      7  C   UNL     1       6.289   3.687  12.715  0.00  0.00    +0.000 A 
ATOM      8  C   UNL     1       4.963   4.103  12.493  0.00  0.00    +0.000 A 
ATOM      9  C   UNL     1       4.131   3.328  11.702  0.00  0.00    +0.000 A 
ATOM     10  C   UNL     1       4.631   2.219  11.012  0.00  0.00    +0.000 A 
ATOM     11  C   UNL     1       5.969   1.888  11.152  0.00  0.00    +0.000 A 
ATOM     12  C   UNL     1       6.809   2.593  12.005  0.00  0.00    +0.000 A 
ENDBRANCH   6   7
ENDBRANCH   4   5
ENDBRANCH   1   4
BRANCH   1  13
ATOM     13  C   UNL     1       5.906   6.024  17.851  0.00  0.00    +0.000 C 
BRANCH  13  14
ATOM     14  C   UNL     1       4.371   6.055  17.723  0.00  0.00    +0.000 A 
ATOM     15  C   UNL     1       3.814   7.369  17.698  0.00  0.00    +0.000 A 
ATOM     16  C   UNL     1       2.453   7.498  17.847  0.00  0.00    +0.000 A 
ATOM     17  C   UNL     1       1.699   6.337  17.987  0.00  0.00    +0.000 A 
ATOM     18  C   UNL     1       2.246   5.028  17.994  0.00  0.00    +0.000 A 
ATOM     19  C   UNL     1       1.456   3.941  18.291  0.00  0.00    +0.000 A 
ATOM     20  C   UNL     1       1.899   2.587  18.494  0.00  0.00    +0.000 A 
ATOM     21  C   UNL     1       2.787   2.062  17.617  0.00  0.00    +0.000 A 
ATOM     22  C   UNL     1       3.663   3.152  17.477  0.00  0.00    +0.000 A 
ATOM     23  C   UNL     1       3.530   4.750  17.688  0.00  0.00    +0.000 A 
ENDBRANCH  13  14
ENDBRANCH   1  13
TORSDOF 6
ENDMDL
MODEL 9
REMARK VINA RESULT:      -7.8      1.417      1.892
REMARK  Name = 
REMARK  6 active torsions:
REMARK  status: ('A' for Active; 'I' for Inactive)
REMARK    1  A    between atoms: O_1  and  N_2
REMARK    2  A    between atoms: N_2  and  C_3
REMARK    3  A    between atoms: N_2  and  C_12
REMARK    4  A    between atoms: C_3  and  C_4
REMARK    5  A    between atoms: C_5  and  C_6
REMARK    6  A    between atoms: C_12  and  C_13
REMARK                            x       y       z     vdW  Elec       q    Type
REMARK                         _______ _______ _______ _____ _____    ______ ____
ROOT
ATOM      1  N   UNL     1       6.461   6.190  18.137  0.00  0.00    +0.000 NA
ENDROOT
BRANCH   1   2
ATOM      2  O   UNL     1       7.054   5.181  18.996  0.00  0.00    +0.000 OA
ATOM      3  H   UNL     1       7.325   4.521  18.330  0.00  0.00    +0.000 HD
ENDBRANCH   1   2
BRANCH   1   4
ATOM      4  C   UNL     1       7.505   6.627  17.196  0.00  0.00    +0.000 C 
BRANCH   4   5
ATOM      5  C   UNL     1       7.797   8.072  17.425  0.00  0.00    +0.000 C 
ATOM      6  C   UNL     1       8.564   8.489  18.436  0.00  0.00    +0.000 C 
BRANCH   6   7
ATOM      7  C   UNL     1       8.757   9.905  18.707  0.00  0.00    +0.000 A 
ATOM      8  C   UNL     1       8.328  10.846  17.753  0.00  0.00    +0.000 A 
ATOM      9  C   UNL     1       8.800  12.146  17.820  0.00  0.00    +0.000 A 
ATOM     10  C   UNL     1       9.583  12.566  18.900  0.00  0.00    +0.000 A 
ATOM     11  C   UNL     1       9.903  11.654  19.893  0.00  0.00    +0.000 A 
ATOM     12  C   UNL     1       9.518  10.323  19.811  0.00  0.00    +0.000 A 
ENDBRANCH   6   7
ENDBRANCH   4   5
ENDBRANCH   1   4
BRANCH   1  13
ATOM     13  C   UNL     1       5.350   5.566  17.425  0.00  0.00    +0.000 C 
BRANCH  13  14
ATOM     14  C   UNL     1       4.001   6.012  18.024  0.00  0.00    +0.000 A 
ATOM     15  C   UNL     1       3.599   7.326  17.641  0.00  0.00    +0.000 A 
ATOM     16  C   UNL     1       2.554   7.907  18.320  0.00  0.00    +0.000 A 
ATOM     17  C   UNL     1       1.936   7.166  19.323  0.00  0.00    +0.000 A 
ATOM     18  C   UNL     1       2.319   5.852  19.694  0.00  0.00    +0.000 A 
ATOM     19  C   UNL     1       1.762   5.246  20.796  0.00  0.00    +0.000 A 
ATOM     20  C   UNL     1       2.164   3.995  21.384  0.00  0.00    +0.000 A 
ATOM     21  C   UNL     1       2.393   2.942  20.564  0.00  0.00    +0.000 A 
ATOM     22  C   UNL     1       3.109   3.584  19.539  0.00  0.00    +0.000 A 
ATOM     23  C   UNL     1       3.206   5.106  19.003  0.00  0.00    +0.000 A 
ENDBRANCH  13  14
ENDBRANCH   1  13
TORSDOF 6
ENDMDL
