MODEL 1
REMARK VINA RESULT:      -7.4      0.000      0.000
REMARK  Name = 
REMARK  1 active torsions:
REMARK  status: ('A' for Active; 'I' for Inactive)
REMARK    1  A    between atoms: C_4  and  C_5
REMARK                            x       y       z     vdW  Elec       q    Type
REMARK                         _______ _______ _______ _____ _____    ______ ____
ROOT
ATOM      1  C   UNL     1       5.311   4.173  18.041  0.00  0.00    +0.000 A 
ATOM      2  C   UNL     1       4.460   4.070  16.928  0.00  0.00    +0.000 A 
ATOM      3  C   UNL     1       3.118   3.710  17.087  0.00  0.00    +0.000 A 
ATOM      4  C   UNL     1       2.613   3.453  18.359  0.00  0.00    +0.000 A 
ATOM      5  C   UNL     1       3.459   3.512  19.469  0.00  0.00    +0.000 A 
ATOM      6  C   UNL     1       4.796   3.873  19.313  0.00  0.00    +0.000 A 
ATOM      7  O   UNL     1       3.043   3.250  20.750  0.00  0.00    +0.000 OA
ATOM      8  C   UNL     1       1.775   2.585  20.759  0.00  0.00    +0.000 C 
ATOM      9  C   UNL     1       0.809   3.254  19.794  0.00  0.00    +0.000 C 
ATOM     10  O   UNL     1       1.280   3.145  18.446  0.00  0.00    +0.000 OA
ENDROOT
BRANCH   1  14
ATOM     11  N   UNL     1       7.566   7.971  17.242  0.00  0.00    +0.000 N 
ATOM     12  C   UNL     1       7.290   6.655  17.308  0.00  0.00    +0.000 C 
ATOM     13  N   UNL     1       6.977   5.987  18.361  0.00  0.00    +0.000 NA
ATOM     14  C   UNL     1       6.751   4.617  17.864  0.00  0.00    +0.000 C 
ATOM     15  C   UNL     1       7.196   4.657  16.406  0.00  0.00    +0.000 C 
ATOM     16  O   UNL     1       7.339   6.039  16.107  0.00  0.00    +0.000 OA
ATOM     17  H   UNL     1       7.217   8.498  18.033  0.00  0.00    +0.000 HD
ATOM     18  H   UNL     1       7.397   8.391  16.338  0.00  0.00    +0.000 HD
ENDBRANCH   1  14
TORSDOF 1
ENDMDL
MODEL 2
REMARK VINA RESULT:      -7.3      1.777      1.881
REMARK  Name = 
REMARK  1 active torsions:
REMARK  status: ('A' for Active; 'I' for Inactive)
REMARK    1  A    between atoms: C_4  and  C_5
REMARK                            x       y       z     vdW  Elec       q    Type
REMARK                         _______ _______ _______ _____ _____    ______ ____
ROOT
ATOM      1  C   UNL     1       4.914   5.378  18.018  0.00  0.00    +0.000 A 
ATOM      2  C   UNL     1       3.826   6.267  17.993  0.00  0.00    +0.000 A 
ATOM      3  C   UNL     1       2.557   5.853  18.406  0.00  0.00    +0.000 A 
ATOM      4  C   UNL     1       2.362   4.548  18.853  0.00  0.00    +0.000 A 
ATOM      5  C   UNL     1       3.426   3.643  18.844  0.00  0.00    +0.000 A 
ATOM      6  C   UNL     1       4.693   4.055  18.434  0.00  0.00    +0.000 A 
ATOM      7  O   UNL     1       3.308   2.336  19.245  0.00  0.00    +0.000 OA
ATOM      8  C   UNL     1       1.935   1.939  19.327  0.00  0.00    +0.000 C 
ATOM      9  C   UNL     1       1.108   3.002  20.032  0.00  0.00    +0.000 C 
ATOM     10  O   UNL     1       1.101   4.221  19.281  0.00  0.00    +0.000 OA
ENDROOT
BRANCH   1  14
ATOM     11  N   UNL     1       7.578   5.267  14.406  0.00  0.00    +0.000 N 
ATOM     12  C   UNL     1       7.198   5.363  15.694  0.00  0.00    +0.000 C 
ATOM     13  N   UNL     1       6.374   6.216  16.192  0.00  0.00    +0.000 NA
ATOM     14  C   UNL     1       6.299   5.852  17.619  0.00  0.00    +0.000 C 
ATOM     15  C   UNL     1       7.378   4.791  17.806  0.00  0.00    +0.000 C 
ATOM     16  O   UNL     1       7.756   4.421  16.486  0.00  0.00    +0.000 OA
ATOM     17  H   UNL     1       6.941   5.721  13.763  0.00  0.00    +0.000 HD
ATOM     18  H   UNL     1       7.888   4.347  14.127  0.00  0.00    +0.000 HD
ENDBRANCH   1  14
TORSDOF 1
ENDMDL
MODEL 3
REMARK VINA RESULT:      -7.3      1.450      1.554
REMARK  Name = 
REMARK  1 active torsions:
REMARK  status: ('A' for Active; 'I' for Inactive)
REMARK    1  A    between atoms: C_4  and  C_5
REMARK                            x       y       z     vdW  Elec       q    Type
REMARK                         _______ _______ _______ _____ _____    ______ ____
ROOT
ATOM      1  C   UNL     1       4.931   4.842  17.968  0.00  0.00    +0.000 A 
ATOM      2  C   UNL     1       4.259   4.021  17.047  0.00  0.00    +0.000 A 
ATOM      3  C   UNL     1       3.069   3.378  17.400  0.00  0.00    +0.000 A 
ATOM      4  C   UNL     1       2.537   3.551  18.675  0.00  0.00    +0.000 A 
ATOM      5  C   UNL     1       3.216   4.332  19.613  0.00  0.00    +0.000 A 
ATOM      6  C   UNL     1       4.401   4.976  19.262  0.00  0.00    +0.000 A 
ATOM      7  O   UNL     1       2.769   4.531  20.895  0.00  0.00    +0.000 OA
ATOM      8  C   UNL     1       1.753   3.586  21.244  0.00  0.00    +0.000 C 
ATOM      9  C   UNL     1       0.734   3.452  20.123  0.00  0.00    +0.000 C 
ATOM     10  O   UNL     1       1.347   2.923  18.941  0.00  0.00    +0.000 OA
ENDROOT
BRANCH   1  14
ATOM     11  N   UNL     1       7.512   5.283  14.321  0.00  0.00    +0.000 N 
ATOM     12  C   UNL     1       7.140   5.291  15.615  0.00  0.00    +0.000 C 
ATOM     13  N   UNL     1       6.174   5.964  16.133  0.00  0.00    +0.000 NA
ATOM     14  C   UNL     1       6.192   5.579  17.557  0.00  0.00    +0.000 C 
ATOM     15  C   UNL     1       7.459   4.746  17.717  0.00  0.00    +0.000 C 
ATOM     16  O   UNL     1       7.881   4.467  16.388  0.00  0.00    +0.000 OA
ATOM     17  H   UNL     1       6.790   5.611  13.692  0.00  0.00    +0.000 HD
ATOM     18  H   UNL     1       7.989   4.442  14.028  0.00  0.00    +0.000 HD
ENDBRANCH   1  14
TORSDOF 1
ENDMDL
MODEL 4
REMARK VINA RESULT:      -7.2      2.835      5.722
REMARK  Name = 
REMARK  1 active torsions:
REMARK  status: ('A' for Active; 'I' for Inactive)
REMARK    1  A    between atoms: C_4  and  C_5
REMARK                            x       y       z     vdW  Elec       q    Type
REMARK                         _______ _______ _______ _____ _____    ______ ____
ROOT
ATOM      1  C   UNL     1       3.129   4.379  18.665  0.00  0.00    +0.000 A 
ATOM      2  C   UNL     1       3.322   4.057  17.311  0.00  0.00    +0.000 A 
ATOM      3  C   UNL     1       4.593   4.130  16.734  0.00  0.00    +0.000 A 
ATOM      4  C   UNL     1       5.685   4.522  17.505  0.00  0.00    +0.000 A 
ATOM      5  C   UNL     1       5.500   4.884  18.841  0.00  0.00    +0.000 A 
ATOM      6  C   UNL     1       4.233   4.809  19.418  0.00  0.00    +0.000 A 
ATOM      7  O   UNL     1       6.520   5.304  19.657  0.00  0.00    +0.000 OA
ATOM      8  C   UNL     1       7.682   5.653  18.899  0.00  0.00    +0.000 C 
ATOM      9  C   UNL     1       7.973   4.600  17.841  0.00  0.00    +0.000 C 
ATOM     10  O   UNL     1       6.908   4.533  16.885  0.00  0.00    +0.000 OA
ENDROOT
BRANCH   1  14
ATOM     11  N   UNL     1       1.289   2.509  22.308  0.00  0.00    +0.000 N 
ATOM     12  C   UNL     1       1.394   3.033  21.072  0.00  0.00    +0.000 C 
ATOM     13  N   UNL     1       1.819   4.208  20.768  0.00  0.00    +0.000 NA
ATOM     14  C   UNL     1       1.755   4.243  19.295  0.00  0.00    +0.000 C 
ATOM     15  C   UNL     1       1.037   2.955  18.908  0.00  0.00    +0.000 C 
ATOM     16  O   UNL     1       1.024   2.175  20.096  0.00  0.00    +0.000 OA
ATOM     17  H   UNL     1       1.857   2.985  22.998  0.00  0.00    +0.000 HD
ATOM     18  H   UNL     1       1.328   1.500  22.341  0.00  0.00    +0.000 HD
ENDBRANCH   1  14
TORSDOF 1
ENDMDL
MODEL 5
REMARK VINA RESULT:      -7.1      2.897      5.825
REMARK  Name = 
REMARK  1 active torsions:
REMARK  status: ('A' for Active; 'I' for Inactive)
REMARK    1  A    between atoms: C_4  and  C_5
REMARK                            x       y       z     vdW  Elec       q    Type
REMARK                         _______ _______ _______ _____ _____    ______ ____
ROOT
ATOM      1  C   UNL     1       2.631   4.743  18.177  0.00  0.00    +0.000 A 
ATOM      2  C   UNL     1       2.862   6.129  18.169  0.00  0.00    +0.000 A 
ATOM      3  C   UNL     1       3.933   6.669  17.450  0.00  0.00    +0.000 A 
ATOM      4  C   UNL     1       4.781   5.831  16.730  0.00  0.00    +0.000 A 
ATOM      5  C   UNL     1       4.586   4.449  16.764  0.00  0.00    +0.000 A 
ATOM      6  C   UNL     1       3.518   3.908  17.477  0.00  0.00    +0.000 A 
ATOM      7  O   UNL     1       5.392   3.557  16.101  0.00  0.00    +0.000 OA
ATOM      8  C   UNL     1       6.616   4.171  15.687  0.00  0.00    +0.000 C 
ATOM      9  C   UNL     1       6.352   5.530  15.058  0.00  0.00    +0.000 C 
ATOM     10  O   UNL     1       5.786   6.432  16.017  0.00  0.00    +0.000 OA
ENDROOT
BRANCH   1  14
ATOM     11  N   UNL     1       1.767   2.713  22.086  0.00  0.00    +0.000 N 
ATOM     12  C   UNL     1       1.622   3.106  20.807  0.00  0.00    +0.000 C 
ATOM     13  N   UNL     1       1.560   4.316  20.377  0.00  0.00    +0.000 NA
ATOM     14  C   UNL     1       1.434   4.172  18.914  0.00  0.00    +0.000 C 
ATOM     15  C   UNL     1       1.243   2.676  18.688  0.00  0.00    +0.000 C 
ATOM     16  O   UNL     1       1.568   2.075  19.935  0.00  0.00    +0.000 OA
ATOM     17  H   UNL     1       2.138   3.435  22.691  0.00  0.00    +0.000 HD
ATOM     18  H   UNL     1       2.186   1.800  22.200  0.00  0.00    +0.000 HD
ENDBRANCH   1  14
TORSDOF 1
ENDMDL
MODEL 6
REMARK VINA RESULT:      -7.1      3.014      5.785
REMARK  Name = 
REMARK  1 active torsions:
REMARK  status: ('A' for Active; 'I' for Inactive)
REMARK    1  A    between atoms: C_4  and  C_5
REMARK                            x       y       z     vdW  Elec       q    Type
REMARK                         _______ _______ _______ _____ _____    ______ ____
ROOT
ATOM      1  C   UNL     1       2.765   5.015  18.720  0.00  0.00    +0.000 A 
ATOM      2  C   UNL     1       2.659   6.267  18.091  0.00  0.00    +0.000 A 
ATOM      3  C   UNL     1       3.797   6.923  17.611  0.00  0.00    +0.000 A 
ATOM      4  C   UNL     1       5.050   6.333  17.753  0.00  0.00    +0.000 A 
ATOM      5  C   UNL     1       5.173   5.109  18.412  0.00  0.00    +0.000 A 
ATOM      6  C   UNL     1       4.040   4.452  18.889  0.00  0.00    +0.000 A 
ATOM      7  O   UNL     1       6.375   4.477  18.612  0.00  0.00    +0.000 OA
ATOM      8  C   UNL     1       7.474   5.366  18.388  0.00  0.00    +0.000 C 
ATOM      9  C   UNL     1       7.268   6.167  17.112  0.00  0.00    +0.000 C 
ATOM     10  O   UNL     1       6.118   7.013  17.224  0.00  0.00    +0.000 OA
ENDROOT
BRANCH   1  14
ATOM     11  N   UNL     1       1.478   2.473  22.190  0.00  0.00    +0.000 N 
ATOM     12  C   UNL     1       1.499   3.011  20.955  0.00  0.00    +0.000 C 
ATOM     13  N   UNL     1       1.408   4.258  20.658  0.00  0.00    +0.000 NA
ATOM     14  C   UNL     1       1.519   4.286  19.188  0.00  0.00    +0.000 C 
ATOM     15  C   UNL     1       1.483   2.820  18.769  0.00  0.00    +0.000 C 
ATOM     16  O   UNL     1       1.661   2.093  19.977  0.00  0.00    +0.000 OA
ATOM     17  H   UNL     1       1.694   3.137  22.923  0.00  0.00    +0.000 HD
ATOM     18  H   UNL     1       1.946   1.581  22.267  0.00  0.00    +0.000 HD
ENDBRANCH   1  14
TORSDOF 1
ENDMDL
MODEL 7
REMARK VINA RESULT:      -7.0      1.796      1.986
REMARK  Name = 
REMARK  1 active torsions:
REMARK  status: ('A' for Active; 'I' for Inactive)
REMARK    1  A    between atoms: C_4  and  C_5
REMARK                            x       y       z     vdW  Elec       q    Type
REMARK                         _______ _______ _______ _____ _____    ______ ____
ROOT
ATOM      1  C   UNL     1       4.265   5.111  17.438  0.00  0.00    +0.000 A 
ATOM      2  C   UNL     1       4.040   3.817  16.938  0.00  0.00    +0.000 A 
ATOM      3  C   UNL     1       3.314   2.881  17.682  0.00  0.00    +0.000 A 
ATOM      4  C   UNL     1       2.803   3.230  18.929  0.00  0.00    +0.000 A 
ATOM      5  C   UNL     1       3.054   4.499  19.454  0.00  0.00    +0.000 A 
ATOM      6  C   UNL     1       3.775   5.434  18.714  0.00  0.00    +0.000 A 
ATOM      7  O   UNL     1       2.605   4.909  20.685  0.00  0.00    +0.000 OA
ATOM      8  C   UNL     1       2.175   3.798  21.478  0.00  0.00    +0.000 C 
ATOM      9  C   UNL     1       1.312   2.852  20.658  0.00  0.00    +0.000 C 
ATOM     10  O   UNL     1       2.067   2.277  19.585  0.00  0.00    +0.000 OA
ENDROOT
BRANCH   1  14
ATOM     11  N   UNL     1       7.601   5.196  14.436  0.00  0.00    +0.000 N 
ATOM     12  C   UNL     1       6.733   5.620  15.374  0.00  0.00    +0.000 C 
ATOM     13  N   UNL     1       5.450   5.583  15.307  0.00  0.00    +0.000 NA
ATOM     14  C   UNL     1       5.007   6.136  16.600  0.00  0.00    +0.000 C 
ATOM     15  C   UNL     1       6.283   6.647  17.261  0.00  0.00    +0.000 C 
ATOM     16  O   UNL     1       7.339   6.098  16.483  0.00  0.00    +0.000 OA
ATOM     17  H   UNL     1       7.194   4.549  13.772  0.00  0.00    +0.000 HD
ATOM     18  H   UNL     1       8.509   4.932  14.792  0.00  0.00    +0.000 HD
ENDBRANCH   1  14
TORSDOF 1
ENDMDL
MODEL 8
REMARK VINA RESULT:      -7.0      2.648      5.858
REMARK  Name = 
REMARK  1 active torsions:
REMARK  status: ('A' for Active; 'I' for Inactive)
REMARK    1  A    between atoms: C_4  and  C_5
REMARK                            x       y       z     vdW  Elec       q    Type
REMARK                         _______ _______ _______ _____ _____    ______ ____
ROOT
ATOM      1  C   UNL     1       3.701   4.738  18.670  0.00  0.00    +0.000 A 
ATOM      2  C   UNL     1       4.894   5.013  19.362  0.00  0.00    +0.000 A 
ATOM      3  C   UNL     1       6.120   5.027  18.691  0.00  0.00    +0.000 A 
ATOM      4  C   UNL     1       6.168   4.771  17.323  0.00  0.00    +0.000 A 
ATOM      5  C   UNL     1       4.996   4.457  16.632  0.00  0.00    +0.000 A 
ATOM      6  C   UNL     1       3.772   4.445  17.298  0.00  0.00    +0.000 A 
ATOM      7  O   UNL     1       4.965   4.169  15.291  0.00  0.00    +0.000 OA
ATOM      8  C   UNL     1       6.276   3.890  14.788  0.00  0.00    +0.000 C 
ATOM      9  C   UNL     1       7.278   4.914  15.297  0.00  0.00    +0.000 C 
ATOM     10  O   UNL     1       7.399   4.840  16.723  0.00  0.00    +0.000 OA
ENDROOT
BRANCH   1  14
ATOM     11  N   UNL     1       1.693   2.650  22.098  0.00  0.00    +0.000 N 
ATOM     12  C   UNL     1       1.845   3.361  20.965  0.00  0.00    +0.000 C 
ATOM     13  N   UNL     1       2.505   4.456  20.828  0.00  0.00    +0.000 NA
ATOM     14  C   UNL     1       2.370   4.780  19.395  0.00  0.00    +0.000 C 
ATOM     15  C   UNL     1       1.360   3.768  18.863  0.00  0.00    +0.000 C 
ATOM     16  O   UNL     1       1.238   2.799  19.897  0.00  0.00    +0.000 OA
ATOM     17  H   UNL     1       2.390   2.857  22.802  0.00  0.00    +0.000 HD
ATOM     18  H   UNL     1       1.506   1.667  21.954  0.00  0.00    +0.000 HD
ENDBRANCH   1  14
TORSDOF 1
ENDMDL
MODEL 9
REMARK VINA RESULT:      -6.9      1.044      1.060
REMARK  Name = 
REMARK  1 active torsions:
REMARK  status: ('A' for Active; 'I' for Inactive)
REMARK    1  A    between atoms: C_4  and  C_5
REMARK                            x       y       z     vdW  Elec       q    Type
REMARK                         _______ _______ _______ _____ _____    ______ ____
ROOT
ATOM      1  C   UNL     1       4.943   4.022  17.739  0.00  0.00    +0.000 A 
ATOM      2  C   UNL     1       3.922   3.835  16.791  0.00  0.00    +0.000 A 
ATOM      3  C   UNL     1       2.632   3.477  17.194  0.00  0.00    +0.000 A 
ATOM      4  C   UNL     1       2.349   3.305  18.547  0.00  0.00    +0.000 A 
ATOM      5  C   UNL     1       3.364   3.447  19.495  0.00  0.00    +0.000 A 
ATOM      6  C   UNL     1       4.650   3.807  19.096  0.00  0.00    +0.000 A 
ATOM      7  O   UNL     1       3.170   3.271  20.842  0.00  0.00    +0.000 OA
ATOM      8  C   UNL     1       1.934   2.598  21.104  0.00  0.00    +0.000 C 
ATOM      9  C   UNL     1       0.809   3.191  20.271  0.00  0.00    +0.000 C 
ATOM     10  O   UNL     1       1.054   2.993  18.873  0.00  0.00    +0.000 OA
ENDROOT
BRANCH   1  14
ATOM     11  N   UNL     1       8.326   6.512  19.322  0.00  0.00    +0.000 N 
ATOM     12  C   UNL     1       7.530   5.872  18.445  0.00  0.00    +0.000 C 
ATOM     13  N   UNL     1       7.253   4.616  18.433  0.00  0.00    +0.000 NA
ATOM     14  C   UNL     1       6.325   4.464  17.296  0.00  0.00    +0.000 C 
ATOM     15  C   UNL     1       6.333   5.824  16.606  0.00  0.00    +0.000 C 
ATOM     16  O   UNL     1       6.980   6.695  17.526  0.00  0.00    +0.000 OA
ATOM     17  H   UNL     1       8.469   6.002  20.185  0.00  0.00    +0.000 HD
ATOM     18  H   UNL     1       8.122   7.495  19.434  0.00  0.00    +0.000 HD
ENDBRANCH   1  14
TORSDOF 1
ENDMDL
