MODEL 1
REMARK VINA RESULT:      -9.4      0.000      0.000
REMARK  Name = 
REMARK  7 active torsions:
REMARK  status: ('A' for Active; 'I' for Inactive)
REMARK    1  A    between atoms: C_1  and  O_2
REMARK    2  A    between atoms: O_2  and  C_3
REMARK    3  A    between atoms: C_5  and  C_6
REMARK    4  A    between atoms: N_8  and  N_9
REMARK    5  A    between atoms: N_9  and  S_10
REMARK    6  A    between atoms: S_10  and  C_13
REMARK    7  A    between atoms: C_21  and  C_22
REMARK                            x       y       z     vdW  Elec       q    Type
REMARK                         _______ _______ _______ _____ _____    ______ ____
ROOT
ATOM      1  C   UNL     1       4.834   3.464  19.017  0.00  0.00    +0.000 C 
ATOM      2  O   UNL     1       5.023   3.356  20.226  0.00  0.00    +0.000 OA
ATOM      3  N   UNL     1       3.791   2.841  18.359  0.00  0.00    +0.000 N 
ATOM      4  H   UNL     1       3.518   3.077  17.407  0.00  0.00    +0.000 HD
ENDROOT
BRANCH   1   7
ATOM      5  C   UNL     1       7.360   6.098  18.019  0.00  0.00    +0.000 A 
ATOM      6  C   UNL     1       6.510   5.296  18.784  0.00  0.00    +0.000 A 
ATOM      7  C   UNL     1       5.714   4.322  18.171  0.00  0.00    +0.000 A 
ATOM      8  C   UNL     1       5.795   4.136  16.782  0.00  0.00    +0.000 A 
ATOM      9  C   UNL     1       6.665   4.910  15.993  0.00  0.00    +0.000 A 
ATOM     10  C   UNL     1       7.422   5.907  16.637  0.00  0.00    +0.000 A 
BRANCH   9  11
ATOM     11  C   UNL     1       6.791   4.672  14.542  0.00  0.00    +0.000 A 
ATOM     12  C   UNL     1       6.015   3.730  13.864  0.00  0.00    +0.000 A 
ATOM     13  C   UNL     1       6.201   3.547  12.494  0.00  0.00    +0.000 A 
ATOM     14  C   UNL     1       7.152   4.307  11.831  0.00  0.00    +0.000 A 
ATOM     15  C   UNL     1       7.875   5.228  12.568  0.00  0.00    +0.000 A 
ATOM     16  N   UNL     1       7.715   5.428  13.897  0.00  0.00    +0.000 NA
ENDBRANCH   9  11
BRANCH   5  18
ATOM     17  C   UNL     1       8.173   8.331  18.158  0.00  0.00    +0.000 C 
ATOM     18  O   UNL     1       8.090   7.022  18.717  0.00  0.00    +0.000 OA
ENDBRANCH   5  18
ENDBRANCH   1   7
BRANCH   3  19
ATOM     19  N   UNL     1       2.873   2.004  19.122  0.00  0.00    +0.000 NA
ATOM     20  H   UNL     1       3.265   1.190  19.606  0.00  0.00    +0.000 HD
BRANCH  19  21
ATOM     21  S   UNL     1       1.467   2.744  19.705  0.00  0.00    +0.000 S 
ATOM     22  O   UNL     1       0.404   2.337  18.808  0.00  0.00    +0.000 OA
ATOM     23  O   UNL     1       1.360   2.472  21.122  0.00  0.00    +0.000 OA
BRANCH  21  24
ATOM     24  C   UNL     1       1.730   4.466  19.473  0.00  0.00    +0.000 A 
ATOM     25  C   UNL     1       1.977   5.297  20.572  0.00  0.00    +0.000 A 
ATOM     26  C   UNL     1       2.275   6.646  20.367  0.00  0.00    +0.000 A 
ATOM     27  C   UNL     1       2.330   7.159  19.069  0.00  0.00    +0.000 A 
ATOM     28  C   UNL     1       2.085   6.325  17.978  0.00  0.00    +0.000 A 
ATOM     29  C   UNL     1       1.787   4.978  18.184  0.00  0.00    +0.000 A 
ATOM     30  F   UNL     1       1.554   4.204  17.117  0.00  0.00    +0.000 F 
ENDBRANCH  21  24
ENDBRANCH  19  21
ENDBRANCH   3  19
TORSDOF 6
ENDMDL
MODEL 2
REMARK VINA RESULT:      -8.4      4.850      8.083
REMARK  Name = 
REMARK  7 active torsions:
REMARK  status: ('A' for Active; 'I' for Inactive)
REMARK    1  A    between atoms: C_1  and  O_2
REMARK    2  A    between atoms: O_2  and  C_3
REMARK    3  A    between atoms: C_5  and  C_6
REMARK    4  A    between atoms: N_8  and  N_9
REMARK    5  A    between atoms: N_9  and  S_10
REMARK    6  A    between atoms: S_10  and  C_13
REMARK    7  A    between atoms: C_21  and  C_22
REMARK                            x       y       z     vdW  Elec       q    Type
REMARK                         _______ _______ _______ _____ _____    ______ ____
ROOT
ATOM      1  C   UNL     1       2.361   8.390  17.899  0.00  0.00    +0.000 C 
ATOM      2  O   UNL     1       2.950   8.934  16.968  0.00  0.00    +0.000 OA
ATOM      3  N   UNL     1       2.688   7.132  18.364  0.00  0.00    +0.000 N 
ATOM      4  H   UNL     1       2.339   6.760  19.245  0.00  0.00    +0.000 HD
ENDROOT
BRANCH   1   7
ATOM      5  C   UNL     1       0.420  10.080  20.673  0.00  0.00    +0.000 A 
ATOM      6  C   UNL     1       1.428   9.410  19.975  0.00  0.00    +0.000 A 
ATOM      7  C   UNL     1       1.258   9.084  18.624  0.00  0.00    +0.000 A 
ATOM      8  C   UNL     1       0.077   9.460  17.966  0.00  0.00    +0.000 A 
ATOM      9  C   UNL     1      -0.940  10.162  18.639  0.00  0.00    +0.000 A 
ATOM     10  C   UNL     1      -0.753  10.438  20.006  0.00  0.00    +0.000 A 
BRANCH   9  11
ATOM     11  C   UNL     1      -2.155  10.607  17.928  0.00  0.00    +0.000 A 
ATOM     12  C   UNL     1      -2.406  10.285  16.593  0.00  0.00    +0.000 A 
ATOM     13  C   UNL     1      -3.568  10.756  15.981  0.00  0.00    +0.000 A 
ATOM     14  C   UNL     1      -4.453  11.533  16.713  0.00  0.00    +0.000 A 
ATOM     15  C   UNL     1      -4.141  11.801  18.034  0.00  0.00    +0.000 A 
ATOM     16  N   UNL     1      -3.023  11.357  18.653  0.00  0.00    +0.000 NA
ENDBRANCH   9  11
BRANCH   5  18
ATOM     17  C   UNL     1      -0.036   9.585  22.957  0.00  0.00    +0.000 C 
ATOM     18  O   UNL     1       0.686  10.344  21.990  0.00  0.00    +0.000 OA
ENDBRANCH   5  18
ENDBRANCH   1   7
BRANCH   3  19
ATOM     19  N   UNL     1       3.772   6.399  17.721  0.00  0.00    +0.000 NA
ATOM     20  H   UNL     1       4.347   6.906  17.041  0.00  0.00    +0.000 HD
BRANCH  19  21
ATOM     21  S   UNL     1       4.416   5.085  18.570  0.00  0.00    +0.000 S 
ATOM     22  O   UNL     1       5.086   4.264  17.581  0.00  0.00    +0.000 OA
ATOM     23  O   UNL     1       5.154   5.592  19.707  0.00  0.00    +0.000 OA
BRANCH  21  24
ATOM     24  C   UNL     1       3.020   4.190  19.149  0.00  0.00    +0.000 A 
ATOM     25  C   UNL     1       2.694   4.193  20.510  0.00  0.00    +0.000 A 
ATOM     26  C   UNL     1       1.530   3.554  20.944  0.00  0.00    +0.000 A 
ATOM     27  C   UNL     1       0.697   2.918  20.022  0.00  0.00    +0.000 A 
ATOM     28  C   UNL     1       1.027   2.920  18.666  0.00  0.00    +0.000 A 
ATOM     29  C   UNL     1       2.189   3.558  18.233  0.00  0.00    +0.000 A 
ATOM     30  F   UNL     1       2.480   3.540  16.927  0.00  0.00    +0.000 F 
ENDBRANCH  21  24
ENDBRANCH  19  21
ENDBRANCH   3  19
TORSDOF 6
ENDMDL
MODEL 3
REMARK VINA RESULT:      -8.3      5.697      8.689
REMARK  Name = 
REMARK  7 active torsions:
REMARK  status: ('A' for Active; 'I' for Inactive)
REMARK    1  A    between atoms: C_1  and  O_2
REMARK    2  A    between atoms: O_2  and  C_3
REMARK    3  A    between atoms: C_5  and  C_6
REMARK    4  A    between atoms: N_8  and  N_9
REMARK    5  A    between atoms: N_9  and  S_10
REMARK    6  A    between atoms: S_10  and  C_13
REMARK    7  A    between atoms: C_21  and  C_22
REMARK                            x       y       z     vdW  Elec       q    Type
REMARK                         _______ _______ _______ _____ _____    ______ ____
ROOT
ATOM      1  C   UNL     1       1.156   9.000  21.194  0.00  0.00    +0.000 C 
ATOM      2  O   UNL     1       1.641   8.955  22.321  0.00  0.00    +0.000 OA
ATOM      3  N   UNL     1       1.447   8.075  20.211  0.00  0.00    +0.000 N 
ATOM      4  H   UNL     1       0.909   7.995  19.350  0.00  0.00    +0.000 HD
ENDROOT
BRANCH   1   7
ATOM      5  C   UNL     1      -0.808  12.233  21.257  0.00  0.00    +0.000 A 
ATOM      6  C   UNL     1       0.087  11.218  21.598  0.00  0.00    +0.000 A 
ATOM      7  C   UNL     1       0.173  10.058  20.819  0.00  0.00    +0.000 A 
ATOM      8  C   UNL     1      -0.629   9.933  19.674  0.00  0.00    +0.000 A 
ATOM      9  C   UNL     1      -1.518  10.955  19.293  0.00  0.00    +0.000 A 
ATOM     10  C   UNL     1      -1.607  12.090  20.120  0.00  0.00    +0.000 A 
BRANCH   9  11
ATOM     11  C   UNL     1      -2.317  10.846  18.056  0.00  0.00    +0.000 A 
ATOM     12  C   UNL     1      -1.939  10.034  16.985  0.00  0.00    +0.000 A 
ATOM     13  C   UNL     1      -2.735   9.994  15.841  0.00  0.00    +0.000 A 
ATOM     14  C   UNL     1      -3.889  10.761  15.791  0.00  0.00    +0.000 A 
ATOM     15  C   UNL     1      -4.204  11.533  16.895  0.00  0.00    +0.000 A 
ATOM     16  N   UNL     1      -3.451  11.590  18.018  0.00  0.00    +0.000 NA
ENDBRANCH   9  11
BRANCH   5  18
ATOM     17  C   UNL     1      -1.939  13.461  22.955  0.00  0.00    +0.000 C 
ATOM     18  O   UNL     1      -0.816  13.321  22.089  0.00  0.00    +0.000 OA
ENDBRANCH   5  18
ENDBRANCH   1   7
BRANCH   3  19
ATOM     19  N   UNL     1       2.382   6.997  20.508  0.00  0.00    +0.000 NA
ATOM     20  H   UNL     1       2.269   6.505  21.400  0.00  0.00    +0.000 HD
BRANCH  19  21
ATOM     21  S   UNL     1       3.089   6.211  19.187  0.00  0.00    +0.000 S 
ATOM     22  O   UNL     1       2.663   6.947  18.013  0.00  0.00    +0.000 OA
ATOM     23  O   UNL     1       4.500   6.039  19.459  0.00  0.00    +0.000 OA
BRANCH  21  24
ATOM     24  C   UNL     1       2.322   4.631  19.133  0.00  0.00    +0.000 A 
ATOM     25  C   UNL     1       1.371   4.275  20.096  0.00  0.00    +0.000 A 
ATOM     26  C   UNL     1       0.702   3.054  19.990  0.00  0.00    +0.000 A 
ATOM     27  C   UNL     1       0.981   2.195  18.924  0.00  0.00    +0.000 A 
ATOM     28  C   UNL     1       1.929   2.558  17.967  0.00  0.00    +0.000 A 
ATOM     29  C   UNL     1       2.597   3.777  18.074  0.00  0.00    +0.000 A 
ATOM     30  F   UNL     1       3.503   4.095  17.141  0.00  0.00    +0.000 F 
ENDBRANCH  21  24
ENDBRANCH  19  21
ENDBRANCH   3  19
TORSDOF 6
ENDMDL
MODEL 4
REMARK VINA RESULT:      -8.3      2.094      2.877
REMARK  Name = 
REMARK  7 active torsions:
REMARK  status: ('A' for Active; 'I' for Inactive)
REMARK    1  A    between atoms: C_1  and  O_2
REMARK    2  A    between atoms: O_2  and  C_3
REMARK    3  A    between atoms: C_5  and  C_6
REMARK    4  A    between atoms: N_8  and  N_9
REMARK    5  A    between atoms: N_9  and  S_10
REMARK    6  A    between atoms: S_10  and  C_13
REMARK    7  A    between atoms: C_21  and  C_22
REMARK                            x       y       z     vdW  Elec       q    Type
REMARK                         _______ _______ _______ _____ _____    ______ ____
ROOT
ATOM      1  C   UNL     1       3.540   5.932  18.714  0.00  0.00    +0.000 C 
ATOM      2  O   UNL     1       2.474   6.235  18.185  0.00  0.00    +0.000 OA
ATOM      3  N   UNL     1       3.634   5.489  20.019  0.00  0.00    +0.000 N 
ATOM      4  H   UNL     1       4.475   5.058  20.398  0.00  0.00    +0.000 HD
ENDROOT
BRANCH   1   7
ATOM      5  C   UNL     1       7.178   6.570  17.890  0.00  0.00    +0.000 A 
ATOM      6  C   UNL     1       5.959   6.526  18.570  0.00  0.00    +0.000 A 
ATOM      7  C   UNL     1       4.823   5.988  17.954  0.00  0.00    +0.000 A 
ATOM      8  C   UNL     1       4.922   5.466  16.655  0.00  0.00    +0.000 A 
ATOM      9  C   UNL     1       6.146   5.472  15.960  0.00  0.00    +0.000 A 
ATOM     10  C   UNL     1       7.257   6.056  16.594  0.00  0.00    +0.000 A 
BRANCH   9  11
ATOM     11  C   UNL     1       6.260   4.869  14.617  0.00  0.00    +0.000 A 
ATOM     12  C   UNL     1       5.315   3.975  14.111  0.00  0.00    +0.000 A 
ATOM     13  C   UNL     1       5.498   3.432  12.839  0.00  0.00    +0.000 A 
ATOM     14  C   UNL     1       6.614   3.794  12.101  0.00  0.00    +0.000 A 
ATOM     15  C   UNL     1       7.501   4.694  12.665  0.00  0.00    +0.000 A 
ATOM     16  N   UNL     1       7.348   5.237  13.895  0.00  0.00    +0.000 NA
ENDBRANCH   9  11
BRANCH   5  18
ATOM     17  C   UNL     1       8.485   8.504  18.356  0.00  0.00    +0.000 C 
ATOM     18  O   UNL     1       8.223   7.121  18.581  0.00  0.00    +0.000 OA
ENDBRANCH   5  18
ENDBRANCH   1   7
BRANCH   3  19
ATOM     19  N   UNL     1       2.420   5.385  20.820  0.00  0.00    +0.000 NA
ATOM     20  H   UNL     1       1.885   6.243  20.981  0.00  0.00    +0.000 HD
BRANCH  19  21
ATOM     21  S   UNL     1       1.644   3.881  20.840  0.00  0.00    +0.000 S 
ATOM     22  O   UNL     1       1.952   3.293  22.130  0.00  0.00    +0.000 OA
ATOM     23  O   UNL     1       0.266   4.072  20.444  0.00  0.00    +0.000 OA
BRANCH  21  24
ATOM     24  C   UNL     1       2.463   2.930  19.612  0.00  0.00    +0.000 A 
ATOM     25  C   UNL     1       1.965   2.883  18.305  0.00  0.00    +0.000 A 
ATOM     26  C   UNL     1       2.676   2.199  17.316  0.00  0.00    +0.000 A 
ATOM     27  C   UNL     1       3.880   1.567  17.633  0.00  0.00    +0.000 A 
ATOM     28  C   UNL     1       4.372   1.619  18.938  0.00  0.00    +0.000 A 
ATOM     29  C   UNL     1       3.662   2.302  19.924  0.00  0.00    +0.000 A 
ATOM     30  F   UNL     1       4.159   2.331  21.167  0.00  0.00    +0.000 F 
ENDBRANCH  21  24
ENDBRANCH  19  21
ENDBRANCH   3  19
TORSDOF 6
ENDMDL
MODEL 5
REMARK VINA RESULT:      -8.3      5.495      8.373
REMARK  Name = 
REMARK  7 active torsions:
REMARK  status: ('A' for Active; 'I' for Inactive)
REMARK    1  A    between atoms: C_1  and  O_2
REMARK    2  A    between atoms: O_2  and  C_3
REMARK    3  A    between atoms: C_5  and  C_6
REMARK    4  A    between atoms: N_8  and  N_9
REMARK    5  A    between atoms: N_9  and  S_10
REMARK    6  A    between atoms: S_10  and  C_13
REMARK    7  A    between atoms: C_21  and  C_22
REMARK                            x       y       z     vdW  Elec       q    Type
REMARK                         _______ _______ _______ _____ _____    ______ ____
ROOT
ATOM      1  C   UNL     1       1.279   8.854  20.913  0.00  0.00    +0.000 C 
ATOM      2  O   UNL     1       1.372   8.622  22.116  0.00  0.00    +0.000 OA
ATOM      3  N   UNL     1       1.814   8.030  19.943  0.00  0.00    +0.000 N 
ATOM      4  H   UNL     1       1.578   8.112  18.956  0.00  0.00    +0.000 HD
ENDROOT
BRANCH   1   7
ATOM      5  C   UNL     1       0.217  12.451  20.414  0.00  0.00    +0.000 A 
ATOM      6  C   UNL     1       0.883  11.317  20.882  0.00  0.00    +0.000 A 
ATOM      7  C   UNL     1       0.533  10.045  20.413  0.00  0.00    +0.000 A 
ATOM      8  C   UNL     1      -0.478   9.919  19.447  0.00  0.00    +0.000 A 
ATOM      9  C   UNL     1      -1.144  11.049  18.938  0.00  0.00    +0.000 A 
ATOM     10  C   UNL     1      -0.793  12.307  19.460  0.00  0.00    +0.000 A 
BRANCH   9  11
ATOM     11  C   UNL     1      -2.164  10.917  17.880  0.00  0.00    +0.000 A 
ATOM     12  C   UNL     1      -2.007  10.065  16.785  0.00  0.00    +0.000 A 
ATOM     13  C   UNL     1      -3.007  10.005  15.814  0.00  0.00    +0.000 A 
ATOM     14  C   UNL     1      -4.140  10.792  15.958  0.00  0.00    +0.000 A 
ATOM     15  C   UNL     1      -4.229  11.603  17.075  0.00  0.00    +0.000 A 
ATOM     16  N   UNL     1      -3.276  11.681  18.032  0.00  0.00    +0.000 NA
ENDBRANCH   9  11
BRANCH   5  18
ATOM     17  C   UNL     1       1.627  14.359  20.210  0.00  0.00    +0.000 C 
ATOM     18  O   UNL     1       0.634  13.643  20.941  0.00  0.00    +0.000 OA
ENDBRANCH   5  18
ENDBRANCH   1   7
BRANCH   3  19
ATOM     19  N   UNL     1       2.538   6.833  20.352  0.00  0.00    +0.000 NA
ATOM     20  H   UNL     1       2.220   6.354  21.201  0.00  0.00    +0.000 HD
BRANCH  19  21
ATOM     21  S   UNL     1       3.338   5.969  19.136  0.00  0.00    +0.000 S 
ATOM     22  O   UNL     1       3.072   6.683  17.903  0.00  0.00    +0.000 OA
ATOM     23  O   UNL     1       4.702   5.740  19.559  0.00  0.00    +0.000 OA
BRANCH  21  24
ATOM     24  C   UNL     1       2.502   4.426  19.050  0.00  0.00    +0.000 A 
ATOM     25  C   UNL     1       1.420   4.161  19.897  0.00  0.00    +0.000 A 
ATOM     26  C   UNL     1       0.706   2.968  19.756  0.00  0.00    +0.000 A 
ATOM     27  C   UNL     1       1.071   2.048  18.771  0.00  0.00    +0.000 A 
ATOM     28  C   UNL     1       2.149   2.320  17.928  0.00  0.00    +0.000 A 
ATOM     29  C   UNL     1       2.862   3.510  18.070  0.00  0.00    +0.000 A 
ATOM     30  F   UNL     1       3.893   3.741  17.249  0.00  0.00    +0.000 F 
ENDBRANCH  21  24
ENDBRANCH  19  21
ENDBRANCH   3  19
TORSDOF 6
ENDMDL
MODEL 6
REMARK VINA RESULT:      -8.1      5.061      8.355
REMARK  Name = 
REMARK  7 active torsions:
REMARK  status: ('A' for Active; 'I' for Inactive)
REMARK    1  A    between atoms: C_1  and  O_2
REMARK    2  A    between atoms: O_2  and  C_3
REMARK    3  A    between atoms: C_5  and  C_6
REMARK    4  A    between atoms: N_8  and  N_9
REMARK    5  A    between atoms: N_9  and  S_10
REMARK    6  A    between atoms: S_10  and  C_13
REMARK    7  A    between atoms: C_21  and  C_22
REMARK                            x       y       z     vdW  Elec       q    Type
REMARK                         _______ _______ _______ _____ _____    ______ ____
ROOT
ATOM      1  C   UNL     1       2.184   8.597  17.990  0.00  0.00    +0.000 C 
ATOM      2  O   UNL     1       2.750   9.157  17.053  0.00  0.00    +0.000 OA
ATOM      3  N   UNL     1       2.548   7.348  18.451  0.00  0.00    +0.000 N 
ATOM      4  H   UNL     1       2.217   6.966  19.335  0.00  0.00    +0.000 HD
ENDROOT
BRANCH   1   7
ATOM      5  C   UNL     1       0.218  10.208  20.793  0.00  0.00    +0.000 A 
ATOM      6  C   UNL     1       1.235   9.564  20.084  0.00  0.00    +0.000 A 
ATOM      7  C   UNL     1       1.071   9.263  18.727  0.00  0.00    +0.000 A 
ATOM      8  C   UNL     1      -0.114   9.635  18.074  0.00  0.00    +0.000 A 
ATOM      9  C   UNL     1      -1.142  10.310  18.759  0.00  0.00    +0.000 A 
ATOM     10  C   UNL     1      -0.959  10.562  20.131  0.00  0.00    +0.000 A 
BRANCH   9  11
ATOM     11  C   UNL     1      -2.361  10.753  18.055  0.00  0.00    +0.000 A 
ATOM     12  C   UNL     1      -2.586  10.491  16.702  0.00  0.00    +0.000 A 
ATOM     13  C   UNL     1      -3.755  10.955  16.099  0.00  0.00    +0.000 A 
ATOM     14  C   UNL     1      -4.673  11.666  16.858  0.00  0.00    +0.000 A 
ATOM     15  C   UNL     1      -4.386  11.876  18.195  0.00  0.00    +0.000 A 
ATOM     16  N   UNL     1      -3.261  11.437  18.805  0.00  0.00    +0.000 NA
ENDBRANCH   9  11
BRANCH   5  18
ATOM     17  C   UNL     1      -0.101   9.555  23.060  0.00  0.00    +0.000 C 
ATOM     18  O   UNL     1       0.479  10.450  22.115  0.00  0.00    +0.000 OA
ENDBRANCH   5  18
ENDBRANCH   1   7
BRANCH   3  19
ATOM     19  N   UNL     1       3.643   6.643  17.796  0.00  0.00    +0.000 NA
ATOM     20  H   UNL     1       4.268   7.192  17.196  0.00  0.00    +0.000 HD
BRANCH  19  21
ATOM     21  S   UNL     1       4.205   5.235  18.547  0.00  0.00    +0.000 S 
ATOM     22  O   UNL     1       4.926   4.501  17.526  0.00  0.00    +0.000 OA
ATOM     23  O   UNL     1       4.872   5.607  19.776  0.00  0.00    +0.000 OA
BRANCH  21  24
ATOM     24  C   UNL     1       2.757   4.320  18.939  0.00  0.00    +0.000 A 
ATOM     25  C   UNL     1       2.306   3.310  18.081  0.00  0.00    +0.000 A 
ATOM     26  C   UNL     1       1.208   2.529  18.448  0.00  0.00    +0.000 A 
ATOM     27  C   UNL     1       0.566   2.756  19.668  0.00  0.00    +0.000 A 
ATOM     28  C   UNL     1       1.022   3.763  20.519  0.00  0.00    +0.000 A 
ATOM     29  C   UNL     1       2.118   4.542  20.152  0.00  0.00    +0.000 A 
ATOM     30  F   UNL     1       2.530   5.503  20.988  0.00  0.00    +0.000 F 
ENDBRANCH  21  24
ENDBRANCH  19  21
ENDBRANCH   3  19
TORSDOF 6
ENDMDL
MODEL 7
REMARK VINA RESULT:      -8.1      5.481      6.656
REMARK  Name = 
REMARK  7 active torsions:
REMARK  status: ('A' for Active; 'I' for Inactive)
REMARK    1  A    between atoms: C_1  and  O_2
REMARK    2  A    between atoms: O_2  and  C_3
REMARK    3  A    between atoms: C_5  and  C_6
REMARK    4  A    between atoms: N_8  and  N_9
REMARK    5  A    between atoms: N_9  and  S_10
REMARK    6  A    between atoms: S_10  and  C_13
REMARK    7  A    between atoms: C_21  and  C_22
REMARK                            x       y       z     vdW  Elec       q    Type
REMARK                         _______ _______ _______ _____ _____    ______ ____
ROOT
ATOM      1  C   UNL     1       1.936   9.145  18.385  0.00  0.00    +0.000 C 
ATOM      2  O   UNL     1       1.964   9.640  17.261  0.00  0.00    +0.000 OA
ATOM      3  N   UNL     1       1.352   9.770  19.469  0.00  0.00    +0.000 N 
ATOM      4  H   UNL     1       1.156   9.290  20.345  0.00  0.00    +0.000 HD
ENDROOT
BRANCH   1   7
ATOM      5  C   UNL     1       2.528   5.765  19.979  0.00  0.00    +0.000 A 
ATOM      6  C   UNL     1       2.025   7.043  19.724  0.00  0.00    +0.000 A 
ATOM      7  C   UNL     1       2.510   7.794  18.647  0.00  0.00    +0.000 A 
ATOM      8  C   UNL     1       3.488   7.243  17.805  0.00  0.00    +0.000 A 
ATOM      9  C   UNL     1       3.990   5.946  18.023  0.00  0.00    +0.000 A 
ATOM     10  C   UNL     1       3.509   5.235  19.138  0.00  0.00    +0.000 A 
BRANCH   9  11
ATOM     11  C   UNL     1       4.976   5.348  17.102  0.00  0.00    +0.000 A 
ATOM     12  C   UNL     1       4.727   4.170  16.395  0.00  0.00    +0.000 A 
ATOM     13  C   UNL     1       5.713   3.653  15.554  0.00  0.00    +0.000 A 
ATOM     14  C   UNL     1       6.922   4.323  15.435  0.00  0.00    +0.000 A 
ATOM     15  C   UNL     1       7.091   5.490  16.159  0.00  0.00    +0.000 A 
ATOM     16  N   UNL     1       6.152   6.014  16.980  0.00  0.00    +0.000 NA
ENDBRANCH   9  11
BRANCH   5  18
ATOM     17  C   UNL     1       2.170   3.708  21.123  0.00  0.00    +0.000 C 
ATOM     18  O   UNL     1       1.989   5.120  21.060  0.00  0.00    +0.000 OA
ENDBRANCH   5  18
ENDBRANCH   1   7
BRANCH   3  19
ATOM     19  N   UNL     1       0.748  11.085  19.287  0.00  0.00    +0.000 NA
ATOM     20  H   UNL     1       1.057  11.640  18.483  0.00  0.00    +0.000 HD
BRANCH  19  21
ATOM     21  S   UNL     1      -0.798  11.314  19.936  0.00  0.00    +0.000 S 
ATOM     22  O   UNL     1      -0.997  10.230  20.878  0.00  0.00    +0.000 OA
ATOM     23  O   UNL     1      -0.908  12.686  20.381  0.00  0.00    +0.000 OA
BRANCH  21  24
ATOM     24  C   UNL     1      -1.898  11.060  18.591  0.00  0.00    +0.000 A 
ATOM     25  C   UNL     1      -1.544  10.206  17.540  0.00  0.00    +0.000 A 
ATOM     26  C   UNL     1      -2.464   9.941  16.523  0.00  0.00    +0.000 A 
ATOM     27  C   UNL     1      -3.731  10.525  16.558  0.00  0.00    +0.000 A 
ATOM     28  C   UNL     1      -4.079  11.374  17.610  0.00  0.00    +0.000 A 
ATOM     29  C   UNL     1      -3.160  11.638  18.625  0.00  0.00    +0.000 A 
ATOM     30  F   UNL     1      -3.522  12.459  19.618  0.00  0.00    +0.000 F 
ENDBRANCH  21  24
ENDBRANCH  19  21
ENDBRANCH   3  19
TORSDOF 6
ENDMDL
MODEL 8
REMARK VINA RESULT:      -8.1      5.922      7.140
REMARK  Name = 
REMARK  7 active torsions:
REMARK  status: ('A' for Active; 'I' for Inactive)
REMARK    1  A    between atoms: C_1  and  O_2
REMARK    2  A    between atoms: O_2  and  C_3
REMARK    3  A    between atoms: C_5  and  C_6
REMARK    4  A    between atoms: N_8  and  N_9
REMARK    5  A    between atoms: N_9  and  S_10
REMARK    6  A    between atoms: S_10  and  C_13
REMARK    7  A    between atoms: C_21  and  C_22
REMARK                            x       y       z     vdW  Elec       q    Type
REMARK                         _______ _______ _______ _____ _____    ______ ____
ROOT
ATOM      1  C   UNL     1       1.839   9.471  18.015  0.00  0.00    +0.000 C 
ATOM      2  O   UNL     1       2.576  10.371  17.621  0.00  0.00    +0.000 OA
ATOM      3  N   UNL     1       0.474   9.624  18.162  0.00  0.00    +0.000 N 
ATOM      4  H   UNL     1      -0.159   8.839  18.300  0.00  0.00    +0.000 HD
ENDROOT
BRANCH   1   7
ATOM      5  C   UNL     1       2.415   6.183  19.797  0.00  0.00    +0.000 A 
ATOM      6  C   UNL     1       1.945   7.461  19.490  0.00  0.00    +0.000 A 
ATOM      7  C   UNL     1       2.377   8.116  18.330  0.00  0.00    +0.000 A 
ATOM      8  C   UNL     1       3.268   7.466  17.461  0.00  0.00    +0.000 A 
ATOM      9  C   UNL     1       3.734   6.167  17.734  0.00  0.00    +0.000 A 
ATOM     10  C   UNL     1       3.309   5.555  18.927  0.00  0.00    +0.000 A 
BRANCH   9  11
ATOM     11  C   UNL     1       4.624   5.464  16.789  0.00  0.00    +0.000 A 
ATOM     12  C   UNL     1       5.266   6.116  15.734  0.00  0.00    +0.000 A 
ATOM     13  C   UNL     1       6.080   5.384  14.870  0.00  0.00    +0.000 A 
ATOM     14  C   UNL     1       6.238   4.022  15.078  0.00  0.00    +0.000 A 
ATOM     15  C   UNL     1       5.578   3.449  16.150  0.00  0.00    +0.000 A 
ATOM     16  N   UNL     1       4.783   4.134  17.004  0.00  0.00    +0.000 NA
ENDBRANCH   9  11
BRANCH   5  18
ATOM     17  C   UNL     1       2.235   4.264  21.196  0.00  0.00    +0.000 C 
ATOM     18  O   UNL     1       1.933   5.637  20.956  0.00  0.00    +0.000 OA
ENDBRANCH   5  18
ENDBRANCH   1   7
BRANCH   3  19
ATOM     19  N   UNL     1      -0.130  10.914  17.851  0.00  0.00    +0.000 NA
ATOM     20  H   UNL     1      -0.319  11.123  16.866  0.00  0.00    +0.000 HD
BRANCH  19  21
ATOM     21  S   UNL     1      -1.056  11.638  19.068  0.00  0.00    +0.000 S 
ATOM     22  O   UNL     1      -1.033  10.716  20.186  0.00  0.00    +0.000 OA
ATOM     23  O   UNL     1      -0.596  12.999  19.245  0.00  0.00    +0.000 OA
BRANCH  21  24
ATOM     24  C   UNL     1      -2.695  11.668  18.435  0.00  0.00    +0.000 A 
ATOM     25  C   UNL     1      -2.968  11.168  17.157  0.00  0.00    +0.000 A 
ATOM     26  C   UNL     1      -4.287  11.113  16.702  0.00  0.00    +0.000 A 
ATOM     27  C   UNL     1      -5.327  11.553  17.522  0.00  0.00    +0.000 A 
ATOM     28  C   UNL     1      -5.049  12.049  18.796  0.00  0.00    +0.000 A 
ATOM     29  C   UNL     1      -3.732  12.104  19.250  0.00  0.00    +0.000 A 
ATOM     30  F   UNL     1      -3.496  12.588  20.475  0.00  0.00    +0.000 F 
ENDBRANCH  21  24
ENDBRANCH  19  21
ENDBRANCH   3  19
TORSDOF 6
ENDMDL
MODEL 9
REMARK VINA RESULT:      -8.1      4.877      6.320
REMARK  Name = 
REMARK  7 active torsions:
REMARK  status: ('A' for Active; 'I' for Inactive)
REMARK    1  A    between atoms: C_1  and  O_2
REMARK    2  A    between atoms: O_2  and  C_3
REMARK    3  A    between atoms: C_5  and  C_6
REMARK    4  A    between atoms: N_8  and  N_9
REMARK    5  A    between atoms: N_9  and  S_10
REMARK    6  A    between atoms: S_10  and  C_13
REMARK    7  A    between atoms: C_21  and  C_22
REMARK                            x       y       z     vdW  Elec       q    Type
REMARK                         _______ _______ _______ _____ _____    ______ ____
ROOT
ATOM      1  C   UNL     1       1.904   8.068  20.232  0.00  0.00    +0.000 C 
ATOM      2  O   UNL     1       1.711   8.976  19.427  0.00  0.00    +0.000 OA
ATOM      3  N   UNL     1       1.792   8.235  21.598  0.00  0.00    +0.000 N 
ATOM      4  H   UNL     1       1.762   7.454  22.250  0.00  0.00    +0.000 HD
ENDROOT
BRANCH   1   7
ATOM      5  C   UNL     1       1.880   4.295  19.935  0.00  0.00    +0.000 A 
ATOM      6  C   UNL     1       1.599   5.595  20.362  0.00  0.00    +0.000 A 
ATOM      7  C   UNL     1       2.242   6.689  19.772  0.00  0.00    +0.000 A 
ATOM      8  C   UNL     1       3.155   6.474  18.728  0.00  0.00    +0.000 A 
ATOM      9  C   UNL     1       3.433   5.176  18.260  0.00  0.00    +0.000 A 
ATOM     10  C   UNL     1       2.797   4.097  18.902  0.00  0.00    +0.000 A 
BRANCH   9  11
ATOM     11  C   UNL     1       4.348   4.957  17.122  0.00  0.00    +0.000 A 
ATOM     12  C   UNL     1       4.800   3.689  16.753  0.00  0.00    +0.000 A 
ATOM     13  C   UNL     1       5.677   3.561  15.676  0.00  0.00    +0.000 A 
ATOM     14  C   UNL     1       6.082   4.697  14.992  0.00  0.00    +0.000 A 
ATOM     15  C   UNL     1       5.583   5.918  15.410  0.00  0.00    +0.000 A 
ATOM     16  N   UNL     1       4.730   6.072  16.449  0.00  0.00    +0.000 NA
ENDBRANCH   9  11
BRANCH   5  18
ATOM     17  C   UNL     1       1.877   2.650  21.657  0.00  0.00    +0.000 C 
ATOM     18  O   UNL     1       1.200   3.299  20.583  0.00  0.00    +0.000 OA
ENDBRANCH   5  18
ENDBRANCH   1   7
BRANCH   3  19
ATOM     19  N   UNL     1       1.442   9.549  22.123  0.00  0.00    +0.000 NA
ATOM     20  H   UNL     1       2.141  10.293  22.041  0.00  0.00    +0.000 HD
BRANCH  19  21
ATOM     21  S   UNL     1      -0.205   9.932  22.189  0.00  0.00    +0.000 S 
ATOM     22  O   UNL     1      -0.911   8.675  22.031  0.00  0.00    +0.000 OA
ATOM     23  O   UNL     1      -0.438  10.748  23.361  0.00  0.00    +0.000 OA
BRANCH  21  24
ATOM     24  C   UNL     1      -0.506  10.896  20.752  0.00  0.00    +0.000 A 
ATOM     25  C   UNL     1      -1.278  10.382  19.705  0.00  0.00    +0.000 A 
ATOM     26  C   UNL     1      -1.587  11.191  18.609  0.00  0.00    +0.000 A 
ATOM     27  C   UNL     1      -1.127  12.509  18.563  0.00  0.00    +0.000 A 
ATOM     28  C   UNL     1      -0.359  13.016  19.612  0.00  0.00    +0.000 A 
ATOM     29  C   UNL     1      -0.051  12.208  20.705  0.00  0.00    +0.000 A 
ATOM     30  F   UNL     1       0.690  12.722  21.694  0.00  0.00    +0.000 F 
ENDBRANCH  21  24
ENDBRANCH  19  21
ENDBRANCH   3  19
TORSDOF 6
ENDMDL
