MODEL 1
REMARK VINA RESULT:      -8.9      0.000      0.000
REMARK  Name = 
REMARK  4 active torsions:
REMARK  status: ('A' for Active; 'I' for Inactive)
REMARK    1  A    between atoms: N_3  and  C_4
REMARK    2  A    between atoms: C_9  and  C_10
REMARK    3  A    between atoms: C_16  and  C_17
REMARK    4  A    between atoms: N_26  and  C_27
REMARK                            x       y       z     vdW  Elec       q    Type
REMARK                         _______ _______ _______ _____ _____    ______ ____
ROOT
ATOM      1  C   UNL     1       0.497  10.958  19.680  0.00  0.00    +0.000 A 
ATOM      2  C   UNL     1       1.288  11.255  18.573  0.00  0.00    +0.000 A 
ATOM      3  C   UNL     1       2.114  10.282  18.009  0.00  0.00    +0.000 A 
ATOM      4  C   UNL     1       2.177   9.007  18.537  0.00  0.00    +0.000 A 
ATOM      5  N   UNL     1       2.920   8.093  17.896  0.00  0.00    +0.000 NA
ATOM      6  C   UNL     1       2.945   6.829  18.397  0.00  0.00    +0.000 A 
ATOM      7  C   UNL     1       2.290   6.527  19.616  0.00  0.00    +0.000 A 
ATOM      8  N   UNL     1       1.524   7.469  20.255  0.00  0.00    +0.000 NA
ATOM      9  C   UNL     1       1.448   8.700  19.704  0.00  0.00    +0.000 A 
ATOM     10  C   UNL     1       0.621   9.684  20.258  0.00  0.00    +0.000 A 
ENDROOT
BRANCH   1  13
ATOM     11  O   UNL     1      -2.357  11.096  19.187  0.00  0.00    +0.000 OA
ATOM     12  C   UNL     1      -1.808  11.865  19.964  0.00  0.00    +0.000 C 
ATOM     13  N   UNL     1      -0.443  11.871  20.228  0.00  0.00    +0.000 N 
ATOM     14  N   UNL     1      -2.488  12.819  20.705  0.00  0.00    +0.000 N 
ATOM     15  H   UNL     1      -0.140  12.410  21.025  0.00  0.00    +0.000 HD
ATOM     16  H   UNL     1      -1.981  13.641  20.981  0.00  0.00    +0.000 HD
BRANCH  14  17
ATOM     17  C   UNL     1      -3.906  12.893  20.812  0.00  0.00    +0.000 A 
ATOM     18  C   UNL     1      -4.724  13.068  19.685  0.00  0.00    +0.000 A 
ATOM     19  C   UNL     1      -6.119  13.122  19.801  0.00  0.00    +0.000 A 
ATOM     20  C   UNL     1      -6.716  12.980  21.044  0.00  0.00    +0.000 A 
ATOM     21  C   UNL     1      -5.929  12.794  22.176  0.00  0.00    +0.000 A 
ATOM     22  C   UNL     1      -4.531  12.758  22.063  0.00  0.00    +0.000 A 
ATOM     23 BR   UNL     1      -3.518  12.582  23.663  0.00  0.00    +0.000 Br
ENDBRANCH  14  17
ENDBRANCH   1  13
BRANCH   6  24
ATOM     24  C   UNL     1       3.692   5.871  17.536  0.00  0.00    +0.000 A 
ATOM     25  C   UNL     1       4.943   6.218  16.993  0.00  0.00    +0.000 A 
ATOM     26  C   UNL     1       5.731   5.278  16.317  0.00  0.00    +0.000 A 
ATOM     27  C   UNL     1       5.298   3.961  16.196  0.00  0.00    +0.000 A 
ATOM     28  C   UNL     1       4.038   3.611  16.660  0.00  0.00    +0.000 A 
ATOM     29  C   UNL     1       3.220   4.576  17.252  0.00  0.00    +0.000 A 
ENDBRANCH   6  24
BRANCH   7  30
ATOM     30  C   UNL     1       2.286   5.185  20.257  0.00  0.00    +0.000 A 
ATOM     31  C   UNL     1       3.474   4.462  20.480  0.00  0.00    +0.000 A 
ATOM     32  C   UNL     1       3.450   3.078  20.682  0.00  0.00    +0.000 A 
ATOM     33  C   UNL     1       2.235   2.417  20.811  0.00  0.00    +0.000 A 
ATOM     34  C   UNL     1       1.049   3.147  20.785  0.00  0.00    +0.000 A 
ATOM     35  C   UNL     1       1.074   4.519  20.507  0.00  0.00    +0.000 A 
ENDBRANCH   7  30
TORSDOF 4
ENDMDL
MODEL 2
REMARK VINA RESULT:      -8.9      2.127      2.575
REMARK  Name = 
REMARK  4 active torsions:
REMARK  status: ('A' for Active; 'I' for Inactive)
REMARK    1  A    between atoms: N_3  and  C_4
REMARK    2  A    between atoms: C_9  and  C_10
REMARK    3  A    between atoms: C_16  and  C_17
REMARK    4  A    between atoms: N_26  and  C_27
REMARK                            x       y       z     vdW  Elec       q    Type
REMARK                         _______ _______ _______ _____ _____    ______ ____
ROOT
ATOM      1  C   UNL     1       0.175  11.004  19.995  0.00  0.00    +0.000 A 
ATOM      2  C   UNL     1       1.007  11.302  18.918  0.00  0.00    +0.000 A 
ATOM      3  C   UNL     1       1.821  10.318  18.356  0.00  0.00    +0.000 A 
ATOM      4  C   UNL     1       1.832   9.031  18.857  0.00  0.00    +0.000 A 
ATOM      5  N   UNL     1       2.567   8.110  18.217  0.00  0.00    +0.000 NA
ATOM      6  C   UNL     1       2.542   6.834  18.690  0.00  0.00    +0.000 A 
ATOM      7  C   UNL     1       1.844   6.526  19.882  0.00  0.00    +0.000 A 
ATOM      8  N   UNL     1       1.087   7.475  20.520  0.00  0.00    +0.000 NA
ATOM      9  C   UNL     1       1.061   8.720  19.995  0.00  0.00    +0.000 A 
ATOM     10  C   UNL     1       0.247   9.715  20.547  0.00  0.00    +0.000 A 
ENDROOT
BRANCH   1  13
ATOM     11  O   UNL     1       0.049  12.033  22.702  0.00  0.00    +0.000 OA
ATOM     12  C   UNL     1      -0.742  12.401  21.844  0.00  0.00    +0.000 C 
ATOM     13  N   UNL     1      -0.754  11.931  20.536  0.00  0.00    +0.000 N 
ATOM     14  N   UNL     1      -1.718  13.361  22.064  0.00  0.00    +0.000 N 
ATOM     15  H   UNL     1      -1.317  12.447  19.876  0.00  0.00    +0.000 HD
ATOM     16  H   UNL     1      -2.547  13.319  21.500  0.00  0.00    +0.000 HD
BRANCH  14  17
ATOM     17  C   UNL     1      -1.795  14.175  23.230  0.00  0.00    +0.000 A 
ATOM     18  C   UNL     1      -0.911  15.244  23.445  0.00  0.00    +0.000 A 
ATOM     19  C   UNL     1      -1.008  16.049  24.587  0.00  0.00    +0.000 A 
ATOM     20  C   UNL     1      -2.005  15.809  25.520  0.00  0.00    +0.000 A 
ATOM     21  C   UNL     1      -2.902  14.764  25.326  0.00  0.00    +0.000 A 
ATOM     22  C   UNL     1      -2.794  13.946  24.191  0.00  0.00    +0.000 A 
ATOM     23 BR   UNL     1      -4.004  12.486  24.034  0.00  0.00    +0.000 Br
ENDBRANCH  14  17
ENDBRANCH   1  13
BRANCH   6  24
ATOM     24  C   UNL     1       3.287   5.875  17.829  0.00  0.00    +0.000 A 
ATOM     25  C   UNL     1       4.533   6.222  17.276  0.00  0.00    +0.000 A 
ATOM     26  C   UNL     1       5.320   5.281  16.601  0.00  0.00    +0.000 A 
ATOM     27  C   UNL     1       4.890   3.962  16.489  0.00  0.00    +0.000 A 
ATOM     28  C   UNL     1       3.634   3.611  16.963  0.00  0.00    +0.000 A 
ATOM     29  C   UNL     1       2.818   4.577  17.555  0.00  0.00    +0.000 A 
ENDBRANCH   6  24
BRANCH   7  30
ATOM     30  C   UNL     1       1.783   5.171  20.492  0.00  0.00    +0.000 A 
ATOM     31  C   UNL     1       2.875   4.616  21.188  0.00  0.00    +0.000 A 
ATOM     32  C   UNL     1       2.978   3.236  21.388  0.00  0.00    +0.000 A 
ATOM     33  C   UNL     1       1.925   2.403  21.030  0.00  0.00    +0.000 A 
ATOM     34  C   UNL     1       0.755   2.955  20.516  0.00  0.00    +0.000 A 
ATOM     35  C   UNL     1       0.686   4.327  20.246  0.00  0.00    +0.000 A 
ENDBRANCH   7  30
TORSDOF 4
ENDMDL
MODEL 3
REMARK VINA RESULT:      -8.8      1.083      1.590
REMARK  Name = 
REMARK  4 active torsions:
REMARK  status: ('A' for Active; 'I' for Inactive)
REMARK    1  A    between atoms: N_3  and  C_4
REMARK    2  A    between atoms: C_9  and  C_10
REMARK    3  A    between atoms: C_16  and  C_17
REMARK    4  A    between atoms: N_26  and  C_27
REMARK                            x       y       z     vdW  Elec       q    Type
REMARK                         _______ _______ _______ _____ _____    ______ ____
ROOT
ATOM      1  C   UNL     1       0.292  10.773  19.019  0.00  0.00    +0.000 A 
ATOM      2  C   UNL     1       1.361  11.174  18.220  0.00  0.00    +0.000 A 
ATOM      3  C   UNL     1       2.370  10.273  17.879  0.00  0.00    +0.000 A 
ATOM      4  C   UNL     1       2.342   8.968  18.330  0.00  0.00    +0.000 A 
ATOM      5  N   UNL     1       3.291   8.128  17.893  0.00  0.00    +0.000 NA
ATOM      6  C   UNL     1       3.234   6.833  18.307  0.00  0.00    +0.000 A 
ATOM      7  C   UNL     1       2.263   6.424  19.253  0.00  0.00    +0.000 A 
ATOM      8  N   UNL     1       1.291   7.291  19.682  0.00  0.00    +0.000 NA
ATOM      9  C   UNL     1       1.316   8.555  19.204  0.00  0.00    +0.000 A 
ATOM     10  C   UNL     1       0.308   9.468  19.536  0.00  0.00    +0.000 A 
ENDROOT
BRANCH   1  13
ATOM     11  O   UNL     1      -2.446  10.489  18.112  0.00  0.00    +0.000 OA
ATOM     12  C   UNL     1      -2.114  11.402  18.855  0.00  0.00    +0.000 C 
ATOM     13  N   UNL     1      -0.817  11.612  19.308  0.00  0.00    +0.000 N 
ATOM     14  N   UNL     1      -3.003  12.336  19.365  0.00  0.00    +0.000 N 
ATOM     15  H   UNL     1      -0.704  12.269  20.065  0.00  0.00    +0.000 HD
ATOM     16  H   UNL     1      -2.640  13.241  19.604  0.00  0.00    +0.000 HD
BRANCH  14  17
ATOM     17  C   UNL     1      -4.420  12.237  19.259  0.00  0.00    +0.000 A 
ATOM     18  C   UNL     1      -5.052  11.950  18.039  0.00  0.00    +0.000 A 
ATOM     19  C   UNL     1      -6.445  11.839  17.951  0.00  0.00    +0.000 A 
ATOM     20  C   UNL     1      -7.225  11.993  19.087  0.00  0.00    +0.000 A 
ATOM     21  C   UNL     1      -6.624  12.267  20.311  0.00  0.00    +0.000 A 
ATOM     22  C   UNL     1      -5.229  12.396  20.397  0.00  0.00    +0.000 A 
ATOM     23 BR   UNL     1      -4.485  12.852  22.087  0.00  0.00    +0.000 Br
ENDBRANCH  14  17
ENDBRANCH   1  13
BRANCH   6  24
ATOM     24  C   UNL     1       4.257   5.965  17.660  0.00  0.00    +0.000 A 
ATOM     25  C   UNL     1       3.887   4.758  17.038  0.00  0.00    +0.000 A 
ATOM     26  C   UNL     1       4.804   4.013  16.288  0.00  0.00    +0.000 A 
ATOM     27  C   UNL     1       6.106   4.474  16.118  0.00  0.00    +0.000 A 
ATOM     28  C   UNL     1       6.516   5.623  16.779  0.00  0.00    +0.000 A 
ATOM     29  C   UNL     1       5.619   6.312  17.598  0.00  0.00    +0.000 A 
ENDBRANCH   6  24
BRANCH   7  30
ATOM     30  C   UNL     1       2.142   5.042  19.787  0.00  0.00    +0.000 A 
ATOM     31  C   UNL     1       1.397   4.048  19.121  0.00  0.00    +0.000 A 
ATOM     32  C   UNL     1       0.940   2.913  19.798  0.00  0.00    +0.000 A 
ATOM     33  C   UNL     1       1.340   2.679  21.108  0.00  0.00    +0.000 A 
ATOM     34  C   UNL     1       2.233   3.554  21.721  0.00  0.00    +0.000 A 
ATOM     35  C   UNL     1       2.628   4.727  21.067  0.00  0.00    +0.000 A 
ENDBRANCH   7  30
TORSDOF 4
ENDMDL
MODEL 4
REMARK VINA RESULT:      -8.7      1.848      2.538
REMARK  Name = 
REMARK  4 active torsions:
REMARK  status: ('A' for Active; 'I' for Inactive)
REMARK    1  A    between atoms: N_3  and  C_4
REMARK    2  A    between atoms: C_9  and  C_10
REMARK    3  A    between atoms: C_16  and  C_17
REMARK    4  A    between atoms: N_26  and  C_27
REMARK                            x       y       z     vdW  Elec       q    Type
REMARK                         _______ _______ _______ _____ _____    ______ ____
ROOT
ATOM      1  C   UNL     1       0.316  10.898  19.634  0.00  0.00    +0.000 A 
ATOM      2  C   UNL     1       1.257  11.309  18.692  0.00  0.00    +0.000 A 
ATOM      3  C   UNL     1       2.169  10.399  18.157  0.00  0.00    +0.000 A 
ATOM      4  C   UNL     1       2.171   9.075  18.552  0.00  0.00    +0.000 A 
ATOM      5  N   UNL     1       3.012   8.233  17.935  0.00  0.00    +0.000 NA
ATOM      6  C   UNL     1       2.980   6.922  18.299  0.00  0.00    +0.000 A 
ATOM      7  C   UNL     1       2.158   6.495  19.370  0.00  0.00    +0.000 A 
ATOM      8  N   UNL     1       1.295   7.366  19.985  0.00  0.00    +0.000 NA
ATOM      9  C   UNL     1       1.284   8.649  19.561  0.00  0.00    +0.000 A 
ATOM     10  C   UNL     1       0.371   9.571  20.087  0.00  0.00    +0.000 A 
ENDROOT
BRANCH   1  13
ATOM     11  O   UNL     1      -0.162  11.705  22.377  0.00  0.00    +0.000 OA
ATOM     12  C   UNL     1      -0.863  12.115  21.462  0.00  0.00    +0.000 C 
ATOM     13  N   UNL     1      -0.706  11.750  20.130  0.00  0.00    +0.000 N 
ATOM     14  N   UNL     1      -1.896  13.023  21.638  0.00  0.00    +0.000 N 
ATOM     15  H   UNL     1      -1.210  12.299  19.450  0.00  0.00    +0.000 HD
ATOM     16  H   UNL     1      -2.652  13.000  20.978  0.00  0.00    +0.000 HD
BRANCH  14  17
ATOM     17  C   UNL     1      -2.140  13.739  22.844  0.00  0.00    +0.000 A 
ATOM     18  C   UNL     1      -1.103  14.369  23.552  0.00  0.00    +0.000 A 
ATOM     19  C   UNL     1      -1.358  15.085  24.728  0.00  0.00    +0.000 A 
ATOM     20  C   UNL     1      -2.656  15.200  25.201  0.00  0.00    +0.000 A 
ATOM     21  C   UNL     1      -3.703  14.596  24.513  0.00  0.00    +0.000 A 
ATOM     22  C   UNL     1      -3.447  13.863  23.345  0.00  0.00    +0.000 A 
ATOM     23 BR   UNL     1      -4.916  12.997  22.503  0.00  0.00    +0.000 Br
ENDBRANCH  14  17
ENDBRANCH   1  13
BRANCH   6  24
ATOM     24  C   UNL     1       3.858   6.059  17.461  0.00  0.00    +0.000 A 
ATOM     25  C   UNL     1       3.738   4.658  17.499  0.00  0.00    +0.000 A 
ATOM     26  C   UNL     1       4.440   3.842  16.604  0.00  0.00    +0.000 A 
ATOM     27  C   UNL     1       5.256   4.410  15.632  0.00  0.00    +0.000 A 
ATOM     28  C   UNL     1       5.448   5.785  15.619  0.00  0.00    +0.000 A 
ATOM     29  C   UNL     1       4.815   6.585  16.572  0.00  0.00    +0.000 A 
ENDBRANCH   6  24
BRANCH   7  30
ATOM     30  C   UNL     1       2.078   5.093  19.859  0.00  0.00    +0.000 A 
ATOM     31  C   UNL     1       1.295   4.120  19.209  0.00  0.00    +0.000 A 
ATOM     32  C   UNL     1       0.889   2.958  19.872  0.00  0.00    +0.000 A 
ATOM     33  C   UNL     1       1.377   2.678  21.143  0.00  0.00    +0.000 A 
ATOM     34  C   UNL     1       2.306   3.536  21.726  0.00  0.00    +0.000 A 
ATOM     35  C   UNL     1       2.651   4.734  21.092  0.00  0.00    +0.000 A 
ENDBRANCH   7  30
TORSDOF 4
ENDMDL
MODEL 5
REMARK VINA RESULT:      -8.7      2.089      2.611
REMARK  Name = 
REMARK  4 active torsions:
REMARK  status: ('A' for Active; 'I' for Inactive)
REMARK    1  A    between atoms: N_3  and  C_4
REMARK    2  A    between atoms: C_9  and  C_10
REMARK    3  A    between atoms: C_16  and  C_17
REMARK    4  A    between atoms: N_26  and  C_27
REMARK                            x       y       z     vdW  Elec       q    Type
REMARK                         _______ _______ _______ _____ _____    ______ ____
ROOT
ATOM      1  C   UNL     1       0.435  10.914  19.595  0.00  0.00    +0.000 A 
ATOM      2  C   UNL     1       1.359  11.291  18.623  0.00  0.00    +0.000 A 
ATOM      3  C   UNL     1       2.237  10.355  18.077  0.00  0.00    +0.000 A 
ATOM      4  C   UNL     1       2.220   9.037  18.491  0.00  0.00    +0.000 A 
ATOM      5  N   UNL     1       3.026   8.167  17.864  0.00  0.00    +0.000 NA
ATOM      6  C   UNL     1       2.975   6.863  18.247  0.00  0.00    +0.000 A 
ATOM      7  C   UNL     1       2.174   6.468  19.345  0.00  0.00    +0.000 A 
ATOM      8  N   UNL     1       1.346   7.366  19.970  0.00  0.00    +0.000 NA
ATOM      9  C   UNL     1       1.351   8.643  19.528  0.00  0.00    +0.000 A 
ATOM     10  C   UNL     1       0.474   9.592  20.065  0.00  0.00    +0.000 A 
ENDROOT
BRANCH   1  13
ATOM     11  O   UNL     1      -0.056  11.639  22.358  0.00  0.00    +0.000 OA
ATOM     12  C   UNL     1      -0.720  12.116  21.449  0.00  0.00    +0.000 C 
ATOM     13  N   UNL     1      -0.555  11.795  20.106  0.00  0.00    +0.000 N 
ATOM     14  N   UNL     1      -1.711  13.066  21.641  0.00  0.00    +0.000 N 
ATOM     15  H   UNL     1      -1.019  12.393  19.439  0.00  0.00    +0.000 HD
ATOM     16  H   UNL     1      -2.455  13.104  20.968  0.00  0.00    +0.000 HD
BRANCH  14  17
ATOM     17  C   UNL     1      -1.944  13.747  22.870  0.00  0.00    +0.000 A 
ATOM     18  C   UNL     1      -3.026  13.421  23.702  0.00  0.00    +0.000 A 
ATOM     19  C   UNL     1      -3.235  14.087  24.917  0.00  0.00    +0.000 A 
ATOM     20  C   UNL     1      -2.351  15.074  25.325  0.00  0.00    +0.000 A 
ATOM     21  C   UNL     1      -1.264  15.409  24.525  0.00  0.00    +0.000 A 
ATOM     22  C   UNL     1      -1.064  14.755  23.300  0.00  0.00    +0.000 A 
ATOM     23 BR   UNL     1       0.396  15.322  22.222  0.00  0.00    +0.000 Br
ENDBRANCH  14  17
ENDBRANCH   1  13
BRANCH   6  24
ATOM     24  C   UNL     1       3.812   5.970  17.398  0.00  0.00    +0.000 A 
ATOM     25  C   UNL     1       4.823   6.499  16.575  0.00  0.00    +0.000 A 
ATOM     26  C   UNL     1       5.722   5.667  15.897  0.00  0.00    +0.000 A 
ATOM     27  C   UNL     1       5.648   4.286  16.051  0.00  0.00    +0.000 A 
ATOM     28  C   UNL     1       4.618   3.736  16.799  0.00  0.00    +0.000 A 
ATOM     29  C   UNL     1       3.671   4.569  17.399  0.00  0.00    +0.000 A 
ENDBRANCH   6  24
BRANCH   7  30
ATOM     30  C   UNL     1       2.076   5.075  19.855  0.00  0.00    +0.000 A 
ATOM     31  C   UNL     1       1.258   4.109  19.238  0.00  0.00    +0.000 A 
ATOM     32  C   UNL     1       0.843   2.966  19.927  0.00  0.00    +0.000 A 
ATOM     33  C   UNL     1       1.356   2.693  21.189  0.00  0.00    +0.000 A 
ATOM     34  C   UNL     1       2.316   3.539  21.739  0.00  0.00    +0.000 A 
ATOM     35  C   UNL     1       2.670   4.721  21.079  0.00  0.00    +0.000 A 
ENDBRANCH   7  30
TORSDOF 4
ENDMDL
MODEL 6
REMARK VINA RESULT:      -8.6      2.037      2.546
REMARK  Name = 
REMARK  4 active torsions:
REMARK  status: ('A' for Active; 'I' for Inactive)
REMARK    1  A    between atoms: N_3  and  C_4
REMARK    2  A    between atoms: C_9  and  C_10
REMARK    3  A    between atoms: C_16  and  C_17
REMARK    4  A    between atoms: N_26  and  C_27
REMARK                            x       y       z     vdW  Elec       q    Type
REMARK                         _______ _______ _______ _____ _____    ______ ____
ROOT
ATOM      1  C   UNL     1       0.373  10.822  19.664  0.00  0.00    +0.000 A 
ATOM      2  C   UNL     1       1.269  11.214  18.672  0.00  0.00    +0.000 A 
ATOM      3  C   UNL     1       2.148  10.291  18.105  0.00  0.00    +0.000 A 
ATOM      4  C   UNL     1       2.160   8.972  18.516  0.00  0.00    +0.000 A 
ATOM      5  N   UNL     1       2.963   8.116  17.869  0.00  0.00    +0.000 NA
ATOM      6  C   UNL     1       2.940   6.810  18.251  0.00  0.00    +0.000 A 
ATOM      7  C   UNL     1       2.168   6.402  19.366  0.00  0.00    +0.000 A 
ATOM      8  N   UNL     1       1.342   7.288  20.011  0.00  0.00    +0.000 NA
ATOM      9  C   UNL     1       1.320   8.565  19.572  0.00  0.00    +0.000 A 
ATOM     10  C   UNL     1       0.441   9.500  20.131  0.00  0.00    +0.000 A 
ENDROOT
BRANCH   1  13
ATOM     11  O   UNL     1       0.368  12.158  22.236  0.00  0.00    +0.000 OA
ATOM     12  C   UNL     1      -0.544  12.316  21.437  0.00  0.00    +0.000 C 
ATOM     13  N   UNL     1      -0.618  11.689  20.199  0.00  0.00    +0.000 N 
ATOM     14  N   UNL     1      -1.615  13.168  21.656  0.00  0.00    +0.000 N 
ATOM     15  H   UNL     1      -1.306  12.045  19.552  0.00  0.00    +0.000 HD
ATOM     16  H   UNL     1      -2.482  12.953  21.196  0.00  0.00    +0.000 HD
BRANCH  14  17
ATOM     17  C   UNL     1      -1.691  14.105  22.725  0.00  0.00    +0.000 A 
ATOM     18  C   UNL     1      -0.873  15.246  22.767  0.00  0.00    +0.000 A 
ATOM     19  C   UNL     1      -0.968  16.170  23.815  0.00  0.00    +0.000 A 
ATOM     20  C   UNL     1      -1.898  15.977  24.825  0.00  0.00    +0.000 A 
ATOM     21  C   UNL     1      -2.728  14.861  24.803  0.00  0.00    +0.000 A 
ATOM     22  C   UNL     1      -2.621  13.926  23.763  0.00  0.00    +0.000 A 
ATOM     23 BR   UNL     1      -3.731  12.383  23.842  0.00  0.00    +0.000 Br
ENDBRANCH  14  17
ENDBRANCH   1  13
BRANCH   6  24
ATOM     24  C   UNL     1       3.770   5.930  17.383  0.00  0.00    +0.000 A 
ATOM     25  C   UNL     1       4.792   6.469  16.580  0.00  0.00    +0.000 A 
ATOM     26  C   UNL     1       5.684   5.645  15.883  0.00  0.00    +0.000 A 
ATOM     27  C   UNL     1       5.592   4.261  15.998  0.00  0.00    +0.000 A 
ATOM     28  C   UNL     1       4.550   3.704  16.726  0.00  0.00    +0.000 A 
ATOM     29  C   UNL     1       3.611   4.532  17.344  0.00  0.00    +0.000 A 
ENDBRANCH   6  24
BRANCH   7  30
ATOM     30  C   UNL     1       2.102   5.007  19.876  0.00  0.00    +0.000 A 
ATOM     31  C   UNL     1       1.168   4.076  19.382  0.00  0.00    +0.000 A 
ATOM     32  C   UNL     1       0.824   2.938  20.119  0.00  0.00    +0.000 A 
ATOM     33  C   UNL     1       1.512   2.634  21.288  0.00  0.00    +0.000 A 
ATOM     34  C   UNL     1       2.571   3.442  21.692  0.00  0.00    +0.000 A 
ATOM     35  C   UNL     1       2.862   4.620  20.994  0.00  0.00    +0.000 A 
ENDBRANCH   7  30
TORSDOF 4
ENDMDL
MODEL 7
REMARK VINA RESULT:      -8.6      2.958     10.596
REMARK  Name = 
REMARK  4 active torsions:
REMARK  status: ('A' for Active; 'I' for Inactive)
REMARK    1  A    between atoms: N_3  and  C_4
REMARK    2  A    between atoms: C_9  and  C_10
REMARK    3  A    between atoms: C_16  and  C_17
REMARK    4  A    between atoms: N_26  and  C_27
REMARK                            x       y       z     vdW  Elec       q    Type
REMARK                         _______ _______ _______ _____ _____    ______ ____
ROOT
ATOM      1  C   UNL     1       0.913  10.181  18.539  0.00  0.00    +0.000 A 
ATOM      2  C   UNL     1       1.358  10.996  19.577  0.00  0.00    +0.000 A 
ATOM      3  C   UNL     1       0.469  11.828  20.257  0.00  0.00    +0.000 A 
ATOM      4  C   UNL     1      -0.869  11.873  19.914  0.00  0.00    +0.000 A 
ATOM      5  N   UNL     1      -1.688  12.624  20.665  0.00  0.00    +0.000 NA
ATOM      6  C   UNL     1      -3.012  12.632  20.348  0.00  0.00    +0.000 A 
ATOM      7  C   UNL     1      -3.478  11.952  19.197  0.00  0.00    +0.000 A 
ATOM      8  N   UNL     1      -2.630  11.178  18.446  0.00  0.00    +0.000 NA
ATOM      9  C   UNL     1      -1.332  11.120  18.817  0.00  0.00    +0.000 A 
ATOM     10  C   UNL     1      -0.430  10.287  18.145  0.00  0.00    +0.000 A 
ENDROOT
BRANCH   1  13
ATOM     11  O   UNL     1       1.994   7.712  19.606  0.00  0.00    +0.000 OA
ATOM     12  C   UNL     1       2.212   8.055  18.452  0.00  0.00    +0.000 C 
ATOM     13  N   UNL     1       1.747   9.235  17.884  0.00  0.00    +0.000 N 
ATOM     14  N   UNL     1       2.935   7.290  17.550  0.00  0.00    +0.000 N 
ATOM     15  H   UNL     1       1.822   9.314  16.881  0.00  0.00    +0.000 HD
ATOM     16  H   UNL     1       3.411   7.772  16.808  0.00  0.00    +0.000 HD
BRANCH  14  17
ATOM     17  C   UNL     1       3.336   5.943  17.778  0.00  0.00    +0.000 A 
ATOM     18  C   UNL     1       2.411   4.946  18.128  0.00  0.00    +0.000 A 
ATOM     19  C   UNL     1       2.815   3.621  18.334  0.00  0.00    +0.000 A 
ATOM     20  C   UNL     1       4.146   3.270  18.171  0.00  0.00    +0.000 A 
ATOM     21  C   UNL     1       5.081   4.235  17.813  0.00  0.00    +0.000 A 
ATOM     22  C   UNL     1       4.681   5.566  17.625  0.00  0.00    +0.000 A 
ATOM     23 BR   UNL     1       6.028   6.847  17.217  0.00  0.00    +0.000 Br
ENDBRANCH  14  17
ENDBRANCH   1  13
BRANCH   6  24
ATOM     24  C   UNL     1      -3.843  13.392  21.322  0.00  0.00    +0.000 A 
ATOM     25  C   UNL     1      -4.372  14.652  20.988  0.00  0.00    +0.000 A 
ATOM     26  C   UNL     1      -5.284  15.306  21.825  0.00  0.00    +0.000 A 
ATOM     27  C   UNL     1      -5.711  14.699  23.003  0.00  0.00    +0.000 A 
ATOM     28  C   UNL     1      -5.150  13.491  23.391  0.00  0.00    +0.000 A 
ATOM     29  C   UNL     1      -4.174  12.888  22.594  0.00  0.00    +0.000 A 
ENDBRANCH   6  24
BRANCH   7  30
ATOM     30  C   UNL     1      -4.897  11.927  18.754  0.00  0.00    +0.000 A 
ATOM     31  C   UNL     1      -5.286  12.359  17.471  0.00  0.00    +0.000 A 
ATOM     32  C   UNL     1      -6.607  12.729  17.202  0.00  0.00    +0.000 A 
ATOM     33  C   UNL     1      -7.591  12.534  18.164  0.00  0.00    +0.000 A 
ATOM     34  C   UNL     1      -7.259  11.928  19.374  0.00  0.00    +0.000 A 
ATOM     35  C   UNL     1      -5.924  11.630  19.667  0.00  0.00    +0.000 A 
ENDBRANCH   7  30
TORSDOF 4
ENDMDL
MODEL 8
REMARK VINA RESULT:      -8.5      3.358     10.024
REMARK  Name = 
REMARK  4 active torsions:
REMARK  status: ('A' for Active; 'I' for Inactive)
REMARK    1  A    between atoms: N_3  and  C_4
REMARK    2  A    between atoms: C_9  and  C_10
REMARK    3  A    between atoms: C_16  and  C_17
REMARK    4  A    between atoms: N_26  and  C_27
REMARK                            x       y       z     vdW  Elec       q    Type
REMARK                         _______ _______ _______ _____ _____    ______ ____
ROOT
ATOM      1  C   UNL     1       1.765   9.766  18.143  0.00  0.00    +0.000 A 
ATOM      2  C   UNL     1       2.485  10.931  17.887  0.00  0.00    +0.000 A 
ATOM      3  C   UNL     1       2.081  12.150  18.432  0.00  0.00    +0.000 A 
ATOM      4  C   UNL     1       0.955  12.236  19.227  0.00  0.00    +0.000 A 
ATOM      5  N   UNL     1       0.671  13.418  19.794  0.00  0.00    +0.000 NA
ATOM      6  C   UNL     1      -0.416  13.487  20.609  0.00  0.00    +0.000 A 
ATOM      7  C   UNL     1      -1.272  12.369  20.761  0.00  0.00    +0.000 A 
ATOM      8  N   UNL     1      -0.962  11.164  20.184  0.00  0.00    +0.000 NA
ATOM      9  C   UNL     1       0.161  11.091  19.438  0.00  0.00    +0.000 A 
ATOM     10  C   UNL     1       0.580   9.873  18.888  0.00  0.00    +0.000 A 
ENDROOT
BRANCH   1  13
ATOM     11  O   UNL     1       2.165   7.381  19.741  0.00  0.00    +0.000 OA
ATOM     12  C   UNL     1       2.338   7.372  18.531  0.00  0.00    +0.000 C 
ATOM     13  N   UNL     1       2.188   8.482  17.708  0.00  0.00    +0.000 N 
ATOM     14  N   UNL     1       2.682   6.235  17.816  0.00  0.00    +0.000 N 
ATOM     15  H   UNL     1       2.163   8.308  16.715  0.00  0.00    +0.000 HD
ATOM     16  H   UNL     1       3.189   6.360  16.958  0.00  0.00    +0.000 HD
BRANCH  14  17
ATOM     17  C   UNL     1       2.680   4.916  18.354  0.00  0.00    +0.000 A 
ATOM     18  C   UNL     1       1.524   4.118  18.349  0.00  0.00    +0.000 A 
ATOM     19  C   UNL     1       1.539   2.816  18.866  0.00  0.00    +0.000 A 
ATOM     20  C   UNL     1       2.714   2.287  19.374  0.00  0.00    +0.000 A 
ATOM     21  C   UNL     1       3.876   3.051  19.381  0.00  0.00    +0.000 A 
ATOM     22  C   UNL     1       3.859   4.361  18.880  0.00  0.00    +0.000 A 
ATOM     23 BR   UNL     1       5.464   5.375  18.996  0.00  0.00    +0.000 Br
ENDBRANCH  14  17
ENDBRANCH   1  13
BRANCH   6  24
ATOM     24  C   UNL     1      -0.560  14.807  21.284  0.00  0.00    +0.000 A 
ATOM     25  C   UNL     1      -1.469  15.766  20.802  0.00  0.00    +0.000 A 
ATOM     26  C   UNL     1      -1.734  16.943  21.512  0.00  0.00    +0.000 A 
ATOM     27  C   UNL     1      -1.117  17.173  22.738  0.00  0.00    +0.000 A 
ATOM     28  C   UNL     1      -0.163  16.278  23.201  0.00  0.00    +0.000 A 
ATOM     29  C   UNL     1       0.162  15.152  22.442  0.00  0.00    +0.000 A 
ENDBRANCH   6  24
BRANCH   7  30
ATOM     30  C   UNL     1      -2.496  12.358  21.604  0.00  0.00    +0.000 A 
ATOM     31  C   UNL     1      -3.745  12.785  21.112  0.00  0.00    +0.000 A 
ATOM     32  C   UNL     1      -4.772  13.167  21.981  0.00  0.00    +0.000 A 
ATOM     33  C   UNL     1      -4.622  12.991  23.351  0.00  0.00    +0.000 A 
ATOM     34  C   UNL     1      -3.467  12.391  23.845  0.00  0.00    +0.000 A 
ATOM     35  C   UNL     1      -2.412  12.080  22.979  0.00  0.00    +0.000 A 
ENDBRANCH   7  30
TORSDOF 4
ENDMDL
MODEL 9
REMARK VINA RESULT:      -8.5      2.497      2.931
REMARK  Name = 
REMARK  4 active torsions:
REMARK  status: ('A' for Active; 'I' for Inactive)
REMARK    1  A    between atoms: N_3  and  C_4
REMARK    2  A    between atoms: C_9  and  C_10
REMARK    3  A    between atoms: C_16  and  C_17
REMARK    4  A    between atoms: N_26  and  C_27
REMARK                            x       y       z     vdW  Elec       q    Type
REMARK                         _______ _______ _______ _____ _____    ______ ____
ROOT
ATOM      1  C   UNL     1       0.438  10.900  19.747  0.00  0.00    +0.000 A 
ATOM      2  C   UNL     1       1.191  11.214  18.618  0.00  0.00    +0.000 A 
ATOM      3  C   UNL     1       2.013  10.256  18.025  0.00  0.00    +0.000 A 
ATOM      4  C   UNL     1       2.110   8.979  18.544  0.00  0.00    +0.000 A 
ATOM      5  N   UNL     1       2.846   8.079  17.876  0.00  0.00    +0.000 NA
ATOM      6  C   UNL     1       2.904   6.813  18.370  0.00  0.00    +0.000 A 
ATOM      7  C   UNL     1       2.292   6.496  19.606  0.00  0.00    +0.000 A 
ATOM      8  N   UNL     1       1.532   7.424  20.273  0.00  0.00    +0.000 NA
ATOM      9  C   UNL     1       1.422   8.657  19.731  0.00  0.00    +0.000 A 
ATOM     10  C   UNL     1       0.598   9.626  20.314  0.00  0.00    +0.000 A 
ENDROOT
BRANCH   1  13
ATOM     11  O   UNL     1       0.885  12.817  21.875  0.00  0.00    +0.000 OA
ATOM     12  C   UNL     1      -0.207  12.710  21.335  0.00  0.00    +0.000 C 
ATOM     13  N   UNL     1      -0.497  11.797  20.328  0.00  0.00    +0.000 N 
ATOM     14  N   UNL     1      -1.296  13.510  21.645  0.00  0.00    +0.000 N 
ATOM     15  H   UNL     1      -1.364  11.935  19.829  0.00  0.00    +0.000 HD
ATOM     16  H   UNL     1      -2.212  13.129  21.491  0.00  0.00    +0.000 HD
BRANCH  14  17
ATOM     17  C   UNL     1      -1.232  14.672  22.466  0.00  0.00    +0.000 A 
ATOM     18  C   UNL     1      -1.300  14.591  23.867  0.00  0.00    +0.000 A 
ATOM     19  C   UNL     1      -1.218  15.739  24.665  0.00  0.00    +0.000 A 
ATOM     20  C   UNL     1      -1.046  16.981  24.075  0.00  0.00    +0.000 A 
ATOM     21  C   UNL     1      -0.964  17.088  22.690  0.00  0.00    +0.000 A 
ATOM     22  C   UNL     1      -1.064  15.941  21.889  0.00  0.00    +0.000 A 
ATOM     23 BR   UNL     1      -1.025  16.174  20.002  0.00  0.00    +0.000 Br
ENDBRANCH  14  17
ENDBRANCH   1  13
BRANCH   6  24
ATOM     24  C   UNL     1       3.639   5.870  17.481  0.00  0.00    +0.000 A 
ATOM     25  C   UNL     1       4.811   6.274  16.816  0.00  0.00    +0.000 A 
ATOM     26  C   UNL     1       5.600   5.360  16.108  0.00  0.00    +0.000 A 
ATOM     27  C   UNL     1       5.251   4.013  16.075  0.00  0.00    +0.000 A 
ATOM     28  C   UNL     1       4.062   3.601  16.662  0.00  0.00    +0.000 A 
ATOM     29  C   UNL     1       3.235   4.536  17.288  0.00  0.00    +0.000 A 
ENDBRANCH   6  24
BRANCH   7  30
ATOM     30  C   UNL     1       2.326   5.151  20.240  0.00  0.00    +0.000 A 
ATOM     31  C   UNL     1       3.533   4.455  20.448  0.00  0.00    +0.000 A 
ATOM     32  C   UNL     1       3.545   3.071  20.643  0.00  0.00    +0.000 A 
ATOM     33  C   UNL     1       2.346   2.380  20.780  0.00  0.00    +0.000 A 
ATOM     34  C   UNL     1       1.143   3.081  20.768  0.00  0.00    +0.000 A 
ATOM     35  C   UNL     1       1.133   4.454  20.497  0.00  0.00    +0.000 A 
ENDBRANCH   7  30
TORSDOF 4
ENDMDL
