MODEL 1
REMARK VINA RESULT:      -7.1      0.000      0.000
REMARK  Name = 
REMARK  10 active torsions:
REMARK  status: ('A' for Active; 'I' for Inactive)
REMARK    1  A    between atoms: C_1  and  C_2
REMARK    2  A    between atoms: C_2  and  N_3
REMARK    3  A    between atoms: N_3  and  C_4
REMARK    4  A    between atoms: N_3  and  C_6
REMARK    5  A    between atoms: C_4  and  C_5
REMARK    6  A    between atoms: C_8  and  C_9
REMARK    7  A    between atoms: C_9  and  C_10
REMARK    8  A    between atoms: C_10  and  C_11
REMARK    9  A    between atoms: C_11  and  C_12
REMARK   10  A    between atoms: C_12  and  N_13
REMARK                            x       y       z     vdW  Elec       q    Type
REMARK                         _______ _______ _______ _____ _____    ______ ____
ROOT
ATOM      1  C   UNL     1       5.401   5.104  17.804  0.00  0.00    +0.000 A 
ATOM      2  N   UNL     1       6.284   5.902  18.452  0.00  0.00    +0.000 NA
ATOM      3  C   UNL     1       7.345   6.408  17.798  0.00  0.00    +0.000 A 
ATOM      4  N   UNL     1       7.684   6.164  16.529  0.00  0.00    +0.000 NA
ATOM      5  C   UNL     1       6.802   5.368  15.903  0.00  0.00    +0.000 A 
ATOM      6  S   UNL     1       7.027   4.954  14.264  0.00  0.00    +0.000 S 
ATOM      7  C   UNL     1       5.580   4.045  14.231  0.00  0.00    +0.000 A 
ATOM      8  C   UNL     1       4.942   4.056  15.454  0.00  0.00    +0.000 A 
ATOM      9  C   UNL     1       5.655   4.816  16.445  0.00  0.00    +0.000 A 
ENDROOT
BRANCH   1  10
ATOM     10  N   UNL     1       4.260   4.593  18.494  0.00  0.00    +0.000 N 
BRANCH  10  12
ATOM     11  C   UNL     1       2.296   5.608  19.613  0.00  0.00    +0.000 C 
ATOM     12  C   UNL     1       3.815   5.563  19.520  0.00  0.00    +0.000 C 
ENDBRANCH  10  12
BRANCH  10  13
ATOM     13  C   UNL     1       4.614   3.241  18.969  0.00  0.00    +0.000 C 
ATOM     14  C   UNL     1       3.565   2.198  18.623  0.00  0.00    +0.000 C 
ENDBRANCH  10  13
ENDBRANCH   1  10
BRANCH   3  15
ATOM     15  C   UNL     1       8.184   7.399  18.555  0.00  0.00    +0.000 C 
BRANCH  15  16
ATOM     16  C   UNL     1       8.159   8.795  17.931  0.00  0.00    +0.000 C 
BRANCH  16  17
ATOM     17  C   UNL     1       8.895   9.830  18.794  0.00  0.00    +0.000 C 
BRANCH  17  18
ATOM     18  C   UNL     1       9.116  11.164  18.066  0.00  0.00    +0.000 C 
BRANCH  18  19
ATOM     19  N   UNL     1      10.527  11.525  17.857  0.00  0.00    +0.000 NA
ATOM     20  C   UNL     1      11.273  11.469  19.141  0.00  0.00    +0.000 C 
ATOM     21  C   UNL     1      10.967  12.641  20.093  0.00  0.00    +0.000 C 
ATOM     22  O   UNL     1      11.225  13.900  19.463  0.00  0.00    +0.000 OA
ATOM     23  C   UNL     1      10.464  14.034  18.257  0.00  0.00    +0.000 C 
ATOM     24  C   UNL     1      10.734  12.874  17.283  0.00  0.00    +0.000 C 
ENDBRANCH  18  19
ENDBRANCH  17  18
ENDBRANCH  16  17
ENDBRANCH  15  16
ENDBRANCH   3  15
TORSDOF 8
ENDMDL
MODEL 2
REMARK VINA RESULT:      -6.8      0.811      1.317
REMARK  Name = 
REMARK  10 active torsions:
REMARK  status: ('A' for Active; 'I' for Inactive)
REMARK    1  A    between atoms: C_1  and  C_2
REMARK    2  A    between atoms: C_2  and  N_3
REMARK    3  A    between atoms: N_3  and  C_4
REMARK    4  A    between atoms: N_3  and  C_6
REMARK    5  A    between atoms: C_4  and  C_5
REMARK    6  A    between atoms: C_8  and  C_9
REMARK    7  A    between atoms: C_9  and  C_10
REMARK    8  A    between atoms: C_10  and  C_11
REMARK    9  A    between atoms: C_11  and  C_12
REMARK   10  A    between atoms: C_12  and  N_13
REMARK                            x       y       z     vdW  Elec       q    Type
REMARK                         _______ _______ _______ _____ _____    ______ ____
ROOT
ATOM      1  C   UNL     1       5.405   5.189  17.758  0.00  0.00    +0.000 A 
ATOM      2  N   UNL     1       6.270   6.053  18.343  0.00  0.00    +0.000 NA
ATOM      3  C   UNL     1       7.315   6.538  17.648  0.00  0.00    +0.000 A 
ATOM      4  N   UNL     1       7.653   6.215  16.397  0.00  0.00    +0.000 NA
ATOM      5  C   UNL     1       6.788   5.355  15.834  0.00  0.00    +0.000 A 
ATOM      6  S   UNL     1       7.015   4.832  14.226  0.00  0.00    +0.000 S 
ATOM      7  C   UNL     1       5.591   3.888  14.268  0.00  0.00    +0.000 A 
ATOM      8  C   UNL     1       4.959   3.969  15.491  0.00  0.00    +0.000 A 
ATOM      9  C   UNL     1       5.658   4.813  16.422  0.00  0.00    +0.000 A 
ENDROOT
BRANCH   1  10
ATOM     10  N   UNL     1       4.281   4.700  18.490  0.00  0.00    +0.000 N 
BRANCH  10  12
ATOM     11  C   UNL     1       2.311   5.544  19.735  0.00  0.00    +0.000 C 
ATOM     12  C   UNL     1       3.785   5.746  19.414  0.00  0.00    +0.000 C 
ENDBRANCH  10  12
BRANCH  10  13
ATOM     13  C   UNL     1       4.688   3.418  19.098  0.00  0.00    +0.000 C 
ATOM     14  C   UNL     1       3.773   2.265  18.719  0.00  0.00    +0.000 C 
ENDBRANCH  10  13
ENDBRANCH   1  10
BRANCH   3  15
ATOM     15  C   UNL     1       8.132   7.600  18.328  0.00  0.00    +0.000 C 
BRANCH  15  16
ATOM     16  C   UNL     1       7.718   9.015  17.923  0.00  0.00    +0.000 C 
BRANCH  16  17
ATOM     17  C   UNL     1       8.904   9.991  17.931  0.00  0.00    +0.000 C 
BRANCH  17  18
ATOM     18  C   UNL     1       9.366  10.357  19.349  0.00  0.00    +0.000 C 
BRANCH  18  19
ATOM     19  N   UNL     1       9.567  11.796  19.579  0.00  0.00    +0.000 NA
ATOM     20  C   UNL     1       9.837  12.493  18.295  0.00  0.00    +0.000 C 
ATOM     21  C   UNL     1      11.248  12.242  17.731  0.00  0.00    +0.000 C 
ATOM     22  O   UNL     1      12.257  12.610  18.678  0.00  0.00    +0.000 OA
ATOM     23  C   UNL     1      12.085  11.901  19.911  0.00  0.00    +0.000 C 
ATOM     24  C   UNL     1      10.680  12.118  20.501  0.00  0.00    +0.000 C 
ENDBRANCH  18  19
ENDBRANCH  17  18
ENDBRANCH  16  17
ENDBRANCH  15  16
ENDBRANCH   3  15
TORSDOF 8
ENDMDL
MODEL 3
REMARK VINA RESULT:      -6.7      0.961      1.744
REMARK  Name = 
REMARK  10 active torsions:
REMARK  status: ('A' for Active; 'I' for Inactive)
REMARK    1  A    between atoms: C_1  and  C_2
REMARK    2  A    between atoms: C_2  and  N_3
REMARK    3  A    between atoms: N_3  and  C_4
REMARK    4  A    between atoms: N_3  and  C_6
REMARK    5  A    between atoms: C_4  and  C_5
REMARK    6  A    between atoms: C_8  and  C_9
REMARK    7  A    between atoms: C_9  and  C_10
REMARK    8  A    between atoms: C_10  and  C_11
REMARK    9  A    between atoms: C_11  and  C_12
REMARK   10  A    between atoms: C_12  and  N_13
REMARK                            x       y       z     vdW  Elec       q    Type
REMARK                         _______ _______ _______ _____ _____    ______ ____
ROOT
ATOM      1  C   UNL     1       5.591   4.585  17.491  0.00  0.00    +0.000 A 
ATOM      2  N   UNL     1       6.349   5.448  18.211  0.00  0.00    +0.000 NA
ATOM      3  C   UNL     1       7.322   6.158  17.611  0.00  0.00    +0.000 A 
ATOM      4  N   UNL     1       7.688   6.073  16.329  0.00  0.00    +0.000 NA
ATOM      5  C   UNL     1       6.931   5.211  15.630  0.00  0.00    +0.000 A 
ATOM      6  S   UNL     1       7.208   4.973  13.965  0.00  0.00    +0.000 S 
ATOM      7  C   UNL     1       5.910   3.867  13.844  0.00  0.00    +0.000 A 
ATOM      8  C   UNL     1       5.282   3.682  15.058  0.00  0.00    +0.000 A 
ATOM      9  C   UNL     1       5.879   4.452  16.115  0.00  0.00    +0.000 A 
ENDROOT
BRANCH   1  10
ATOM     10  N   UNL     1       4.541   3.857  18.126  0.00  0.00    +0.000 N 
BRANCH  10  12
ATOM     11  C   UNL     1       2.450   2.741  17.401  0.00  0.00    +0.000 C 
ATOM     12  C   UNL     1       3.282   4.015  17.362  0.00  0.00    +0.000 C 
ENDBRANCH  10  12
BRANCH  10  13
ATOM     13  C   UNL     1       4.516   4.281  19.540  0.00  0.00    +0.000 C 
ATOM     14  C   UNL     1       3.377   5.237  19.853  0.00  0.00    +0.000 C 
ENDBRANCH  10  13
ENDBRANCH   1  10
BRANCH   3  15
ATOM     15  C   UNL     1       8.008   7.194  18.455  0.00  0.00    +0.000 C 
BRANCH  15  16
ATOM     16  C   UNL     1       8.017   8.577  17.802  0.00  0.00    +0.000 C 
BRANCH  16  17
ATOM     17  C   UNL     1       8.814   9.601  18.624  0.00  0.00    +0.000 C 
BRANCH  17  18
ATOM     18  C   UNL     1       8.890  10.978  17.949  0.00  0.00    +0.000 C 
BRANCH  18  19
ATOM     19  N   UNL     1       9.385  12.061  18.814  0.00  0.00    +0.000 NA
ATOM     20  C   UNL     1       9.753  13.247  17.999  0.00  0.00    +0.000 C 
ATOM     21  C   UNL     1      11.068  13.082  17.212  0.00  0.00    +0.000 C 
ATOM     22  O   UNL     1      12.157  12.765  18.086  0.00  0.00    +0.000 OA
ATOM     23  C   UNL     1      11.880  11.577  18.838  0.00  0.00    +0.000 C 
ATOM     24  C   UNL     1      10.567  11.699  19.629  0.00  0.00    +0.000 C 
ENDBRANCH  18  19
ENDBRANCH  17  18
ENDBRANCH  16  17
ENDBRANCH  15  16
ENDBRANCH   3  15
TORSDOF 8
ENDMDL
MODEL 4
REMARK VINA RESULT:      -6.6      5.591      7.008
REMARK  Name = 
REMARK  10 active torsions:
REMARK  status: ('A' for Active; 'I' for Inactive)
REMARK    1  A    between atoms: C_1  and  C_2
REMARK    2  A    between atoms: C_2  and  N_3
REMARK    3  A    between atoms: N_3  and  C_4
REMARK    4  A    between atoms: N_3  and  C_6
REMARK    5  A    between atoms: C_4  and  C_5
REMARK    6  A    between atoms: C_8  and  C_9
REMARK    7  A    between atoms: C_9  and  C_10
REMARK    8  A    between atoms: C_10  and  C_11
REMARK    9  A    between atoms: C_11  and  C_12
REMARK   10  A    between atoms: C_12  and  N_13
REMARK                            x       y       z     vdW  Elec       q    Type
REMARK                         _______ _______ _______ _____ _____    ______ ____
ROOT
ATOM      1  C   UNL     1       3.076   4.473  17.904  0.00  0.00    +0.000 A 
ATOM      2  N   UNL     1       2.549   5.579  18.483  0.00  0.00    +0.000 NA
ATOM      3  C   UNL     1       3.078   6.791  18.234  0.00  0.00    +0.000 A 
ATOM      4  N   UNL     1       4.153   7.047  17.484  0.00  0.00    +0.000 NA
ATOM      5  C   UNL     1       4.666   5.940  16.921  0.00  0.00    +0.000 A 
ATOM      6  S   UNL     1       6.027   6.044  15.898  0.00  0.00    +0.000 S 
ATOM      7  C   UNL     1       6.005   4.362  15.597  0.00  0.00    +0.000 A 
ATOM      8  C   UNL     1       4.980   3.734  16.272  0.00  0.00    +0.000 A 
ATOM      9  C   UNL     1       4.196   4.646  17.062  0.00  0.00    +0.000 A 
ENDROOT
BRANCH   1  10
ATOM     10  N   UNL     1       2.493   3.193  18.147  0.00  0.00    +0.000 N 
BRANCH  10  12
ATOM     11  C   UNL     1       0.802   2.988  19.948  0.00  0.00    +0.000 C 
ATOM     12  C   UNL     1       1.061   3.347  18.491  0.00  0.00    +0.000 C 
ENDBRANCH  10  12
BRANCH  10  13
ATOM     13  C   UNL     1       3.345   2.514  19.144  0.00  0.00    +0.000 C 
ATOM     14  C   UNL     1       3.839   1.156  18.675  0.00  0.00    +0.000 C 
ENDBRANCH  10  13
ENDBRANCH   1  10
BRANCH   3  15
ATOM     15  C   UNL     1       2.338   7.970  18.799  0.00  0.00    +0.000 C 
BRANCH  15  16
ATOM     16  C   UNL     1       2.008   9.024  17.742  0.00  0.00    +0.000 C 
BRANCH  16  17
ATOM     17  C   UNL     1       0.751   9.830  18.100  0.00  0.00    +0.000 C 
BRANCH  17  18
ATOM     18  C   UNL     1       0.736  10.294  19.564  0.00  0.00    +0.000 C 
BRANCH  18  19
ATOM     19  N   UNL     1      -0.491   9.958  20.303  0.00  0.00    +0.000 NA
ATOM     20  C   UNL     1      -1.067  11.174  20.932  0.00  0.00    +0.000 C 
ATOM     21  C   UNL     1      -0.289  11.669  22.166  0.00  0.00    +0.000 C 
ATOM     22  O   UNL     1      -0.184  10.642  23.158  0.00  0.00    +0.000 OA
ATOM     23  C   UNL     1       0.441   9.472  22.618  0.00  0.00    +0.000 C 
ATOM     24  C   UNL     1      -0.302   8.953  21.375  0.00  0.00    +0.000 C 
ENDBRANCH  18  19
ENDBRANCH  17  18
ENDBRANCH  16  17
ENDBRANCH  15  16
ENDBRANCH   3  15
TORSDOF 8
ENDMDL
MODEL 5
REMARK VINA RESULT:      -6.5      5.059      7.534
REMARK  Name = 
REMARK  10 active torsions:
REMARK  status: ('A' for Active; 'I' for Inactive)
REMARK    1  A    between atoms: C_1  and  C_2
REMARK    2  A    between atoms: C_2  and  N_3
REMARK    3  A    between atoms: N_3  and  C_4
REMARK    4  A    between atoms: N_3  and  C_6
REMARK    5  A    between atoms: C_4  and  C_5
REMARK    6  A    between atoms: C_8  and  C_9
REMARK    7  A    between atoms: C_9  and  C_10
REMARK    8  A    between atoms: C_10  and  C_11
REMARK    9  A    between atoms: C_11  and  C_12
REMARK   10  A    between atoms: C_12  and  N_13
REMARK                            x       y       z     vdW  Elec       q    Type
REMARK                         _______ _______ _______ _____ _____    ______ ____
ROOT
ATOM      1  C   UNL     1       4.498   5.158  17.507  0.00  0.00    +0.000 A 
ATOM      2  N   UNL     1       3.940   6.350  17.832  0.00  0.00    +0.000 NA
ATOM      3  C   UNL     1       2.771   6.391  18.496  0.00  0.00    +0.000 A 
ATOM      4  N   UNL     1       2.024   5.342  18.850  0.00  0.00    +0.000 NA
ATOM      5  C   UNL     1       2.588   4.170  18.517  0.00  0.00    +0.000 A 
ATOM      6  S   UNL     1       1.815   2.700  18.905  0.00  0.00    +0.000 S 
ATOM      7  C   UNL     1       3.094   1.781  18.240  0.00  0.00    +0.000 A 
ATOM      8  C   UNL     1       4.090   2.587  17.728  0.00  0.00    +0.000 A 
ATOM      9  C   UNL     1       3.799   3.987  17.871  0.00  0.00    +0.000 A 
ENDROOT
BRANCH   1  10
ATOM     10  N   UNL     1       5.753   5.120  16.828  0.00  0.00    +0.000 N 
BRANCH  10  12
ATOM     11  C   UNL     1       7.581   5.684  18.403  0.00  0.00    +0.000 C 
ATOM     12  C   UNL     1       6.633   6.200  17.330  0.00  0.00    +0.000 C 
ENDBRANCH  10  12
BRANCH  10  13
ATOM     13  C   UNL     1       5.460   5.121  15.381  0.00  0.00    +0.000 C 
ATOM     14  C   UNL     1       6.210   4.038  14.623  0.00  0.00    +0.000 C 
ENDBRANCH  10  13
ENDBRANCH   1  10
BRANCH   3  15
ATOM     15  C   UNL     1       2.305   7.749  18.943  0.00  0.00    +0.000 C 
BRANCH  15  16
ATOM     16  C   UNL     1       2.106   8.718  17.778  0.00  0.00    +0.000 C 
BRANCH  16  17
ATOM     17  C   UNL     1       0.878   9.619  17.978  0.00  0.00    +0.000 C 
BRANCH  17  18
ATOM     18  C   UNL     1       0.762  10.159  19.411  0.00  0.00    +0.000 C 
BRANCH  18  19
ATOM     19  N   UNL     1      -0.618  10.350  19.886  0.00  0.00    +0.000 NA
ATOM     20  C   UNL     1      -1.428  11.050  18.857  0.00  0.00    +0.000 C 
ATOM     21  C   UNL     1      -1.113  12.553  18.728  0.00  0.00    +0.000 C 
ATOM     22  O   UNL     1      -1.277  13.225  19.981  0.00  0.00    +0.000 OA
ATOM     23  C   UNL     1      -0.451  12.634  20.991  0.00  0.00    +0.000 C 
ATOM     24  C   UNL     1      -0.729  11.128  21.142  0.00  0.00    +0.000 C 
ENDBRANCH  18  19
ENDBRANCH  17  18
ENDBRANCH  16  17
ENDBRANCH  15  16
ENDBRANCH   3  15
TORSDOF 8
ENDMDL
MODEL 6
REMARK VINA RESULT:      -6.5      4.998      7.145
REMARK  Name = 
REMARK  10 active torsions:
REMARK  status: ('A' for Active; 'I' for Inactive)
REMARK    1  A    between atoms: C_1  and  C_2
REMARK    2  A    between atoms: C_2  and  N_3
REMARK    3  A    between atoms: N_3  and  C_4
REMARK    4  A    between atoms: N_3  and  C_6
REMARK    5  A    between atoms: C_4  and  C_5
REMARK    6  A    between atoms: C_8  and  C_9
REMARK    7  A    between atoms: C_9  and  C_10
REMARK    8  A    between atoms: C_10  and  C_11
REMARK    9  A    between atoms: C_11  and  C_12
REMARK   10  A    between atoms: C_12  and  N_13
REMARK                            x       y       z     vdW  Elec       q    Type
REMARK                         _______ _______ _______ _____ _____    ______ ____
ROOT
ATOM      1  C   UNL     1       4.367   5.105  17.614  0.00  0.00    +0.000 A 
ATOM      2  N   UNL     1       3.864   6.309  17.979  0.00  0.00    +0.000 NA
ATOM      3  C   UNL     1       2.679   6.384  18.611  0.00  0.00    +0.000 A 
ATOM      4  N   UNL     1       1.866   5.362  18.893  0.00  0.00    +0.000 NA
ATOM      5  C   UNL     1       2.377   4.177  18.521  0.00  0.00    +0.000 A 
ATOM      6  S   UNL     1       1.515   2.735  18.816  0.00  0.00    +0.000 S 
ATOM      7  C   UNL     1       2.763   1.779  18.146  0.00  0.00    +0.000 A 
ATOM      8  C   UNL     1       3.816   2.552  17.701  0.00  0.00    +0.000 A 
ATOM      9  C   UNL     1       3.596   3.958  17.902  0.00  0.00    +0.000 A 
ENDROOT
BRANCH   1  10
ATOM     10  N   UNL     1       5.639   5.028  16.970  0.00  0.00    +0.000 N 
BRANCH  10  12
ATOM     11  C   UNL     1       7.677   5.346  18.344  0.00  0.00    +0.000 C 
ATOM     12  C   UNL     1       6.564   6.024  17.558  0.00  0.00    +0.000 C 
ENDBRANCH  10  12
BRANCH  10  13
ATOM     13  C   UNL     1       5.393   5.127  15.518  0.00  0.00    +0.000 C 
ATOM     14  C   UNL     1       6.298   4.221  14.700  0.00  0.00    +0.000 C 
ENDBRANCH  10  13
ENDBRANCH   1  10
BRANCH   3  15
ATOM     15  C   UNL     1       2.272   7.742  19.107  0.00  0.00    +0.000 C 
BRANCH  15  16
ATOM     16  C   UNL     1       2.267   8.799  18.002  0.00  0.00    +0.000 C 
BRANCH  16  17
ATOM     17  C   UNL     1       0.931   9.554  17.929  0.00  0.00    +0.000 C 
BRANCH  17  18
ATOM     18  C   UNL     1       0.379   9.924  19.314  0.00  0.00    +0.000 C 
BRANCH  18  19
ATOM     19  N   UNL     1      -0.307  11.224  19.376  0.00  0.00    +0.000 NA
ATOM     20  C   UNL     1       0.673  12.334  19.249  0.00  0.00    +0.000 C 
ATOM     21  C   UNL     1       1.526  12.563  20.511  0.00  0.00    +0.000 C 
ATOM     22  O   UNL     1       0.701  12.804  21.657  0.00  0.00    +0.000 OA
ATOM     23  C   UNL     1      -0.211  11.719  21.868  0.00  0.00    +0.000 C 
ATOM     24  C   UNL     1      -1.074  11.451  20.622  0.00  0.00    +0.000 C 
ENDBRANCH  18  19
ENDBRANCH  17  18
ENDBRANCH  16  17
ENDBRANCH  15  16
ENDBRANCH   3  15
TORSDOF 8
ENDMDL
MODEL 7
REMARK VINA RESULT:      -6.5      5.252      7.208
REMARK  Name = 
REMARK  10 active torsions:
REMARK  status: ('A' for Active; 'I' for Inactive)
REMARK    1  A    between atoms: C_1  and  C_2
REMARK    2  A    between atoms: C_2  and  N_3
REMARK    3  A    between atoms: N_3  and  C_4
REMARK    4  A    between atoms: N_3  and  C_6
REMARK    5  A    between atoms: C_4  and  C_5
REMARK    6  A    between atoms: C_8  and  C_9
REMARK    7  A    between atoms: C_9  and  C_10
REMARK    8  A    between atoms: C_10  and  C_11
REMARK    9  A    between atoms: C_11  and  C_12
REMARK   10  A    between atoms: C_12  and  N_13
REMARK                            x       y       z     vdW  Elec       q    Type
REMARK                         _______ _______ _______ _____ _____    ______ ____
ROOT
ATOM      1  C   UNL     1       4.807   4.800  17.292  0.00  0.00    +0.000 A 
ATOM      2  N   UNL     1       4.520   6.125  17.307  0.00  0.00    +0.000 NA
ATOM      3  C   UNL     1       3.316   6.550  17.731  0.00  0.00    +0.000 A 
ATOM      4  N   UNL     1       2.292   5.781  18.112  0.00  0.00    +0.000 NA
ATOM      5  C   UNL     1       2.592   4.472  18.087  0.00  0.00    +0.000 A 
ATOM      6  S   UNL     1       1.436   3.313  18.565  0.00  0.00    +0.000 S 
ATOM      7  C   UNL     1       2.531   2.025  18.307  0.00  0.00    +0.000 A 
ATOM      8  C   UNL     1       3.754   2.477  17.858  0.00  0.00    +0.000 A 
ATOM      9  C   UNL     1       3.799   3.906  17.712  0.00  0.00    +0.000 A 
ENDROOT
BRANCH   1  10
ATOM     10  N   UNL     1       6.096   4.355  16.869  0.00  0.00    +0.000 N 
BRANCH  10  12
ATOM     11  C   UNL     1       7.723   5.279  18.496  0.00  0.00    +0.000 C 
ATOM     12  C   UNL     1       7.102   5.415  17.112  0.00  0.00    +0.000 C 
ENDBRANCH  10  12
BRANCH  10  13
ATOM     13  C   UNL     1       5.954   3.883  15.478  0.00  0.00    +0.000 C 
ATOM     14  C   UNL     1       6.756   4.709  14.486  0.00  0.00    +0.000 C 
ENDBRANCH  10  13
ENDBRANCH   1  10
BRANCH   3  15
ATOM     15  C   UNL     1       3.140   8.038  17.854  0.00  0.00    +0.000 C 
BRANCH  15  16
ATOM     16  C   UNL     1       1.673   8.466  17.803  0.00  0.00    +0.000 C 
BRANCH  16  17
ATOM     17  C   UNL     1       1.494   9.958  18.123  0.00  0.00    +0.000 C 
BRANCH  17  18
ATOM     18  C   UNL     1       0.729  10.199  19.433  0.00  0.00    +0.000 C 
BRANCH  18  19
ATOM     19  N   UNL     1       0.918  11.535  20.019  0.00  0.00    +0.000 NA
ATOM     20  C   UNL     1      -0.089  11.782  21.083  0.00  0.00    +0.000 C 
ATOM     21  C   UNL     1      -1.507  12.061  20.549  0.00  0.00    +0.000 C 
ATOM     22  O   UNL     1      -1.510  13.170  19.643  0.00  0.00    +0.000 OA
ATOM     23  C   UNL     1      -0.609  12.943  18.553  0.00  0.00    +0.000 C 
ATOM     24  C   UNL     1       0.819  12.648  19.047  0.00  0.00    +0.000 C 
ENDBRANCH  18  19
ENDBRANCH  17  18
ENDBRANCH  16  17
ENDBRANCH  15  16
ENDBRANCH   3  15
TORSDOF 8
ENDMDL
MODEL 8
REMARK VINA RESULT:      -6.4      0.819      1.742
REMARK  Name = 
REMARK  10 active torsions:
REMARK  status: ('A' for Active; 'I' for Inactive)
REMARK    1  A    between atoms: C_1  and  C_2
REMARK    2  A    between atoms: C_2  and  N_3
REMARK    3  A    between atoms: N_3  and  C_4
REMARK    4  A    between atoms: N_3  and  C_6
REMARK    5  A    between atoms: C_4  and  C_5
REMARK    6  A    between atoms: C_8  and  C_9
REMARK    7  A    between atoms: C_9  and  C_10
REMARK    8  A    between atoms: C_10  and  C_11
REMARK    9  A    between atoms: C_11  and  C_12
REMARK   10  A    between atoms: C_12  and  N_13
REMARK                            x       y       z     vdW  Elec       q    Type
REMARK                         _______ _______ _______ _____ _____    ______ ____
ROOT
ATOM      1  C   UNL     1       5.508   5.075  17.854  0.00  0.00    +0.000 A 
ATOM      2  N   UNL     1       6.360   5.898  18.513  0.00  0.00    +0.000 NA
ATOM      3  C   UNL     1       7.399   6.454  17.865  0.00  0.00    +0.000 A 
ATOM      4  N   UNL     1       7.745   6.242  16.592  0.00  0.00    +0.000 NA
ATOM      5  C   UNL     1       6.894   5.421  15.955  0.00  0.00    +0.000 A 
ATOM      6  S   UNL     1       7.132   5.039  14.310  0.00  0.00    +0.000 S 
ATOM      7  C   UNL     1       5.720   4.076  14.267  0.00  0.00    +0.000 A 
ATOM      8  C   UNL     1       5.085   4.044  15.490  0.00  0.00    +0.000 A 
ATOM      9  C   UNL     1       5.769   4.817  16.491  0.00  0.00    +0.000 A 
ENDROOT
BRANCH   1  10
ATOM     10  N   UNL     1       4.389   4.511  18.538  0.00  0.00    +0.000 N 
BRANCH  10  12
ATOM     11  C   UNL     1       3.767   2.614  20.007  0.00  0.00    +0.000 C 
ATOM     12  C   UNL     1       4.662   3.095  18.873  0.00  0.00    +0.000 C 
ENDBRANCH  10  12
BRANCH  10  13
ATOM     13  C   UNL     1       3.197   4.778  17.708  0.00  0.00    +0.000 C 
ATOM     14  C   UNL     1       2.175   5.660  18.403  0.00  0.00    +0.000 C 
ENDBRANCH  10  13
ENDBRANCH   1  10
BRANCH   3  15
ATOM     15  C   UNL     1       8.201   7.466  18.635  0.00  0.00    +0.000 C 
BRANCH  15  16
ATOM     16  C   UNL     1       8.153   8.859  18.008  0.00  0.00    +0.000 C 
BRANCH  16  17
ATOM     17  C   UNL     1       9.052   9.859  18.750  0.00  0.00    +0.000 C 
BRANCH  17  18
ATOM     18  C   UNL     1       9.368  11.110  17.916  0.00  0.00    +0.000 C 
BRANCH  18  19
ATOM     19  N   UNL     1       9.540  12.344  18.698  0.00  0.00    +0.000 NA
ATOM     20  C   UNL     1       9.991  13.455  17.821  0.00  0.00    +0.000 C 
ATOM     21  C   UNL     1      11.467  13.353  17.391  0.00  0.00    +0.000 C 
ATOM     22  O   UNL     1      12.333  13.281  18.529  0.00  0.00    +0.000 OA
ATOM     23  C   UNL     1      11.986  12.172  19.367  0.00  0.00    +0.000 C 
ATOM     24  C   UNL     1      10.513  12.233  19.808  0.00  0.00    +0.000 C 
ENDBRANCH  18  19
ENDBRANCH  17  18
ENDBRANCH  16  17
ENDBRANCH  15  16
ENDBRANCH   3  15
TORSDOF 8
ENDMDL
MODEL 9
REMARK VINA RESULT:      -6.4      4.956      7.173
REMARK  Name = 
REMARK  10 active torsions:
REMARK  status: ('A' for Active; 'I' for Inactive)
REMARK    1  A    between atoms: C_1  and  C_2
REMARK    2  A    between atoms: C_2  and  N_3
REMARK    3  A    between atoms: N_3  and  C_4
REMARK    4  A    between atoms: N_3  and  C_6
REMARK    5  A    between atoms: C_4  and  C_5
REMARK    6  A    between atoms: C_8  and  C_9
REMARK    7  A    between atoms: C_9  and  C_10
REMARK    8  A    between atoms: C_10  and  C_11
REMARK    9  A    between atoms: C_11  and  C_12
REMARK   10  A    between atoms: C_12  and  N_13
REMARK                            x       y       z     vdW  Elec       q    Type
REMARK                         _______ _______ _______ _____ _____    ______ ____
ROOT
ATOM      1  C   UNL     1       4.409   5.057  18.470  0.00  0.00    +0.000 A 
ATOM      2  N   UNL     1       3.741   6.236  18.439  0.00  0.00    +0.000 NA
ATOM      3  C   UNL     1       2.708   6.450  19.273  0.00  0.00    +0.000 A 
ATOM      4  N   UNL     1       2.197   5.575  20.142  0.00  0.00    +0.000 NA
ATOM      5  C   UNL     1       2.866   4.410  20.158  0.00  0.00    +0.000 A 
ATOM      6  S   UNL     1       2.398   3.160  21.219  0.00  0.00    +0.000 S 
ATOM      7  C   UNL     1       3.671   2.150  20.688  0.00  0.00    +0.000 A 
ATOM      8  C   UNL     1       4.434   2.758  19.713  0.00  0.00    +0.000 A 
ATOM      9  C   UNL     1       3.964   4.077  19.384  0.00  0.00    +0.000 A 
ENDROOT
BRANCH   1  10
ATOM     10  N   UNL     1       5.524   4.844  17.603  0.00  0.00    +0.000 N 
BRANCH  10  12
ATOM     11  C   UNL     1       7.548   5.844  18.624  0.00  0.00    +0.000 C 
ATOM     12  C   UNL     1       6.414   6.028  17.626  0.00  0.00    +0.000 C 
ENDBRANCH  10  12
BRANCH  10  13
ATOM     13  C   UNL     1       4.979   4.450  16.289  0.00  0.00    +0.000 C 
ATOM     14  C   UNL     1       6.042   3.924  15.340  0.00  0.00    +0.000 C 
ENDBRANCH  10  13
ENDBRANCH   1  10
BRANCH   3  15
ATOM     15  C   UNL     1       2.126   7.836  19.270  0.00  0.00    +0.000 C 
BRANCH  15  16
ATOM     16  C   UNL     1       2.146   8.483  17.885  0.00  0.00    +0.000 C 
BRANCH  16  17
ATOM     17  C   UNL     1       1.530   9.890  17.894  0.00  0.00    +0.000 C 
BRANCH  17  18
ATOM     18  C   UNL     1       0.680  10.161  19.145  0.00  0.00    +0.000 C 
BRANCH  18  19
ATOM     19  N   UNL     1       0.008  11.470  19.161  0.00  0.00    +0.000 NA
ATOM     20  C   UNL     1       1.010  12.566  19.212  0.00  0.00    +0.000 C 
ATOM     21  C   UNL     1       1.683  12.735  20.587  0.00  0.00    +0.000 C 
ATOM     22  O   UNL     1       0.710  12.949  21.616  0.00  0.00    +0.000 OA
ATOM     23  C   UNL     1      -0.235  11.874  21.659  0.00  0.00    +0.000 C 
ATOM     24  C   UNL     1      -0.921  11.666  20.297  0.00  0.00    +0.000 C 
ENDBRANCH  18  19
ENDBRANCH  17  18
ENDBRANCH  16  17
ENDBRANCH  15  16
ENDBRANCH   3  15
TORSDOF 8
ENDMDL
