MODEL 1
REMARK VINA RESULT:      -8.4      0.000      0.000
REMARK  Name = 
REMARK  4 active torsions:
REMARK  status: ('A' for Active; 'I' for Inactive)
REMARK    1  A    between atoms: C_1  and  C_2
REMARK    2  A    between atoms: C_4  and  C_5
REMARK    3  A    between atoms: C_12  and  C_13
REMARK    4  A    between atoms: C_16  and  C_17
REMARK                            x       y       z     vdW  Elec       q    Type
REMARK                         _______ _______ _______ _____ _____    ______ ____
ROOT
ATOM      1  C   UNL     1       7.407   5.515  19.140  0.00  0.00    +0.000 C 
ATOM      2  C   UNL     1       6.696   5.215  17.879  0.00  0.00    +0.000 A 
ATOM      3  N   UNL     1       7.402   4.975  16.723  0.00  0.00    +0.000 NA
ATOM      4  C   UNL     1       6.471   4.777  15.810  0.00  0.00    +0.000 A 
ATOM      5  O   UNL     1       5.189   4.833  16.294  0.00  0.00    +0.000 OA
ATOM      6  C   UNL     1       5.341   5.136  17.625  0.00  0.00    +0.000 A 
ENDROOT
BRANCH   4   7
ATOM      7  C   UNL     1       6.645   4.578  14.374  0.00  0.00    +0.000 A 
ATOM      8  C   UNL     1       5.832   3.641  13.714  0.00  0.00    +0.000 A 
ATOM      9  C   UNL     1       6.009   3.364  12.357  0.00  0.00    +0.000 A 
ATOM     10  C   UNL     1       7.002   4.023  11.640  0.00  0.00    +0.000 A 
ATOM     11  C   UNL     1       7.805   4.972  12.272  0.00  0.00    +0.000 A 
ATOM     12  C   UNL     1       7.626   5.251  13.632  0.00  0.00    +0.000 A 
ENDBRANCH   4   7
BRANCH   6  13
ATOM     13  C   UNL     1       4.240   5.361  18.600  0.00  0.00    +0.000 A 
ATOM     14  C   UNL     1       3.706   4.365  19.387  0.00  0.00    +0.000 A 
ATOM     15  S   UNL     1       2.447   5.009  20.358  0.00  0.00    +0.000 S 
ATOM     16  C   UNL     1       2.685   6.559  19.640  0.00  0.00    +0.000 A 
ATOM     17  N   UNL     1       3.659   6.607  18.754  0.00  0.00    +0.000 NA
BRANCH  16  18
ATOM     18  C   UNL     1       1.812   7.706  19.947  0.00  0.00    +0.000 A 
ATOM     19  C   UNL     1       1.159   7.867  21.181  0.00  0.00    +0.000 A 
ATOM     20  C   UNL     1       0.328   8.970  21.411  0.00  0.00    +0.000 A 
ATOM     21  C   UNL     1       0.143   9.924  20.412  0.00  0.00    +0.000 A 
ATOM     22 CL   UNL     1      -0.891  11.269  20.696  0.00  0.00    +0.000 Cl
ATOM     23  C   UNL     1       0.790   9.793  19.189  0.00  0.00    +0.000 A 
ATOM     24  C   UNL     1       1.623   8.693  18.962  0.00  0.00    +0.000 A 
ENDBRANCH  16  18
ENDBRANCH   6  13
TORSDOF 3
ENDMDL
MODEL 2
REMARK VINA RESULT:      -8.4      0.114      1.396
REMARK  Name = 
REMARK  4 active torsions:
REMARK  status: ('A' for Active; 'I' for Inactive)
REMARK    1  A    between atoms: C_1  and  C_2
REMARK    2  A    between atoms: C_4  and  C_5
REMARK    3  A    between atoms: C_12  and  C_13
REMARK    4  A    between atoms: C_16  and  C_17
REMARK                            x       y       z     vdW  Elec       q    Type
REMARK                         _______ _______ _______ _____ _____    ______ ____
ROOT
ATOM      1  C   UNL     1       7.442   5.512  19.125  0.00  0.00    +0.000 C 
ATOM      2  C   UNL     1       6.744   5.192  17.861  0.00  0.00    +0.000 A 
ATOM      3  N   UNL     1       7.461   4.923  16.719  0.00  0.00    +0.000 NA
ATOM      4  C   UNL     1       6.539   4.713  15.800  0.00  0.00    +0.000 A 
ATOM      5  O   UNL     1       5.252   4.787  16.268  0.00  0.00    +0.000 OA
ATOM      6  C   UNL     1       5.391   5.115  17.594  0.00  0.00    +0.000 A 
ENDROOT
BRANCH   4   7
ATOM      7  C   UNL     1       6.728   4.485  14.370  0.00  0.00    +0.000 A 
ATOM      8  C   UNL     1       7.654   5.277  13.671  0.00  0.00    +0.000 A 
ATOM      9  C   UNL     1       7.816   5.144  12.290  0.00  0.00    +0.000 A 
ATOM     10  C   UNL     1       7.054   4.215  11.589  0.00  0.00    +0.000 A 
ATOM     11  C   UNL     1       6.145   3.405  12.268  0.00  0.00    +0.000 A 
ATOM     12  C   UNL     1       5.984   3.537  13.652  0.00  0.00    +0.000 A 
ENDBRANCH   4   7
BRANCH   6  13
ATOM     13  C   UNL     1       4.280   5.366  18.552  0.00  0.00    +0.000 A 
ATOM     14  C   UNL     1       3.735   4.391  19.356  0.00  0.00    +0.000 A 
ATOM     15  S   UNL     1       2.469   5.061  20.299  0.00  0.00    +0.000 S 
ATOM     16  C   UNL     1       2.718   6.593  19.546  0.00  0.00    +0.000 A 
ATOM     17  N   UNL     1       3.702   6.618  18.670  0.00  0.00    +0.000 NA
BRANCH  16  18
ATOM     18  C   UNL     1       1.846   7.749  19.817  0.00  0.00    +0.000 A 
ATOM     19  C   UNL     1       1.596   8.761  18.875  0.00  0.00    +0.000 A 
ATOM     20  C   UNL     1       0.769   9.847  19.195  0.00  0.00    +0.000 A 
ATOM     21  C   UNL     1       0.184   9.929  20.456  0.00  0.00    +0.000 A 
ATOM     22 CL   UNL     1      -0.819  11.271  20.847  0.00  0.00    +0.000 Cl
ATOM     23  C   UNL     1       0.405   8.932  21.399  0.00  0.00    +0.000 A 
ATOM     24  C   UNL     1       1.226   7.847  21.077  0.00  0.00    +0.000 A 
ENDBRANCH  16  18
ENDBRANCH   6  13
TORSDOF 3
ENDMDL
MODEL 3
REMARK VINA RESULT:      -8.1      0.276      1.023
REMARK  Name = 
REMARK  4 active torsions:
REMARK  status: ('A' for Active; 'I' for Inactive)
REMARK    1  A    between atoms: C_1  and  C_2
REMARK    2  A    between atoms: C_4  and  C_5
REMARK    3  A    between atoms: C_12  and  C_13
REMARK    4  A    between atoms: C_16  and  C_17
REMARK                            x       y       z     vdW  Elec       q    Type
REMARK                         _______ _______ _______ _____ _____    ______ ____
ROOT
ATOM      1  C   UNL     1       7.138   5.173  19.324  0.00  0.00    +0.000 C 
ATOM      2  C   UNL     1       6.482   5.035  18.006  0.00  0.00    +0.000 A 
ATOM      3  N   UNL     1       7.229   4.779  16.880  0.00  0.00    +0.000 NA
ATOM      4  C   UNL     1       6.344   4.749  15.903  0.00  0.00    +0.000 A 
ATOM      5  O   UNL     1       5.047   4.931  16.314  0.00  0.00    +0.000 OA
ATOM      6  C   UNL     1       5.146   5.134  17.669  0.00  0.00    +0.000 A 
ENDROOT
BRANCH   4   7
ATOM      7  C   UNL     1       6.587   4.615  14.469  0.00  0.00    +0.000 A 
ATOM      8  C   UNL     1       5.828   3.689  13.735  0.00  0.00    +0.000 A 
ATOM      9  C   UNL     1       6.074   3.474  12.377  0.00  0.00    +0.000 A 
ATOM     10  C   UNL     1       7.082   4.186  11.734  0.00  0.00    +0.000 A 
ATOM     11  C   UNL     1       7.831   5.125  12.441  0.00  0.00    +0.000 A 
ATOM     12  C   UNL     1       7.583   5.342  13.801  0.00  0.00    +0.000 A 
ENDBRANCH   4   7
BRANCH   6  13
ATOM     13  C   UNL     1       4.017   5.432  18.591  0.00  0.00    +0.000 A 
ATOM     14  C   UNL     1       3.365   4.471  19.330  0.00  0.00    +0.000 A 
ATOM     15  S   UNL     1       2.112   5.199  20.248  0.00  0.00    +0.000 S 
ATOM     16  C   UNL     1       2.510   6.736  19.572  0.00  0.00    +0.000 A 
ATOM     17  N   UNL     1       3.530   6.719  18.739  0.00  0.00    +0.000 NA
BRANCH  16  18
ATOM     18  C   UNL     1       1.717   7.944  19.857  0.00  0.00    +0.000 A 
ATOM     19  C   UNL     1       1.502   8.963  18.914  0.00  0.00    +0.000 A 
ATOM     20  C   UNL     1       0.752  10.099  19.246  0.00  0.00    +0.000 A 
ATOM     21  C   UNL     1       0.207  10.225  20.523  0.00  0.00    +0.000 A 
ATOM     22 CL   UNL     1      -0.702  11.628  20.929  0.00  0.00    +0.000 Cl
ATOM     23  C   UNL     1       0.394   9.223  21.467  0.00  0.00    +0.000 A 
ATOM     24  C   UNL     1       1.139   8.088  21.133  0.00  0.00    +0.000 A 
ENDBRANCH  16  18
ENDBRANCH   6  13
TORSDOF 3
ENDMDL
MODEL 4
REMARK VINA RESULT:      -7.8      3.963      6.131
REMARK  Name = 
REMARK  4 active torsions:
REMARK  status: ('A' for Active; 'I' for Inactive)
REMARK    1  A    between atoms: C_1  and  C_2
REMARK    2  A    between atoms: C_4  and  C_5
REMARK    3  A    between atoms: C_12  and  C_13
REMARK    4  A    between atoms: C_16  and  C_17
REMARK                            x       y       z     vdW  Elec       q    Type
REMARK                         _______ _______ _______ _____ _____    ______ ____
ROOT
ATOM      1  C   UNL     1       1.147   8.499  21.477  0.00  0.00    +0.000 C 
ATOM      2  C   UNL     1       1.611   8.207  20.104  0.00  0.00    +0.000 A 
ATOM      3  N   UNL     1       2.416   7.120  19.858  0.00  0.00    +0.000 NA
ATOM      4  C   UNL     1       2.656   7.179  18.563  0.00  0.00    +0.000 A 
ATOM      5  O   UNL     1       2.028   8.218  17.923  0.00  0.00    +0.000 OA
ATOM      6  C   UNL     1       1.371   8.888  18.926  0.00  0.00    +0.000 A 
ENDROOT
BRANCH   4   7
ATOM      7  C   UNL     1       3.540   6.331  17.769  0.00  0.00    +0.000 A 
ATOM      8  C   UNL     1       4.529   6.935  16.975  0.00  0.00    +0.000 A 
ATOM      9  C   UNL     1       5.350   6.170  16.144  0.00  0.00    +0.000 A 
ATOM     10  C   UNL     1       5.196   4.788  16.098  0.00  0.00    +0.000 A 
ATOM     11  C   UNL     1       4.234   4.169  16.895  0.00  0.00    +0.000 A 
ATOM     12  C   UNL     1       3.412   4.935  17.729  0.00  0.00    +0.000 A 
ENDBRANCH   4   7
BRANCH   6  13
ATOM     13  C   UNL     1       0.573  10.133  18.767  0.00  0.00    +0.000 A 
ATOM     14  C   UNL     1       1.104  11.397  18.894  0.00  0.00    +0.000 A 
ATOM     15  S   UNL     1      -0.130  12.567  18.664  0.00  0.00    +0.000 S 
ATOM     16  C   UNL     1      -1.286  11.305  18.442  0.00  0.00    +0.000 A 
ATOM     17  N   UNL     1      -0.784  10.088  18.503  0.00  0.00    +0.000 NA
BRANCH  16  18
ATOM     18  C   UNL     1      -2.723  11.582  18.274  0.00  0.00    +0.000 A 
ATOM     19  C   UNL     1      -3.537  12.076  19.307  0.00  0.00    +0.000 A 
ATOM     20  C   UNL     1      -4.903  12.305  19.094  0.00  0.00    +0.000 A 
ATOM     21  C   UNL     1      -5.466  12.045  17.847  0.00  0.00    +0.000 A 
ATOM     22 CL   UNL     1      -7.146  12.315  17.595  0.00  0.00    +0.000 Cl
ATOM     23  C   UNL     1      -4.677  11.570  16.806  0.00  0.00    +0.000 A 
ATOM     24  C   UNL     1      -3.314  11.346  17.019  0.00  0.00    +0.000 A 
ENDBRANCH  16  18
ENDBRANCH   6  13
TORSDOF 3
ENDMDL
MODEL 5
REMARK VINA RESULT:      -7.8      4.023      6.172
REMARK  Name = 
REMARK  4 active torsions:
REMARK  status: ('A' for Active; 'I' for Inactive)
REMARK    1  A    between atoms: C_1  and  C_2
REMARK    2  A    between atoms: C_4  and  C_5
REMARK    3  A    between atoms: C_12  and  C_13
REMARK    4  A    between atoms: C_16  and  C_17
REMARK                            x       y       z     vdW  Elec       q    Type
REMARK                         _______ _______ _______ _____ _____    ______ ____
ROOT
ATOM      1  C   UNL     1       1.145   8.638  21.532  0.00  0.00    +0.000 C 
ATOM      2  C   UNL     1       1.563   8.322  20.149  0.00  0.00    +0.000 A 
ATOM      3  N   UNL     1       2.360   7.232  19.894  0.00  0.00    +0.000 NA
ATOM      4  C   UNL     1       2.556   7.270  18.591  0.00  0.00    +0.000 A 
ATOM      5  O   UNL     1       1.905   8.297  17.955  0.00  0.00    +0.000 OA
ATOM      6  C   UNL     1       1.282   8.984  18.969  0.00  0.00    +0.000 A 
ENDROOT
BRANCH   4   7
ATOM      7  C   UNL     1       3.414   6.409  17.782  0.00  0.00    +0.000 A 
ATOM      8  C   UNL     1       3.148   5.030  17.741  0.00  0.00    +0.000 A 
ATOM      9  C   UNL     1       3.983   4.157  17.040  0.00  0.00    +0.000 A 
ATOM     10  C   UNL     1       5.096   4.653  16.368  0.00  0.00    +0.000 A 
ATOM     11  C   UNL     1       5.364   6.021  16.380  0.00  0.00    +0.000 A 
ATOM     12  C   UNL     1       4.526   6.896  17.080  0.00  0.00    +0.000 A 
ENDBRANCH   4   7
BRANCH   6  13
ATOM     13  C   UNL     1       0.478  10.226  18.815  0.00  0.00    +0.000 A 
ATOM     14  C   UNL     1       1.009  11.492  18.912  0.00  0.00    +0.000 A 
ATOM     15  S   UNL     1      -0.232  12.657  18.702  0.00  0.00    +0.000 S 
ATOM     16  C   UNL     1      -1.391  11.391  18.527  0.00  0.00    +0.000 A 
ATOM     17  N   UNL     1      -0.886  10.175  18.590  0.00  0.00    +0.000 NA
BRANCH  16  18
ATOM     18  C   UNL     1      -2.833  11.663  18.395  0.00  0.00    +0.000 A 
ATOM     19  C   UNL     1      -3.607  12.227  19.423  0.00  0.00    +0.000 A 
ATOM     20  C   UNL     1      -4.979  12.449  19.247  0.00  0.00    +0.000 A 
ATOM     21  C   UNL     1      -5.589  12.112  18.040  0.00  0.00    +0.000 A 
ATOM     22 CL   UNL     1      -7.277  12.374  17.834  0.00  0.00    +0.000 Cl
ATOM     23  C   UNL     1      -4.841  11.566  17.004  0.00  0.00    +0.000 A 
ATOM     24  C   UNL     1      -3.471  11.350  17.180  0.00  0.00    +0.000 A 
ENDBRANCH  16  18
ENDBRANCH   6  13
TORSDOF 3
ENDMDL
MODEL 6
REMARK VINA RESULT:      -7.3      2.673      4.453
REMARK  Name = 
REMARK  4 active torsions:
REMARK  status: ('A' for Active; 'I' for Inactive)
REMARK    1  A    between atoms: C_1  and  C_2
REMARK    2  A    between atoms: C_4  and  C_5
REMARK    3  A    between atoms: C_12  and  C_13
REMARK    4  A    between atoms: C_16  and  C_17
REMARK                            x       y       z     vdW  Elec       q    Type
REMARK                         _______ _______ _______ _____ _____    ______ ____
ROOT
ATOM      1  C   UNL     1       1.512   6.219  20.728  0.00  0.00    +0.000 C 
ATOM      2  C   UNL     1       2.357   6.446  19.536  0.00  0.00    +0.000 A 
ATOM      3  N   UNL     1       3.208   5.463  19.089  0.00  0.00    +0.000 NA
ATOM      4  C   UNL     1       3.813   6.004  18.051  0.00  0.00    +0.000 A 
ATOM      5  O   UNL     1       3.389   7.275  17.754  0.00  0.00    +0.000 OA
ATOM      6  C   UNL     1       2.464   7.561  18.728  0.00  0.00    +0.000 A 
ENDROOT
BRANCH   4   7
ATOM      7  C   UNL     1       4.898   5.448  17.246  0.00  0.00    +0.000 A 
ATOM      8  C   UNL     1       6.153   6.077  17.269  0.00  0.00    +0.000 A 
ATOM      9  C   UNL     1       7.199   5.625  16.462  0.00  0.00    +0.000 A 
ATOM     10  C   UNL     1       7.004   4.533  15.622  0.00  0.00    +0.000 A 
ATOM     11  C   UNL     1       5.771   3.882  15.601  0.00  0.00    +0.000 A 
ATOM     12  C   UNL     1       4.724   4.334  16.411  0.00  0.00    +0.000 A 
ENDBRANCH   4   7
BRANCH   6  13
ATOM     13  C   UNL     1       1.736   8.848  18.889  0.00  0.00    +0.000 A 
ATOM     14  C   UNL     1       1.883   9.917  18.033  0.00  0.00    +0.000 A 
ATOM     15  S   UNL     1       0.900  11.219  18.563  0.00  0.00    +0.000 S 
ATOM     16  C   UNL     1       0.375  10.277  19.909  0.00  0.00    +0.000 A 
ATOM     17  N   UNL     1       0.872   9.057  19.949  0.00  0.00    +0.000 NA
BRANCH  16  18
ATOM     18  C   UNL     1      -0.500  10.830  20.958  0.00  0.00    +0.000 A 
ATOM     19  C   UNL     1      -0.501  10.364  22.283  0.00  0.00    +0.000 A 
ATOM     20  C   UNL     1      -1.366  10.918  23.235  0.00  0.00    +0.000 A 
ATOM     21  C   UNL     1      -2.236  11.945  22.872  0.00  0.00    +0.000 A 
ATOM     22 CL   UNL     1      -3.306  12.612  24.042  0.00  0.00    +0.000 Cl
ATOM     23  C   UNL     1      -2.242  12.432  21.570  0.00  0.00    +0.000 A 
ATOM     24  C   UNL     1      -1.375  11.881  20.623  0.00  0.00    +0.000 A 
ENDBRANCH  16  18
ENDBRANCH   6  13
TORSDOF 3
ENDMDL
MODEL 7
REMARK VINA RESULT:      -7.2      4.722      9.442
REMARK  Name = 
REMARK  4 active torsions:
REMARK  status: ('A' for Active; 'I' for Inactive)
REMARK    1  A    between atoms: C_1  and  C_2
REMARK    2  A    between atoms: C_4  and  C_5
REMARK    3  A    between atoms: C_12  and  C_13
REMARK    4  A    between atoms: C_16  and  C_17
REMARK                            x       y       z     vdW  Elec       q    Type
REMARK                         _______ _______ _______ _____ _____    ______ ____
ROOT
ATOM      1  C   UNL     1      -1.760  10.169  18.063  0.00  0.00    +0.000 C 
ATOM      2  C   UNL     1      -0.679  11.098  18.458  0.00  0.00    +0.000 A 
ATOM      3  N   UNL     1      -0.834  12.455  18.295  0.00  0.00    +0.000 NA
ATOM      4  C   UNL     1       0.308  12.964  18.715  0.00  0.00    +0.000 A 
ATOM      5  O   UNL     1       1.199  12.033  19.184  0.00  0.00    +0.000 OA
ATOM      6  C   UNL     1       0.564  10.830  18.998  0.00  0.00    +0.000 A 
ENDROOT
BRANCH   4   7
ATOM      7  C   UNL     1       0.743  14.358  18.675  0.00  0.00    +0.000 A 
ATOM      8  C   UNL     1       2.117  14.639  18.609  0.00  0.00    +0.000 A 
ATOM      9  C   UNL     1       2.584  15.955  18.642  0.00  0.00    +0.000 A 
ATOM     10  C   UNL     1       1.681  17.008  18.739  0.00  0.00    +0.000 A 
ATOM     11  C   UNL     1       0.312  16.750  18.784  0.00  0.00    +0.000 A 
ATOM     12  C   UNL     1      -0.156  15.432  18.749  0.00  0.00    +0.000 A 
ENDBRANCH   4   7
BRANCH   6  13
ATOM     13  C   UNL     1       1.130   9.488  19.300  0.00  0.00    +0.000 A 
ATOM     14  C   UNL     1       1.071   8.900  20.544  0.00  0.00    +0.000 A 
ATOM     15  S   UNL     1       1.851   7.373  20.498  0.00  0.00    +0.000 S 
ATOM     16  C   UNL     1       2.235   7.618  18.834  0.00  0.00    +0.000 A 
ATOM     17  N   UNL     1       1.787   8.750  18.331  0.00  0.00    +0.000 NA
BRANCH  16  18
ATOM     18  C   UNL     1       3.062   6.664  18.074  0.00  0.00    +0.000 A 
ATOM     19  C   UNL     1       2.821   5.280  18.056  0.00  0.00    +0.000 A 
ATOM     20  C   UNL     1       3.651   4.418  17.328  0.00  0.00    +0.000 A 
ATOM     21  C   UNL     1       4.728   4.932  16.608  0.00  0.00    +0.000 A 
ATOM     22 CL   UNL     1       5.752   3.868  15.727  0.00  0.00    +0.000 Cl
ATOM     23  C   UNL     1       4.978   6.300  16.600  0.00  0.00    +0.000 A 
ATOM     24  C   UNL     1       4.146   7.158  17.324  0.00  0.00    +0.000 A 
ENDBRANCH  16  18
ENDBRANCH   6  13
TORSDOF 3
ENDMDL
MODEL 8
REMARK VINA RESULT:      -7.2      2.631      4.525
REMARK  Name = 
REMARK  4 active torsions:
REMARK  status: ('A' for Active; 'I' for Inactive)
REMARK    1  A    between atoms: C_1  and  C_2
REMARK    2  A    between atoms: C_4  and  C_5
REMARK    3  A    between atoms: C_12  and  C_13
REMARK    4  A    between atoms: C_16  and  C_17
REMARK                            x       y       z     vdW  Elec       q    Type
REMARK                         _______ _______ _______ _____ _____    ______ ____
ROOT
ATOM      1  C   UNL     1       1.479   6.164  20.788  0.00  0.00    +0.000 C 
ATOM      2  C   UNL     1       2.383   6.357  19.634  0.00  0.00    +0.000 A 
ATOM      3  N   UNL     1       3.253   5.362  19.257  0.00  0.00    +0.000 NA
ATOM      4  C   UNL     1       3.910   5.874  18.235  0.00  0.00    +0.000 A 
ATOM      5  O   UNL     1       3.503   7.136  17.882  0.00  0.00    +0.000 OA
ATOM      6  C   UNL     1       2.531   7.449  18.801  0.00  0.00    +0.000 A 
ENDROOT
BRANCH   4   7
ATOM      7  C   UNL     1       5.032   5.294  17.501  0.00  0.00    +0.000 A 
ATOM      8  C   UNL     1       6.273   5.168  18.147  0.00  0.00    +0.000 A 
ATOM      9  C   UNL     1       7.392   4.687  17.465  0.00  0.00    +0.000 A 
ATOM     10  C   UNL     1       7.285   4.324  16.126  0.00  0.00    +0.000 A 
ATOM     11  C   UNL     1       6.056   4.422  15.474  0.00  0.00    +0.000 A 
ATOM     12  C   UNL     1       4.934   4.902  16.158  0.00  0.00    +0.000 A 
ENDBRANCH   4   7
BRANCH   6  13
ATOM     13  C   UNL     1       1.798   8.741  18.890  0.00  0.00    +0.000 A 
ATOM     14  C   UNL     1       1.962   9.771  17.991  0.00  0.00    +0.000 A 
ATOM     15  S   UNL     1       0.966  11.093  18.442  0.00  0.00    +0.000 S 
ATOM     16  C   UNL     1       0.413  10.210  19.816  0.00  0.00    +0.000 A 
ATOM     17  N   UNL     1       0.911   8.994  19.921  0.00  0.00    +0.000 NA
BRANCH  16  18
ATOM     18  C   UNL     1      -0.484  10.807  20.821  0.00  0.00    +0.000 A 
ATOM     19  C   UNL     1      -1.384  11.845  20.528  0.00  0.00    +0.000 A 
ATOM     20  C   UNL     1      -2.202  12.386  21.529  0.00  0.00    +0.000 A 
ATOM     21  C   UNL     1      -2.129  11.893  22.830  0.00  0.00    +0.000 A 
ATOM     22 CL   UNL     1      -3.126  12.570  24.057  0.00  0.00    +0.000 Cl
ATOM     23  C   UNL     1      -1.256  10.857  23.140  0.00  0.00    +0.000 A 
ATOM     24  C   UNL     1      -0.444  10.315  22.139  0.00  0.00    +0.000 A 
ENDBRANCH  16  18
ENDBRANCH   6  13
TORSDOF 3
ENDMDL
MODEL 9
REMARK VINA RESULT:      -7.2      3.432      5.353
REMARK  Name = 
REMARK  4 active torsions:
REMARK  status: ('A' for Active; 'I' for Inactive)
REMARK    1  A    between atoms: C_1  and  C_2
REMARK    2  A    between atoms: C_4  and  C_5
REMARK    3  A    between atoms: C_12  and  C_13
REMARK    4  A    between atoms: C_16  and  C_17
REMARK                            x       y       z     vdW  Elec       q    Type
REMARK                         _______ _______ _______ _____ _____    ______ ____
ROOT
ATOM      1  C   UNL     1       1.448   7.317  20.832  0.00  0.00    +0.000 C 
ATOM      2  C   UNL     1       2.201   7.339  19.559  0.00  0.00    +0.000 A 
ATOM      3  N   UNL     1       3.090   6.334  19.259  0.00  0.00    +0.000 NA
ATOM      4  C   UNL     1       3.590   6.683  18.090  0.00  0.00    +0.000 A 
ATOM      5  O   UNL     1       3.061   7.838  17.574  0.00  0.00    +0.000 OA
ATOM      6  C   UNL     1       2.179   8.267  18.536  0.00  0.00    +0.000 A 
ENDROOT
BRANCH   4   7
ATOM      7  C   UNL     1       4.660   6.033  17.337  0.00  0.00    +0.000 A 
ATOM      8  C   UNL     1       5.914   6.662  17.257  0.00  0.00    +0.000 A 
ATOM      9  C   UNL     1       6.944   6.116  16.489  0.00  0.00    +0.000 A 
ATOM     10  C   UNL     1       6.735   4.930  15.792  0.00  0.00    +0.000 A 
ATOM     11  C   UNL     1       5.505   4.280  15.876  0.00  0.00    +0.000 A 
ATOM     12  C   UNL     1       4.473   4.826  16.647  0.00  0.00    +0.000 A 
ENDBRANCH   4   7
BRANCH   6  13
ATOM     13  C   UNL     1       1.374   9.517  18.487  0.00  0.00    +0.000 A 
ATOM     14  C   UNL     1       1.867  10.753  18.838  0.00  0.00    +0.000 A 
ATOM     15  S   UNL     1       0.635  11.935  18.671  0.00  0.00    +0.000 S 
ATOM     16  C   UNL     1      -0.473  10.711  18.172  0.00  0.00    +0.000 A 
ATOM     17  N   UNL     1       0.044   9.501  18.102  0.00  0.00    +0.000 NA
BRANCH  16  18
ATOM     18  C   UNL     1      -1.896  10.999  17.920  0.00  0.00    +0.000 A 
ATOM     19  C   UNL     1      -2.549  10.662  16.723  0.00  0.00    +0.000 A 
ATOM     20  C   UNL     1      -3.902  10.975  16.533  0.00  0.00    +0.000 A 
ATOM     21  C   UNL     1      -4.613  11.625  17.539  0.00  0.00    +0.000 A 
ATOM     22 CL   UNL     1      -6.270  12.020  17.295  0.00  0.00    +0.000 Cl
ATOM     23  C   UNL     1      -3.992  11.955  18.738  0.00  0.00    +0.000 A 
ATOM     24  C   UNL     1      -2.644  11.638  18.927  0.00  0.00    +0.000 A 
ENDBRANCH  16  18
ENDBRANCH   6  13
TORSDOF 3
ENDMDL
