MODEL 1
REMARK VINA RESULT:      -7.9      0.000      0.000
REMARK  Name = 
REMARK  6 active torsions:
REMARK  status: ('A' for Active; 'I' for Inactive)
REMARK    1  A    between atoms: C_2  and  C_3
REMARK    2  A    between atoms: C_3  and  C_4
REMARK    3  A    between atoms: C_6  and  C_7
REMARK    4  A    between atoms: C_7  and  C_8
REMARK    5  A    between atoms: C_12  and  C_13
REMARK    6  A    between atoms: C_20  and  C_21
REMARK                            x       y       z     vdW  Elec       q    Type
REMARK                         _______ _______ _______ _____ _____    ______ ____
ROOT
ATOM      1  C   UNL     1       6.240   4.625  15.574  0.00  0.00    +0.000 A 
ATOM      2  C   UNL     1       7.069   5.418  16.380  0.00  0.00    +0.000 A 
ATOM      3  C   UNL     1       6.801   5.612  17.737  0.00  0.00    +0.000 A 
ATOM      4  C   UNL     1       5.640   5.044  18.280  0.00  0.00    +0.000 A 
ATOM      5  C   UNL     1       4.867   4.119  17.576  0.00  0.00    +0.000 A 
ATOM      6  C   UNL     1       5.188   3.939  16.214  0.00  0.00    +0.000 A 
ENDROOT
BRANCH   5   7
ATOM      7  C   UNL     1       3.739   3.392  18.197  0.00  0.00    +0.000 A 
ATOM      8  C   UNL     1       3.694   1.979  18.121  0.00  0.00    +0.000 A 
ATOM      9  C   UNL     1       2.690   1.261  18.749  0.00  0.00    +0.000 A 
ATOM     10  N   UNL     1       1.689   1.806  19.452  0.00  0.00    +0.000 NA
ATOM     11  C   UNL     1       1.739   3.148  19.493  0.00  0.00    +0.000 A 
ATOM     12  N   UNL     1       0.824   3.908  20.146  0.00  0.00    +0.000 N 
ATOM     13  N   UNL     1       1.051   5.220  20.058  0.00  0.00    +0.000 NA
ATOM     14  C   UNL     1       2.190   5.320  19.333  0.00  0.00    +0.000 A 
ATOM     15  C   UNL     1       2.675   4.014  18.925  0.00  0.00    +0.000 A 
ATOM     16  H   UNL     1       0.024   3.575  20.668  0.00  0.00    +0.000 HD
BRANCH  14  17
ATOM     17  C   UNL     1       2.737   6.697  19.055  0.00  0.00    +0.000 C 
ATOM     18  F   UNL     1       2.980   6.922  17.733  0.00  0.00    +0.000 F 
ATOM     19  F   UNL     1       1.900   7.693  19.452  0.00  0.00    +0.000 F 
ATOM     20  F   UNL     1       3.930   6.911  19.678  0.00  0.00    +0.000 F 
ENDBRANCH  14  17
ENDBRANCH   5   7
BRANCH   1  21
ATOM     21  C   UNL     1       6.487   4.499  14.067  0.00  0.00    +0.000 C 
ATOM     22  C   UNL     1       5.248   4.304  13.188  0.00  0.00    +0.000 C 
ATOM     23  C   UNL     1       6.169   3.148  13.417  0.00  0.00    +0.000 C 
BRANCH  21  25
ATOM     24  N   UNL     1       8.451   5.839  12.985  0.00  0.00    +0.000 NA
ATOM     25  C   UNL     1       7.587   5.233  13.464  0.00  0.00    +0.000 C 
ENDBRANCH  21  25
ENDBRANCH   1  21
BRANCH   3  26
ATOM     26  C   UNL     1       7.734   6.420  18.608  0.00  0.00    +0.000 C 
BRANCH  26  27
ATOM     27  C   UNL     1       8.144   7.759  17.999  0.00  0.00    +0.000 C 
ATOM     28  F   UNL     1       7.048   8.465  17.622  0.00  0.00    +0.000 F 
ATOM     29  F   UNL     1       8.761   8.507  18.952  0.00  0.00    +0.000 F 
ENDBRANCH  26  27
ENDBRANCH   3  26
TORSDOF 6
ENDMDL
MODEL 2
REMARK VINA RESULT:      -7.7      1.087      1.343
REMARK  Name = 
REMARK  6 active torsions:
REMARK  status: ('A' for Active; 'I' for Inactive)
REMARK    1  A    between atoms: C_2  and  C_3
REMARK    2  A    between atoms: C_3  and  C_4
REMARK    3  A    between atoms: C_6  and  C_7
REMARK    4  A    between atoms: C_7  and  C_8
REMARK    5  A    between atoms: C_12  and  C_13
REMARK    6  A    between atoms: C_20  and  C_21
REMARK                            x       y       z     vdW  Elec       q    Type
REMARK                         _______ _______ _______ _____ _____    ______ ____
ROOT
ATOM      1  C   UNL     1       6.469   5.019  16.146  0.00  0.00    +0.000 A 
ATOM      2  C   UNL     1       7.352   5.947  16.716  0.00  0.00    +0.000 A 
ATOM      3  C   UNL     1       7.274   6.295  18.067  0.00  0.00    +0.000 A 
ATOM      4  C   UNL     1       6.247   5.743  18.844  0.00  0.00    +0.000 A 
ATOM      5  C   UNL     1       5.444   4.700  18.381  0.00  0.00    +0.000 A 
ATOM      6  C   UNL     1       5.572   4.367  17.015  0.00  0.00    +0.000 A 
ENDROOT
BRANCH   5   7
ATOM      7  C   UNL     1       4.472   4.001  19.248  0.00  0.00    +0.000 A 
ATOM      8  C   UNL     1       4.777   2.709  19.738  0.00  0.00    +0.000 A 
ATOM      9  C   UNL     1       3.922   2.053  20.608  0.00  0.00    +0.000 A 
ATOM     10  N   UNL     1       2.756   2.546  21.046  0.00  0.00    +0.000 NA
ATOM     11  C   UNL     1       2.476   3.763  20.552  0.00  0.00    +0.000 A 
ATOM     12  N   UNL     1       1.347   4.450  20.859  0.00  0.00    +0.000 N 
ATOM     13  N   UNL     1       1.256   5.637  20.257  0.00  0.00    +0.000 NA
ATOM     14  C   UNL     1       2.401   5.743  19.541  0.00  0.00    +0.000 A 
ATOM     15  C   UNL     1       3.224   4.555  19.680  0.00  0.00    +0.000 A 
ATOM     16  H   UNL     1       0.605   4.147  21.477  0.00  0.00    +0.000 HD
BRANCH  14  17
ATOM     17  C   UNL     1       2.622   6.998  18.737  0.00  0.00    +0.000 C 
ATOM     18  F   UNL     1       2.330   8.137  19.427  0.00  0.00    +0.000 F 
ATOM     19  F   UNL     1       3.906   7.141  18.314  0.00  0.00    +0.000 F 
ATOM     20  F   UNL     1       1.832   7.044  17.627  0.00  0.00    +0.000 F 
ENDBRANCH  14  17
ENDBRANCH   5   7
BRANCH   1  21
ATOM     21  C   UNL     1       6.500   4.718  14.643  0.00  0.00    +0.000 C 
ATOM     22  C   UNL     1       5.143   4.515  13.962  0.00  0.00    +0.000 C 
ATOM     23  C   UNL     1       6.025   3.331  14.199  0.00  0.00    +0.000 C 
BRANCH  21  25
ATOM     24  N   UNL     1       8.360   5.783  13.149  0.00  0.00    +0.000 NA
ATOM     25  C   UNL     1       7.543   5.309  13.822  0.00  0.00    +0.000 C 
ENDBRANCH  21  25
ENDBRANCH   1  21
BRANCH   3  26
ATOM     26  C   UNL     1       8.269   7.251  18.684  0.00  0.00    +0.000 C 
BRANCH  26  27
ATOM     27  C   UNL     1       8.349   8.601  17.976  0.00  0.00    +0.000 C 
ATOM     28  F   UNL     1       7.104   9.086  17.735  0.00  0.00    +0.000 F 
ATOM     29  F   UNL     1       8.946   9.499  18.805  0.00  0.00    +0.000 F 
ENDBRANCH  26  27
ENDBRANCH   3  26
TORSDOF 6
ENDMDL
MODEL 3
REMARK VINA RESULT:      -7.3      2.178      3.697
REMARK  Name = 
REMARK  6 active torsions:
REMARK  status: ('A' for Active; 'I' for Inactive)
REMARK    1  A    between atoms: C_2  and  C_3
REMARK    2  A    between atoms: C_3  and  C_4
REMARK    3  A    between atoms: C_6  and  C_7
REMARK    4  A    between atoms: C_7  and  C_8
REMARK    5  A    between atoms: C_12  and  C_13
REMARK    6  A    between atoms: C_20  and  C_21
REMARK                            x       y       z     vdW  Elec       q    Type
REMARK                         _______ _______ _______ _____ _____    ______ ____
ROOT
ATOM      1  C   UNL     1       6.257   5.330  17.378  0.00  0.00    +0.000 A 
ATOM      2  C   UNL     1       6.324   5.211  15.982  0.00  0.00    +0.000 A 
ATOM      3  C   UNL     1       5.393   4.453  15.268  0.00  0.00    +0.000 A 
ATOM      4  C   UNL     1       4.409   3.752  15.979  0.00  0.00    +0.000 A 
ATOM      5  C   UNL     1       4.191   3.958  17.343  0.00  0.00    +0.000 A 
ATOM      6  C   UNL     1       5.145   4.748  18.019  0.00  0.00    +0.000 A 
ENDROOT
BRANCH   5   7
ATOM      7  C   UNL     1       3.054   3.350  18.065  0.00  0.00    +0.000 A 
ATOM      8  C   UNL     1       2.763   1.976  17.878  0.00  0.00    +0.000 A 
ATOM      9  C   UNL     1       1.749   1.357  18.590  0.00  0.00    +0.000 A 
ATOM     10  N   UNL     1       0.960   1.970  19.481  0.00  0.00    +0.000 NA
ATOM     11  C   UNL     1       1.239   3.276  19.627  0.00  0.00    +0.000 A 
ATOM     12  N   UNL     1       0.563   4.092  20.474  0.00  0.00    +0.000 N 
ATOM     13  N   UNL     1       0.992   5.356  20.464  0.00  0.00    +0.000 NA
ATOM     14  C   UNL     1       2.021   5.358  19.584  0.00  0.00    +0.000 A 
ATOM     15  C   UNL     1       2.219   4.045  18.998  0.00  0.00    +0.000 A 
ATOM     16  H   UNL     1      -0.202   3.831  21.083  0.00  0.00    +0.000 HD
BRANCH  14  17
ATOM     17  C   UNL     1       2.747   6.657  19.343  0.00  0.00    +0.000 C 
ATOM     18  F   UNL     1       4.059   6.615  19.713  0.00  0.00    +0.000 F 
ATOM     19  F   UNL     1       2.742   7.037  18.038  0.00  0.00    +0.000 F 
ATOM     20  F   UNL     1       2.210   7.686  20.057  0.00  0.00    +0.000 F 
ENDBRANCH  14  17
ENDBRANCH   5   7
BRANCH   1  21
ATOM     21  C   UNL     1       7.338   6.082  18.160  0.00  0.00    +0.000 C 
ATOM     22  C   UNL     1       8.469   5.230  18.747  0.00  0.00    +0.000 C 
ATOM     23  C   UNL     1       7.435   5.802  19.663  0.00  0.00    +0.000 C 
BRANCH  21  25
ATOM     24  N   UNL     1       7.971   8.505  17.418  0.00  0.00    +0.000 NA
ATOM     25  C   UNL     1       7.700   7.430  17.756  0.00  0.00    +0.000 C 
ENDBRANCH  21  25
ENDBRANCH   1  21
BRANCH   3  26
ATOM     26  C   UNL     1       5.441   4.380  13.759  0.00  0.00    +0.000 C 
BRANCH  26  27
ATOM     27  C   UNL     1       6.802   3.969  13.203  0.00  0.00    +0.000 C 
ATOM     28  F   UNL     1       6.655   3.313  12.024  0.00  0.00    +0.000 F 
ATOM     29  F   UNL     1       7.519   5.089  12.920  0.00  0.00    +0.000 F 
ENDBRANCH  26  27
ENDBRANCH   3  26
TORSDOF 6
ENDMDL
MODEL 4
REMARK VINA RESULT:      -7.3      4.095      7.374
REMARK  Name = 
REMARK  6 active torsions:
REMARK  status: ('A' for Active; 'I' for Inactive)
REMARK    1  A    between atoms: C_2  and  C_3
REMARK    2  A    between atoms: C_3  and  C_4
REMARK    3  A    between atoms: C_6  and  C_7
REMARK    4  A    between atoms: C_7  and  C_8
REMARK    5  A    between atoms: C_12  and  C_13
REMARK    6  A    between atoms: C_20  and  C_21
REMARK                            x       y       z     vdW  Elec       q    Type
REMARK                         _______ _______ _______ _____ _____    ______ ____
ROOT
ATOM      1  C   UNL     1       0.154   9.734  18.981  0.00  0.00    +0.000 A 
ATOM      2  C   UNL     1       0.262   9.838  20.375  0.00  0.00    +0.000 A 
ATOM      3  C   UNL     1       1.148   9.038  21.102  0.00  0.00    +0.000 A 
ATOM      4  C   UNL     1       1.897   8.072  20.416  0.00  0.00    +0.000 A 
ATOM      5  C   UNL     1       1.955   8.029  19.022  0.00  0.00    +0.000 A 
ATOM      6  C   UNL     1       1.058   8.870  18.329  0.00  0.00    +0.000 A 
ENDROOT
BRANCH   5   7
ATOM      7  C   UNL     1       2.868   7.124  18.294  0.00  0.00    +0.000 A 
ATOM      8  C   UNL     1       3.689   7.642  17.263  0.00  0.00    +0.000 A 
ATOM      9  C   UNL     1       4.606   6.838  16.606  0.00  0.00    +0.000 A 
ATOM     10  N   UNL     1       4.793   5.535  16.856  0.00  0.00    +0.000 NA
ATOM     11  C   UNL     1       3.990   5.059  17.822  0.00  0.00    +0.000 A 
ATOM     12  N   UNL     1       4.006   3.767  18.235  0.00  0.00    +0.000 N 
ATOM     13  N   UNL     1       3.124   3.497  19.199  0.00  0.00    +0.000 NA
ATOM     14  C   UNL     1       2.519   4.683  19.448  0.00  0.00    +0.000 A 
ATOM     15  C   UNL     1       3.027   5.729  18.578  0.00  0.00    +0.000 A 
ATOM     16  H   UNL     1       4.604   3.029  17.887  0.00  0.00    +0.000 HD
BRANCH  14  17
ATOM     17  C   UNL     1       1.456   4.728  20.515  0.00  0.00    +0.000 C 
ATOM     18  F   UNL     1       0.364   5.461  20.155  0.00  0.00    +0.000 F 
ATOM     19  F   UNL     1       0.983   3.498  20.848  0.00  0.00    +0.000 F 
ATOM     20  F   UNL     1       1.907   5.304  21.666  0.00  0.00    +0.000 F 
ENDBRANCH  14  17
ENDBRANCH   5   7
BRANCH   1  21
ATOM     21  C   UNL     1      -0.889  10.544  18.205  0.00  0.00    +0.000 C 
ATOM     22  C   UNL     1      -2.322  10.003  18.224  0.00  0.00    +0.000 C 
ATOM     23  C   UNL     1      -1.513   9.883  16.972  0.00  0.00    +0.000 C 
BRANCH  21  25
ATOM     24  N   UNL     1      -0.632  13.140  18.058  0.00  0.00    +0.000 NA
ATOM     25  C   UNL     1      -0.755  11.990  18.132  0.00  0.00    +0.000 C 
ENDBRANCH  21  25
ENDBRANCH   1  21
BRANCH   3  26
ATOM     26  C   UNL     1       1.298   9.201  22.596  0.00  0.00    +0.000 C 
BRANCH  26  27
ATOM     27  C   UNL     1      -0.029   9.331  23.340  0.00  0.00    +0.000 C 
ATOM     28  F   UNL     1      -0.471  10.614  23.303  0.00  0.00    +0.000 F 
ATOM     29  F   UNL     1      -0.971   8.593  22.693  0.00  0.00    +0.000 F 
ENDBRANCH  26  27
ENDBRANCH   3  26
TORSDOF 6
ENDMDL
MODEL 5
REMARK VINA RESULT:      -7.3      3.710      6.707
REMARK  Name = 
REMARK  6 active torsions:
REMARK  status: ('A' for Active; 'I' for Inactive)
REMARK    1  A    between atoms: C_2  and  C_3
REMARK    2  A    between atoms: C_3  and  C_4
REMARK    3  A    between atoms: C_6  and  C_7
REMARK    4  A    between atoms: C_7  and  C_8
REMARK    5  A    between atoms: C_12  and  C_13
REMARK    6  A    between atoms: C_20  and  C_21
REMARK                            x       y       z     vdW  Elec       q    Type
REMARK                         _______ _______ _______ _____ _____    ______ ____
ROOT
ATOM      1  C   UNL     1       2.018   5.382  19.652  0.00  0.00    +0.000 A 
ATOM      2  C   UNL     1       2.822   5.846  18.602  0.00  0.00    +0.000 A 
ATOM      3  C   UNL     1       2.935   7.210  18.316  0.00  0.00    +0.000 A 
ATOM      4  C   UNL     1       2.176   8.118  19.066  0.00  0.00    +0.000 A 
ATOM      5  C   UNL     1       1.488   7.737  20.220  0.00  0.00    +0.000 A 
ATOM      6  C   UNL     1       1.418   6.351  20.481  0.00  0.00    +0.000 A 
ENDROOT
BRANCH   5   7
ATOM      7  C   UNL     1       0.823   8.714  21.106  0.00  0.00    +0.000 A 
ATOM      8  C   UNL     1       0.980   8.604  22.509  0.00  0.00    +0.000 A 
ATOM      9  C   UNL     1       0.429   9.542  23.366  0.00  0.00    +0.000 A 
ATOM     10  N   UNL     1      -0.295  10.599  22.976  0.00  0.00    +0.000 NA
ATOM     11  C   UNL     1      -0.450  10.672  21.644  0.00  0.00    +0.000 A 
ATOM     12  N   UNL     1      -1.149  11.658  21.028  0.00  0.00    +0.000 N 
ATOM     13  N   UNL     1      -1.189  11.544  19.700  0.00  0.00    +0.000 NA
ATOM     14  C   UNL     1      -0.454  10.439  19.431  0.00  0.00    +0.000 A 
ATOM     15  C   UNL     1       0.039   9.823  20.650  0.00  0.00    +0.000 A 
ATOM     16  H   UNL     1      -1.619  12.436  21.475  0.00  0.00    +0.000 HD
BRANCH  14  17
ATOM     17  C   UNL     1      -0.287  10.029  17.991  0.00  0.00    +0.000 C 
ATOM     18  F   UNL     1      -1.158  10.656  17.150  0.00  0.00    +0.000 F 
ATOM     19  F   UNL     1       0.953  10.293  17.502  0.00  0.00    +0.000 F 
ATOM     20  F   UNL     1      -0.511   8.698  17.806  0.00  0.00    +0.000 F 
ENDBRANCH  14  17
ENDBRANCH   5   7
BRANCH   1  21
ATOM     21  C   UNL     1       1.824   3.881  19.895  0.00  0.00    +0.000 C 
ATOM     22  C   UNL     1       2.130   2.956  18.714  0.00  0.00    +0.000 C 
ATOM     23  C   UNL     1       0.707   3.185  19.110  0.00  0.00    +0.000 C 
BRANCH  21  25
ATOM     24  N   UNL     1       2.317   2.900  22.265  0.00  0.00    +0.000 NA
ATOM     25  C   UNL     1       2.085   3.336  21.217  0.00  0.00    +0.000 C 
ENDBRANCH  21  25
ENDBRANCH   1  21
BRANCH   3  26
ATOM     26  C   UNL     1       3.851   7.702  17.220  0.00  0.00    +0.000 C 
BRANCH  26  27
ATOM     27  C   UNL     1       4.861   6.661  16.744  0.00  0.00    +0.000 C 
ATOM     28  F   UNL     1       4.994   6.711  15.394  0.00  0.00    +0.000 F 
ATOM     29  F   UNL     1       6.084   6.970  17.252  0.00  0.00    +0.000 F 
ENDBRANCH  26  27
ENDBRANCH   3  26
TORSDOF 6
ENDMDL
MODEL 6
REMARK VINA RESULT:      -7.2      1.701      6.288
REMARK  Name = 
REMARK  6 active torsions:
REMARK  status: ('A' for Active; 'I' for Inactive)
REMARK    1  A    between atoms: C_2  and  C_3
REMARK    2  A    between atoms: C_3  and  C_4
REMARK    3  A    between atoms: C_6  and  C_7
REMARK    4  A    between atoms: C_7  and  C_8
REMARK    5  A    between atoms: C_12  and  C_13
REMARK    6  A    between atoms: C_20  and  C_21
REMARK                            x       y       z     vdW  Elec       q    Type
REMARK                         _______ _______ _______ _____ _____    ______ ____
ROOT
ATOM      1  C   UNL     1       2.423   4.115  18.836  0.00  0.00    +0.000 A 
ATOM      2  C   UNL     1       2.108   5.438  19.175  0.00  0.00    +0.000 A 
ATOM      3  C   UNL     1       2.706   6.522  18.527  0.00  0.00    +0.000 A 
ATOM      4  C   UNL     1       3.686   6.266  17.557  0.00  0.00    +0.000 A 
ATOM      5  C   UNL     1       3.925   4.982  17.063  0.00  0.00    +0.000 A 
ATOM      6  C   UNL     1       3.282   3.921  17.735  0.00  0.00    +0.000 A 
ENDROOT
BRANCH   5   7
ATOM      7  C   UNL     1       4.835   4.726  15.928  0.00  0.00    +0.000 A 
ATOM      8  C   UNL     1       4.399   3.913  14.853  0.00  0.00    +0.000 A 
ATOM      9  C   UNL     1       5.198   3.708  13.741  0.00  0.00    +0.000 A 
ATOM     10  N   UNL     1       6.424   4.222  13.579  0.00  0.00    +0.000 NA
ATOM     11  C   UNL     1       6.827   4.972  14.618  0.00  0.00    +0.000 A 
ATOM     12  N   UNL     1       8.035   5.587  14.670  0.00  0.00    +0.000 N 
ATOM     13  N   UNL     1       8.242   6.277  15.793  0.00  0.00    +0.000 NA
ATOM     14  C   UNL     1       7.098   6.127  16.500  0.00  0.00    +0.000 A 
ATOM     15  C   UNL     1       6.149   5.280  15.799  0.00  0.00    +0.000 A 
ATOM     16  H   UNL     1       8.755   5.565  13.959  0.00  0.00    +0.000 HD
BRANCH  14  17
ATOM     17  C   UNL     1       6.998   6.805  17.842  0.00  0.00    +0.000 C 
ATOM     18  F   UNL     1       6.245   7.941  17.815  0.00  0.00    +0.000 F 
ATOM     19  F   UNL     1       6.441   6.015  18.798  0.00  0.00    +0.000 F 
ATOM     20  F   UNL     1       8.216   7.197  18.313  0.00  0.00    +0.000 F 
ENDBRANCH  14  17
ENDBRANCH   5   7
BRANCH   1  21
ATOM     21  C   UNL     1       1.835   2.936  19.619  0.00  0.00    +0.000 C 
ATOM     22  C   UNL     1       1.932   1.561  18.951  0.00  0.00    +0.000 C 
ATOM     23  C   UNL     1       0.605   2.245  19.023  0.00  0.00    +0.000 C 
BRANCH  21  25
ATOM     24  N   UNL     1       1.973   2.947  22.227  0.00  0.00    +0.000 NA
ATOM     25  C   UNL     1       1.900   2.946  21.071  0.00  0.00    +0.000 C 
ENDBRANCH  21  25
ENDBRANCH   1  21
BRANCH   3  26
ATOM     26  C   UNL     1       2.316   7.942  18.861  0.00  0.00    +0.000 C 
BRANCH  26  27
ATOM     27  C   UNL     1       2.041   8.812  17.636  0.00  0.00    +0.000 C 
ATOM     28  F   UNL     1       0.706   8.997  17.475  0.00  0.00    +0.000 F 
ATOM     29  F   UNL     1       2.567  10.048  17.847  0.00  0.00    +0.000 F 
ENDBRANCH  26  27
ENDBRANCH   3  26
TORSDOF 6
ENDMDL
MODEL 7
REMARK VINA RESULT:      -7.2      3.425      6.731
REMARK  Name = 
REMARK  6 active torsions:
REMARK  status: ('A' for Active; 'I' for Inactive)
REMARK    1  A    between atoms: C_2  and  C_3
REMARK    2  A    between atoms: C_3  and  C_4
REMARK    3  A    between atoms: C_6  and  C_7
REMARK    4  A    between atoms: C_7  and  C_8
REMARK    5  A    between atoms: C_12  and  C_13
REMARK    6  A    between atoms: C_20  and  C_21
REMARK                            x       y       z     vdW  Elec       q    Type
REMARK                         _______ _______ _______ _____ _____    ______ ____
ROOT
ATOM      1  C   UNL     1       1.954   8.541  18.765  0.00  0.00    +0.000 A 
ATOM      2  C   UNL     1       1.503   7.719  19.807  0.00  0.00    +0.000 A 
ATOM      3  C   UNL     1       2.092   6.478  20.066  0.00  0.00    +0.000 A 
ATOM      4  C   UNL     1       3.116   6.032  19.220  0.00  0.00    +0.000 A 
ATOM      5  C   UNL     1       3.715   6.866  18.274  0.00  0.00    +0.000 A 
ATOM      6  C   UNL     1       3.099   8.118  18.061  0.00  0.00    +0.000 A 
ENDROOT
BRANCH   5   7
ATOM      7  C   UNL     1       4.902   6.458  17.494  0.00  0.00    +0.000 A 
ATOM      8  C   UNL     1       5.970   7.371  17.320  0.00  0.00    +0.000 A 
ATOM      9  C   UNL     1       7.127   7.000  16.655  0.00  0.00    +0.000 A 
ATOM     10  N   UNL     1       7.342   5.794  16.114  0.00  0.00    +0.000 NA
ATOM     11  C   UNL     1       6.308   4.950  16.273  0.00  0.00    +0.000 A 
ATOM     12  N   UNL     1       6.306   3.677  15.802  0.00  0.00    +0.000 N 
ATOM     13  N   UNL     1       5.180   3.009  16.058  0.00  0.00    +0.000 NA
ATOM     14  C   UNL     1       4.417   3.883  16.756  0.00  0.00    +0.000 A 
ATOM     15  C   UNL     1       5.087   5.161  16.914  0.00  0.00    +0.000 A 
ATOM     16  H   UNL     1       7.055   3.218  15.299  0.00  0.00    +0.000 HD
BRANCH  14  17
ATOM     17  C   UNL     1       3.057   3.427  17.218  0.00  0.00    +0.000 C 
ATOM     18  F   UNL     1       2.102   4.395  17.112  0.00  0.00    +0.000 F 
ATOM     19  F   UNL     1       2.585   2.363  16.516  0.00  0.00    +0.000 F 
ATOM     20  F   UNL     1       3.053   3.067  18.532  0.00  0.00    +0.000 F 
ENDBRANCH  14  17
ENDBRANCH   5   7
BRANCH   1  21
ATOM     21  C   UNL     1       1.238   9.854  18.427  0.00  0.00    +0.000 C 
ATOM     22  C   UNL     1      -0.100  10.099  19.131  0.00  0.00    +0.000 C 
ATOM     23  C   UNL     1      -0.094   9.751  17.678  0.00  0.00    +0.000 C 
BRANCH  21  25
ATOM     24  N   UNL     1       2.661  11.972  17.870  0.00  0.00    +0.000 NA
ATOM     25  C   UNL     1       2.028  11.037  18.129  0.00  0.00    +0.000 C 
ENDBRANCH  21  25
ENDBRANCH   1  21
BRANCH   3  26
ATOM     26  C   UNL     1       1.636   5.627  21.228  0.00  0.00    +0.000 C 
BRANCH  26  27
ATOM     27  C   UNL     1       1.889   4.133  21.036  0.00  0.00    +0.000 C 
ATOM     28  F   UNL     1       2.354   3.579  22.185  0.00  0.00    +0.000 F 
ATOM     29  F   UNL     1       0.706   3.516  20.775  0.00  0.00    +0.000 F 
ENDBRANCH  26  27
ENDBRANCH   3  26
TORSDOF 6
ENDMDL
MODEL 8
REMARK VINA RESULT:      -7.2      3.617      6.668
REMARK  Name = 
REMARK  6 active torsions:
REMARK  status: ('A' for Active; 'I' for Inactive)
REMARK    1  A    between atoms: C_2  and  C_3
REMARK    2  A    between atoms: C_3  and  C_4
REMARK    3  A    between atoms: C_6  and  C_7
REMARK    4  A    between atoms: C_7  and  C_8
REMARK    5  A    between atoms: C_12  and  C_13
REMARK    6  A    between atoms: C_20  and  C_21
REMARK                            x       y       z     vdW  Elec       q    Type
REMARK                         _______ _______ _______ _____ _____    ______ ____
ROOT
ATOM      1  C   UNL     1       2.047   5.240  19.818  0.00  0.00    +0.000 A 
ATOM      2  C   UNL     1       2.870   5.648  18.759  0.00  0.00    +0.000 A 
ATOM      3  C   UNL     1       3.003   6.996  18.414  0.00  0.00    +0.000 A 
ATOM      4  C   UNL     1       2.246   7.945  19.113  0.00  0.00    +0.000 A 
ATOM      5  C   UNL     1       1.538   7.624  20.273  0.00  0.00    +0.000 A 
ATOM      6  C   UNL     1       1.448   6.252  20.594  0.00  0.00    +0.000 A 
ENDROOT
BRANCH   5   7
ATOM      7  C   UNL     1       0.874   8.648  21.106  0.00  0.00    +0.000 A 
ATOM      8  C   UNL     1       0.994   8.586  22.516  0.00  0.00    +0.000 A 
ATOM      9  C   UNL     1       0.443   9.566  23.324  0.00  0.00    +0.000 A 
ATOM     10  N   UNL     1      -0.247  10.623  22.878  0.00  0.00    +0.000 NA
ATOM     11  C   UNL     1      -0.367  10.651  21.540  0.00  0.00    +0.000 A 
ATOM     12  N   UNL     1      -1.029  11.629  20.871  0.00  0.00    +0.000 N 
ATOM     13  N   UNL     1      -1.039  11.466  19.547  0.00  0.00    +0.000 NA
ATOM     14  C   UNL     1      -0.322  10.337  19.338  0.00  0.00    +0.000 A 
ATOM     15  C   UNL     1       0.126   9.755  20.590  0.00  0.00    +0.000 A 
ATOM     16  H   UNL     1      -1.492  12.432  21.278  0.00  0.00    +0.000 HD
BRANCH  14  17
ATOM     17  C   UNL     1      -0.130   9.870  17.918  0.00  0.00    +0.000 C 
ATOM     18  F   UNL     1      -0.221   8.517  17.780  0.00  0.00    +0.000 F 
ATOM     19  F   UNL     1      -1.043  10.392  17.057  0.00  0.00    +0.000 F 
ATOM     20  F   UNL     1       1.102  10.194  17.433  0.00  0.00    +0.000 F 
ENDBRANCH  14  17
ENDBRANCH   5   7
BRANCH   1  21
ATOM     21  C   UNL     1       1.831   3.754  20.124  0.00  0.00    +0.000 C 
ATOM     22  C   UNL     1       1.777   3.366  21.605  0.00  0.00    +0.000 C 
ATOM     23  C   UNL     1       2.984   3.005  20.800  0.00  0.00    +0.000 C 
BRANCH  21  25
ATOM     24  N   UNL     1       0.362   2.336  18.495  0.00  0.00    +0.000 NA
ATOM     25  C   UNL     1       1.013   2.955  19.226  0.00  0.00    +0.000 C 
ENDBRANCH  21  25
ENDBRANCH   1  21
BRANCH   3  26
ATOM     26  C   UNL     1       3.939   7.428  17.309  0.00  0.00    +0.000 C 
BRANCH  26  27
ATOM     27  C   UNL     1       5.043   6.419  17.004  0.00  0.00    +0.000 C 
ATOM     28  F   UNL     1       4.937   5.971  15.727  0.00  0.00    +0.000 F 
ATOM     29  F   UNL     1       6.247   7.046  17.081  0.00  0.00    +0.000 F 
ENDBRANCH  26  27
ENDBRANCH   3  26
TORSDOF 6
ENDMDL
MODEL 9
REMARK VINA RESULT:      -7.2      1.044      1.149
REMARK  Name = 
REMARK  6 active torsions:
REMARK  status: ('A' for Active; 'I' for Inactive)
REMARK    1  A    between atoms: C_2  and  C_3
REMARK    2  A    between atoms: C_3  and  C_4
REMARK    3  A    between atoms: C_6  and  C_7
REMARK    4  A    between atoms: C_7  and  C_8
REMARK    5  A    between atoms: C_12  and  C_13
REMARK    6  A    between atoms: C_20  and  C_21
REMARK                            x       y       z     vdW  Elec       q    Type
REMARK                         _______ _______ _______ _____ _____    ______ ____
ROOT
ATOM      1  C   UNL     1       6.094   4.613  15.252  0.00  0.00    +0.000 A 
ATOM      2  C   UNL     1       6.892   5.488  16.003  0.00  0.00    +0.000 A 
ATOM      3  C   UNL     1       6.614   5.761  17.345  0.00  0.00    +0.000 A 
ATOM      4  C   UNL     1       5.474   5.188  17.925  0.00  0.00    +0.000 A 
ATOM      5  C   UNL     1       4.737   4.190  17.284  0.00  0.00    +0.000 A 
ATOM      6  C   UNL     1       5.067   3.932  15.936  0.00  0.00    +0.000 A 
ENDROOT
BRANCH   5   7
ATOM      7  C   UNL     1       3.636   3.465  17.952  0.00  0.00    +0.000 A 
ATOM      8  C   UNL     1       3.548   2.057  17.823  0.00  0.00    +0.000 A 
ATOM      9  C   UNL     1       2.571   1.338  18.490  0.00  0.00    +0.000 A 
ATOM     10  N   UNL     1       1.635   1.876  19.282  0.00  0.00    +0.000 NA
ATOM     11  C   UNL     1       1.723   3.214  19.373  0.00  0.00    +0.000 A 
ATOM     12  N   UNL     1       0.876   3.967  20.118  0.00  0.00    +0.000 N 
ATOM     13  N   UNL     1       1.130   5.276  20.067  0.00  0.00    +0.000 NA
ATOM     14  C   UNL     1       2.219   5.380  19.269  0.00  0.00    +0.000 A 
ATOM     15  C   UNL     1       2.640   4.080  18.777  0.00  0.00    +0.000 A 
ATOM     16  H   UNL     1       0.105   3.631  20.681  0.00  0.00    +0.000 HD
BRANCH  14  17
ATOM     17  C   UNL     1       2.781   6.754  19.010  0.00  0.00    +0.000 C 
ATOM     18  F   UNL     1       2.904   7.042  17.683  0.00  0.00    +0.000 F 
ATOM     19  F   UNL     1       2.020   7.749  19.536  0.00  0.00    +0.000 F 
ATOM     20  F   UNL     1       4.035   6.901  19.523  0.00  0.00    +0.000 F 
ENDBRANCH  14  17
ENDBRANCH   5   7
BRANCH   1  21
ATOM     21  C   UNL     1       6.348   4.397  13.756  0.00  0.00    +0.000 C 
ATOM     22  C   UNL     1       5.126   4.045  12.902  0.00  0.00    +0.000 C 
ATOM     23  C   UNL     1       6.133   2.983  13.208  0.00  0.00    +0.000 C 
BRANCH  21  25
ATOM     24  N   UNL     1       8.229   5.782  12.586  0.00  0.00    +0.000 NA
ATOM     25  C   UNL     1       7.388   5.167  13.094  0.00  0.00    +0.000 C 
ENDBRANCH  21  25
ENDBRANCH   1  21
BRANCH   3  26
ATOM     26  C   UNL     1       7.515   6.659  18.160  0.00  0.00    +0.000 C 
BRANCH  26  27
ATOM     27  C   UNL     1       8.261   5.935  19.278  0.00  0.00    +0.000 C 
ATOM     28  F   UNL     1       7.441   5.726  20.339  0.00  0.00    +0.000 F 
ATOM     29  F   UNL     1       8.625   4.701  18.838  0.00  0.00    +0.000 F 
ENDBRANCH  26  27
ENDBRANCH   3  26
TORSDOF 6
ENDMDL
