MODEL 1
REMARK VINA RESULT:      -6.6      0.000      0.000
REMARK  Name = 
REMARK  4 active torsions:
REMARK  status: ('A' for Active; 'I' for Inactive)
REMARK    1  A    between atoms: C_1  and  C_2
REMARK    2  A    between atoms: N_4  and  C_5
REMARK    3  A    between atoms: C_6  and  C_7
REMARK    4  A    between atoms: C_12  and  C_13
REMARK                            x       y       z     vdW  Elec       q    Type
REMARK                         _______ _______ _______ _____ _____    ______ ____
ROOT
ATOM      1  C   UNL     1       5.066   6.194  17.696  0.00  0.00    +0.000 C 
ATOM      2  C   UNL     1       5.584   4.977  17.390  0.00  0.00    +0.000 C 
ATOM      3  C   UNL     1       6.200   4.223  18.581  0.00  0.00    +0.000 C 
ATOM      4  C   UNL     1       4.698   4.057  16.569  0.00  0.00    +0.000 C 
ATOM      5  O   UNL     1       5.124   3.452  15.605  0.00  0.00    +0.000 OA
ATOM      6  C   UNL     1       3.381   3.980  17.161  0.00  0.00    +0.000 A 
ATOM      7  N   UNL     1       2.528   2.906  17.207  0.00  0.00    +0.000 NA
ATOM      8  C   UNL     1       1.685   3.162  18.193  0.00  0.00    +0.000 A 
ATOM      9  C   UNL     1       0.736   2.179  18.777  0.00  0.00    +0.000 C 
ATOM     10  N   UNL     1       1.898   4.427  18.694  0.00  0.00    +0.000 N 
ATOM     11  C   UNL     1       2.965   4.944  18.041  0.00  0.00    +0.000 A 
ATOM     12  C   UNL     1       3.725   6.091  18.433  0.00  0.00    +0.000 C 
ATOM     13  N   UNL     1       3.341   6.782  19.447  0.00  0.00    +0.000 NA
ATOM     14  C   UNL     1       2.038   6.471  20.097  0.00  0.00    +0.000 C 
ATOM     15  C   UNL     1       1.465   5.046  19.920  0.00  0.00    +0.000 C 
ENDROOT
BRANCH   1  19
ATOM     16  C   UNL     1       7.928   8.586  17.741  0.00  0.00    +0.000 C 
ATOM     17  C   UNL     1       7.165   7.413  17.192  0.00  0.00    +0.000 C 
ATOM     18  O   UNL     1       7.621   6.659  16.347  0.00  0.00    +0.000 OA
ATOM     19  N   UNL     1       5.957   7.238  17.855  0.00  0.00    +0.000 N 
ATOM     20  H   UNL     1       5.883   7.744  18.726  0.00  0.00    +0.000 HD
ENDBRANCH   1  19
TORSDOF 1
ENDMDL
MODEL 2
REMARK VINA RESULT:      -6.4      1.470      1.560
REMARK  Name = 
REMARK  4 active torsions:
REMARK  status: ('A' for Active; 'I' for Inactive)
REMARK    1  A    between atoms: C_1  and  C_2
REMARK    2  A    between atoms: N_4  and  C_5
REMARK    3  A    between atoms: C_6  and  C_7
REMARK    4  A    between atoms: C_12  and  C_13
REMARK                            x       y       z     vdW  Elec       q    Type
REMARK                         _______ _______ _______ _____ _____    ______ ____
ROOT
ATOM      1  C   UNL     1       6.085   6.290  16.880  0.00  0.00    +0.000 C 
ATOM      2  C   UNL     1       6.740   5.173  16.477  0.00  0.00    +0.000 C 
ATOM      3  C   UNL     1       7.623   4.520  17.555  0.00  0.00    +0.000 C 
ATOM      4  C   UNL     1       5.906   4.127  15.758  0.00  0.00    +0.000 C 
ATOM      5  O   UNL     1       6.287   3.601  14.731  0.00  0.00    +0.000 OA
ATOM      6  C   UNL     1       4.711   3.840  16.519  0.00  0.00    +0.000 A 
ATOM      7  N   UNL     1       4.050   2.645  16.650  0.00  0.00    +0.000 NA
ATOM      8  C   UNL     1       3.319   2.759  17.746  0.00  0.00    +0.000 A 
ATOM      9  C   UNL     1       2.624   1.636  18.426  0.00  0.00    +0.000 C 
ATOM     10  N   UNL     1       3.398   4.040  18.247  0.00  0.00    +0.000 N 
ATOM     11  C   UNL     1       4.272   4.723  17.470  0.00  0.00    +0.000 A 
ATOM     12  C   UNL     1       4.889   5.974  17.786  0.00  0.00    +0.000 C 
ATOM     13  N   UNL     1       4.543   6.591  18.860  0.00  0.00    +0.000 NA
ATOM     14  C   UNL     1       3.406   6.076  19.669  0.00  0.00    +0.000 C 
ATOM     15  C   UNL     1       3.043   4.578  19.535  0.00  0.00    +0.000 C 
ENDROOT
BRANCH   1  19
ATOM     16  C   UNL     1       8.249   9.211  17.721  0.00  0.00    +0.000 C 
ATOM     17  C   UNL     1       7.783   7.791  17.886  0.00  0.00    +0.000 C 
ATOM     18  O   UNL     1       8.144   7.075  18.807  0.00  0.00    +0.000 OA
ATOM     19  N   UNL     1       6.816   7.462  16.945  0.00  0.00    +0.000 N 
ATOM     20  H   UNL     1       6.409   8.255  16.471  0.00  0.00    +0.000 HD
ENDBRANCH   1  19
TORSDOF 1
ENDMDL
MODEL 3
REMARK VINA RESULT:      -6.3      2.238      3.141
REMARK  Name = 
REMARK  4 active torsions:
REMARK  status: ('A' for Active; 'I' for Inactive)
REMARK    1  A    between atoms: C_1  and  C_2
REMARK    2  A    between atoms: N_4  and  C_5
REMARK    3  A    between atoms: C_6  and  C_7
REMARK    4  A    between atoms: C_12  and  C_13
REMARK                            x       y       z     vdW  Elec       q    Type
REMARK                         _______ _______ _______ _____ _____    ______ ____
ROOT
ATOM      1  C   UNL     1       5.428   5.042  17.255  0.00  0.00    +0.000 C 
ATOM      2  C   UNL     1       5.811   4.497  18.437  0.00  0.00    +0.000 C 
ATOM      3  C   UNL     1       6.641   5.430  19.336  0.00  0.00    +0.000 C 
ATOM      4  C   UNL     1       4.726   3.801  19.239  0.00  0.00    +0.000 C 
ATOM      5  O   UNL     1       4.903   2.706  19.737  0.00  0.00    +0.000 OA
ATOM      6  C   UNL     1       3.571   4.661  19.360  0.00  0.00    +0.000 A 
ATOM      7  N   UNL     1       2.702   4.780  20.415  0.00  0.00    +0.000 NA
ATOM      8  C   UNL     1       2.110   5.952  20.260  0.00  0.00    +0.000 A 
ATOM      9  C   UNL     1       1.271   6.623  21.286  0.00  0.00    +0.000 C 
ATOM     10  N   UNL     1       2.484   6.527  19.066  0.00  0.00    +0.000 N 
ATOM     11  C   UNL     1       3.402   5.711  18.496  0.00  0.00    +0.000 A 
ATOM     12  C   UNL     1       4.279   6.044  17.417  0.00  0.00    +0.000 C 
ATOM     13  N   UNL     1       4.159   7.188  16.841  0.00  0.00    +0.000 NA
ATOM     14  C   UNL     1       3.020   8.076  17.200  0.00  0.00    +0.000 C 
ATOM     15  C   UNL     1       2.359   7.879  18.584  0.00  0.00    +0.000 C 
ENDROOT
BRANCH   1  19
ATOM     16  C   UNL     1       7.504   4.842  14.161  0.00  0.00    +0.000 C 
ATOM     17  C   UNL     1       6.203   4.788  14.913  0.00  0.00    +0.000 C 
ATOM     18  O   UNL     1       5.160   4.400  14.411  0.00  0.00    +0.000 OA
ATOM     19  N   UNL     1       6.378   5.109  16.253  0.00  0.00    +0.000 N 
ATOM     20  H   UNL     1       7.338   5.092  16.564  0.00  0.00    +0.000 HD
ENDBRANCH   1  19
TORSDOF 1
ENDMDL
MODEL 4
REMARK VINA RESULT:      -6.2      2.522      5.248
REMARK  Name = 
REMARK  4 active torsions:
REMARK  status: ('A' for Active; 'I' for Inactive)
REMARK    1  A    between atoms: C_1  and  C_2
REMARK    2  A    between atoms: N_4  and  C_5
REMARK    3  A    between atoms: C_6  and  C_7
REMARK    4  A    between atoms: C_12  and  C_13
REMARK                            x       y       z     vdW  Elec       q    Type
REMARK                         _______ _______ _______ _____ _____    ______ ____
ROOT
ATOM      1  C   UNL     1       3.784   3.866  19.157  0.00  0.00    +0.000 C 
ATOM      2  C   UNL     1       2.938   4.126  18.128  0.00  0.00    +0.000 C 
ATOM      3  C   UNL     1       2.513   5.599  18.002  0.00  0.00    +0.000 C 
ATOM      4  C   UNL     1       3.332   3.561  16.775  0.00  0.00    +0.000 C 
ATOM      5  O   UNL     1       2.533   2.979  16.068  0.00  0.00    +0.000 OA
ATOM      6  C   UNL     1       4.705   3.900  16.478  0.00  0.00    +0.000 A 
ATOM      7  N   UNL     1       5.269   4.189  15.261  0.00  0.00    +0.000 NA
ATOM      8  C   UNL     1       6.384   4.848  15.530  0.00  0.00    +0.000 A 
ATOM      9  C   UNL     1       7.204   5.577  14.529  0.00  0.00    +0.000 C 
ATOM     10  N   UNL     1       6.611   4.876  16.889  0.00  0.00    +0.000 N 
ATOM     11  C   UNL     1       5.555   4.275  17.486  0.00  0.00    +0.000 A 
ATOM     12  C   UNL     1       5.214   4.342  18.873  0.00  0.00    +0.000 C 
ATOM     13  N   UNL     1       6.007   4.946  19.685  0.00  0.00    +0.000 NA
ATOM     14  C   UNL     1       7.330   5.426  19.201  0.00  0.00    +0.000 C 
ATOM     15  C   UNL     1       7.491   5.690  17.686  0.00  0.00    +0.000 C 
ENDROOT
BRANCH   1  19
ATOM     16  C   UNL     1       1.819   3.185  22.254  0.00  0.00    +0.000 C 
ATOM     17  C   UNL     1       2.285   2.867  20.860  0.00  0.00    +0.000 C 
ATOM     18  O   UNL     1       1.797   1.977  20.182  0.00  0.00    +0.000 OA
ATOM     19  N   UNL     1       3.234   3.782  20.421  0.00  0.00    +0.000 N 
ATOM     20  H   UNL     1       3.287   4.625  20.975  0.00  0.00    +0.000 HD
ENDBRANCH   1  19
TORSDOF 1
ENDMDL
MODEL 5
REMARK VINA RESULT:      -6.2      3.068      5.078
REMARK  Name = 
REMARK  4 active torsions:
REMARK  status: ('A' for Active; 'I' for Inactive)
REMARK    1  A    between atoms: C_1  and  C_2
REMARK    2  A    between atoms: N_4  and  C_5
REMARK    3  A    between atoms: C_6  and  C_7
REMARK    4  A    between atoms: C_12  and  C_13
REMARK                            x       y       z     vdW  Elec       q    Type
REMARK                         _______ _______ _______ _____ _____    ______ ____
ROOT
ATOM      1  C   UNL     1       3.910   1.983  19.100  0.00  0.00    +0.000 C 
ATOM      2  C   UNL     1       2.630   2.118  19.529  0.00  0.00    +0.000 C 
ATOM      3  C   UNL     1       2.487   2.622  20.976  0.00  0.00    +0.000 C 
ATOM      4  C   UNL     1       1.686   2.865  18.603  0.00  0.00    +0.000 C 
ATOM      5  O   UNL     1       0.576   2.441  18.345  0.00  0.00    +0.000 OA
ATOM      6  C   UNL     1       2.282   4.116  18.193  0.00  0.00    +0.000 A 
ATOM      7  N   UNL     1       1.663   5.316  17.948  0.00  0.00    +0.000 NA
ATOM      8  C   UNL     1       2.611   6.233  18.042  0.00  0.00    +0.000 A 
ATOM      9  C   UNL     1       2.374   7.698  18.097  0.00  0.00    +0.000 C 
ATOM     10  N   UNL     1       3.841   5.638  18.214  0.00  0.00    +0.000 N 
ATOM     11  C   UNL     1       3.634   4.304  18.305  0.00  0.00    +0.000 A 
ATOM     12  C   UNL     1       4.568   3.331  18.784  0.00  0.00    +0.000 C 
ATOM     13  N   UNL     1       5.762   3.702  19.083  0.00  0.00    +0.000 NA
ATOM     14  C   UNL     1       6.196   5.094  18.784  0.00  0.00    +0.000 C 
ATOM     15  C   UNL     1       5.103   6.179  18.652  0.00  0.00    +0.000 C 
ENDROOT
BRANCH   1  19
ATOM     16  C   UNL     1       6.054  -0.585  20.753  0.00  0.00    +0.000 C 
ATOM     17  C   UNL     1       5.305   0.718  20.714  0.00  0.00    +0.000 C 
ATOM     18  O   UNL     1       5.406   1.570  21.582  0.00  0.00    +0.000 OA
ATOM     19  N   UNL     1       4.603   0.865  19.524  0.00  0.00    +0.000 N 
ATOM     20  H   UNL     1       4.881   0.223  18.795  0.00  0.00    +0.000 HD
ENDBRANCH   1  19
TORSDOF 1
ENDMDL
MODEL 6
REMARK VINA RESULT:      -6.2      2.120      3.698
REMARK  Name = 
REMARK  4 active torsions:
REMARK  status: ('A' for Active; 'I' for Inactive)
REMARK    1  A    between atoms: C_1  and  C_2
REMARK    2  A    between atoms: N_4  and  C_5
REMARK    3  A    between atoms: C_6  and  C_7
REMARK    4  A    between atoms: C_12  and  C_13
REMARK                            x       y       z     vdW  Elec       q    Type
REMARK                         _______ _______ _______ _____ _____    ______ ____
ROOT
ATOM      1  C   UNL     1       5.509   4.363  16.040  0.00  0.00    +0.000 C 
ATOM      2  C   UNL     1       5.774   5.636  16.427  0.00  0.00    +0.000 C 
ATOM      3  C   UNL     1       4.770   6.685  15.920  0.00  0.00    +0.000 C 
ATOM      4  C   UNL     1       6.071   5.842  17.902  0.00  0.00    +0.000 C 
ATOM      5  O   UNL     1       7.011   6.516  18.277  0.00  0.00    +0.000 OA
ATOM      6  C   UNL     1       5.050   5.208  18.705  0.00  0.00    +0.000 A 
ATOM      7  N   UNL     1       4.534   5.618  19.908  0.00  0.00    +0.000 NA
ATOM      8  C   UNL     1       3.370   5.001  20.026  0.00  0.00    +0.000 A 
ATOM      9  C   UNL     1       2.338   5.319  21.047  0.00  0.00    +0.000 C 
ATOM     10  N   UNL     1       3.189   4.111  18.990  0.00  0.00    +0.000 N 
ATOM     11  C   UNL     1       4.250   4.238  18.160  0.00  0.00    +0.000 A 
ATOM     12  C   UNL     1       4.342   3.745  16.821  0.00  0.00    +0.000 C 
ATOM     13  N   UNL     1       3.385   3.029  16.348  0.00  0.00    +0.000 NA
ATOM     14  C   UNL     1       2.278   2.598  17.245  0.00  0.00    +0.000 C 
ATOM     15  C   UNL     1       2.007   3.440  18.513  0.00  0.00    +0.000 C 
ENDROOT
BRANCH   1  19
ATOM     16  C   UNL     1       6.857   4.003  12.580  0.00  0.00    +0.000 C 
ATOM     17  C   UNL     1       6.903   4.509  13.995  0.00  0.00    +0.000 C 
ATOM     18  O   UNL     1       7.713   5.337  14.379  0.00  0.00    +0.000 OA
ATOM     19  N   UNL     1       5.845   4.013  14.746  0.00  0.00    +0.000 N 
ATOM     20  H   UNL     1       5.101   3.605  14.199  0.00  0.00    +0.000 HD
ENDBRANCH   1  19
TORSDOF 1
ENDMDL
MODEL 7
REMARK VINA RESULT:      -6.1      2.202      3.457
REMARK  Name = 
REMARK  4 active torsions:
REMARK  status: ('A' for Active; 'I' for Inactive)
REMARK    1  A    between atoms: C_1  and  C_2
REMARK    2  A    between atoms: N_4  and  C_5
REMARK    3  A    between atoms: C_6  and  C_7
REMARK    4  A    between atoms: C_12  and  C_13
REMARK                            x       y       z     vdW  Elec       q    Type
REMARK                         _______ _______ _______ _____ _____    ______ ____
ROOT
ATOM      1  C   UNL     1       5.129   4.214  16.874  0.00  0.00    +0.000 C 
ATOM      2  C   UNL     1       5.374   5.255  17.709  0.00  0.00    +0.000 C 
ATOM      3  C   UNL     1       4.387   6.428  17.582  0.00  0.00    +0.000 C 
ATOM      4  C   UNL     1       5.609   4.905  19.168  0.00  0.00    +0.000 C 
ATOM      5  O   UNL     1       6.530   5.384  19.800  0.00  0.00    +0.000 OA
ATOM      6  C   UNL     1       4.559   4.032  19.643  0.00  0.00    +0.000 A 
ATOM      7  N   UNL     1       3.993   3.980  20.891  0.00  0.00    +0.000 NA
ATOM      8  C   UNL     1       2.827   3.375  20.730  0.00  0.00    +0.000 A 
ATOM      9  C   UNL     1       1.754   3.310  21.755  0.00  0.00    +0.000 C 
ATOM     10  N   UNL     1       2.692   2.927  19.434  0.00  0.00    +0.000 N 
ATOM     11  C   UNL     1       3.786   3.338  18.750  0.00  0.00    +0.000 A 
ATOM     12  C   UNL     1       3.935   3.367  17.328  0.00  0.00    +0.000 C 
ATOM     13  N   UNL     1       3.000   2.883  16.589  0.00  0.00    +0.000 NA
ATOM     14  C   UNL     1       1.860   2.167  17.222  0.00  0.00    +0.000 C 
ATOM     15  C   UNL     1       1.534   2.490  18.699  0.00  0.00    +0.000 C 
ENDROOT
BRANCH   1  19
ATOM     16  C   UNL     1       6.825   4.805  13.604  0.00  0.00    +0.000 C 
ATOM     17  C   UNL     1       6.814   4.536  15.083  0.00  0.00    +0.000 C 
ATOM     18  O   UNL     1       7.818   4.583  15.776  0.00  0.00    +0.000 OA
ATOM     19  N   UNL     1       5.520   4.358  15.556  0.00  0.00    +0.000 N 
ATOM     20  H   UNL     1       4.798   4.663  14.920  0.00  0.00    +0.000 HD
ENDBRANCH   1  19
TORSDOF 1
ENDMDL
MODEL 8
REMARK VINA RESULT:      -6.1      2.121      2.732
REMARK  Name = 
REMARK  4 active torsions:
REMARK  status: ('A' for Active; 'I' for Inactive)
REMARK    1  A    between atoms: C_1  and  C_2
REMARK    2  A    between atoms: N_4  and  C_5
REMARK    3  A    between atoms: C_6  and  C_7
REMARK    4  A    between atoms: C_12  and  C_13
REMARK                            x       y       z     vdW  Elec       q    Type
REMARK                         _______ _______ _______ _____ _____    ______ ____
ROOT
ATOM      1  C   UNL     1       5.176   5.110  16.227  0.00  0.00    +0.000 C 
ATOM      2  C   UNL     1       5.480   4.063  17.035  0.00  0.00    +0.000 C 
ATOM      3  C   UNL     1       6.437   4.399  18.191  0.00  0.00    +0.000 C 
ATOM      4  C   UNL     1       4.307   3.234  17.530  0.00  0.00    +0.000 C 
ATOM      5  O   UNL     1       4.325   2.019  17.499  0.00  0.00    +0.000 OA
ATOM      6  C   UNL     1       3.288   4.098  18.082  0.00  0.00    +0.000 A 
ATOM      7  N   UNL     1       2.449   3.859  19.140  0.00  0.00    +0.000 NA
ATOM      8  C   UNL     1       2.031   5.049  19.540  0.00  0.00    +0.000 A 
ATOM      9  C   UNL     1       1.299   5.312  20.806  0.00  0.00    +0.000 C 
ATOM     10  N   UNL     1       2.481   6.031  18.685  0.00  0.00    +0.000 N 
ATOM     11  C   UNL     1       3.271   5.431  17.763  0.00  0.00    +0.000 A 
ATOM     12  C   UNL     1       4.184   6.082  16.877  0.00  0.00    +0.000 C 
ATOM     13  N   UNL     1       4.229   7.367  16.855  0.00  0.00    +0.000 NA
ATOM     14  C   UNL     1       3.231   8.151  17.632  0.00  0.00    +0.000 C 
ATOM     15  C   UNL     1       2.551   7.461  18.838  0.00  0.00    +0.000 C 
ENDROOT
BRANCH   1  19
ATOM     16  C   UNL     1       7.706   5.408  13.502  0.00  0.00    +0.000 C 
ATOM     17  C   UNL     1       6.558   4.736  14.202  0.00  0.00    +0.000 C 
ATOM     18  O   UNL     1       6.150   3.626  13.899  0.00  0.00    +0.000 OA
ATOM     19  N   UNL     1       6.123   5.481  15.292  0.00  0.00    +0.000 N 
ATOM     20  H   UNL     1       6.766   6.201  15.587  0.00  0.00    +0.000 HD
ENDBRANCH   1  19
TORSDOF 1
ENDMDL
MODEL 9
REMARK VINA RESULT:      -6.0      2.475      2.991
REMARK  Name = 
REMARK  4 active torsions:
REMARK  status: ('A' for Active; 'I' for Inactive)
REMARK    1  A    between atoms: C_1  and  C_2
REMARK    2  A    between atoms: N_4  and  C_5
REMARK    3  A    between atoms: C_6  and  C_7
REMARK    4  A    between atoms: C_12  and  C_13
REMARK                            x       y       z     vdW  Elec       q    Type
REMARK                         _______ _______ _______ _____ _____    ______ ____
ROOT
ATOM      1  C   UNL     1       3.411   6.955  17.820  0.00  0.00    +0.000 C 
ATOM      2  C   UNL     1       4.601   6.561  17.302  0.00  0.00    +0.000 C 
ATOM      3  C   UNL     1       5.764   6.536  18.308  0.00  0.00    +0.000 C 
ATOM      4  C   UNL     1       4.584   5.293  16.466  0.00  0.00    +0.000 C 
ATOM      5  O   UNL     1       5.145   5.229  15.390  0.00  0.00    +0.000 OA
ATOM      6  C   UNL     1       3.901   4.239  17.181  0.00  0.00    +0.000 A 
ATOM      7  N   UNL     1       4.168   2.893  17.176  0.00  0.00    +0.000 NA
ATOM      8  C   UNL     1       3.606   2.413  18.273  0.00  0.00    +0.000 A 
ATOM      9  C   UNL     1       3.835   1.051  18.819  0.00  0.00    +0.000 C 
ATOM     10  N   UNL     1       2.880   3.394  18.911  0.00  0.00    +0.000 N 
ATOM     11  C   UNL     1       3.062   4.544  18.221  0.00  0.00    +0.000 A 
ATOM     12  C   UNL     1       2.756   5.864  18.677  0.00  0.00    +0.000 C 
ATOM     13  N   UNL     1       2.166   6.016  19.809  0.00  0.00    +0.000 NA
ATOM     14  C   UNL     1       1.676   4.821  20.549  0.00  0.00    +0.000 C 
ATOM     15  C   UNL     1       2.347   3.461  20.248  0.00  0.00    +0.000 C 
ENDROOT
BRANCH   1  19
ATOM     16  C   UNL     1       2.271  10.502  18.021  0.00  0.00    +0.000 C 
ATOM     17  C   UNL     1       2.045   9.024  17.860  0.00  0.00    +0.000 C 
ATOM     18  O   UNL     1       0.973   8.548  17.524  0.00  0.00    +0.000 OA
ATOM     19  N   UNL     1       3.226   8.310  18.019  0.00  0.00    +0.000 N 
ATOM     20  H   UNL     1       4.063   8.873  17.976  0.00  0.00    +0.000 HD
ENDBRANCH   1  19
TORSDOF 1
ENDMDL
