MODEL 1
REMARK VINA RESULT:      -6.4      0.000      0.000
REMARK  Name = 
REMARK  9 active torsions:
REMARK  status: ('A' for Active; 'I' for Inactive)
REMARK    1  A    between atoms: C_1  and  C_2
REMARK    2  A    between atoms: C_2  and  C_13
REMARK    3  A    between atoms: C_3  and  C_4
REMARK    4  A    between atoms: C_4  and  N_5
REMARK    5  A    between atoms: C_8  and  C_9
REMARK    6  A    between atoms: C_9  and  O_11
REMARK    7  A    between atoms: C_13  and  C_14
REMARK    8  A    between atoms: C_14  and  C_15
REMARK    9  A    between atoms: C_15  and  O_17
REMARK                            x       y       z     vdW  Elec       q    Type
REMARK                         _______ _______ _______ _____ _____    ______ ____
ROOT
ATOM      1  C   UNL     1       4.300   4.024  16.355  0.00  0.00    +0.000 C 
ENDROOT
BRANCH   1   2
ATOM      2  N   UNL     1       5.333   4.945  16.801  0.00  0.00    +0.000 N 
ATOM      3  C   UNL     1       5.737   6.082  16.171  0.00  0.00    +0.000 A 
ATOM      4  N   UNL     1       6.698   6.649  16.855  0.00  0.00    +0.000 NA
ATOM      5  C   UNL     1       6.872   5.808  17.934  0.00  0.00    +0.000 A 
ATOM      6  N   UNL     1       6.059   4.724  17.923  0.00  0.00    +0.000 NA
BRANCH   5   7
ATOM      7  C   UNL     1       7.841   6.023  19.024  0.00  0.00    +0.000 C 
ATOM      8  O   UNL     1       8.085   5.232  19.926  0.00  0.00    +0.000 OA
BRANCH   7   9
ATOM      9  O   UNL     1       8.467   7.234  18.931  0.00  0.00    +0.000 OA
ATOM     10  H   UNL     1       7.976   7.851  19.522  0.00  0.00    +0.000 HD
ENDBRANCH   7   9
ENDBRANCH   5   7
ENDBRANCH   1   2
BRANCH   1  13
ATOM     11  C   UNL     1       1.508   4.439  17.671  0.00  0.00    +0.000 C 
ATOM     12  C   UNL     1       2.493   3.365  18.053  0.00  0.00    +0.000 C 
ATOM     13  C   UNL     1       3.708   3.221  17.483  0.00  0.00    +0.000 C 
BRANCH  12  14
ATOM     14  C   UNL     1       2.081   2.481  19.223  0.00  0.00    +0.000 C 
BRANCH  14  15
ATOM     15  C   UNL     1       1.207   3.199  20.256  0.00  0.00    +0.000 C 
BRANCH  15  16
ATOM     16  C   UNL     1       2.027   3.714  21.413  0.00  0.00    +0.000 C 
ATOM     17  O   UNL     1       2.355   3.065  22.392  0.00  0.00    +0.000 OA
BRANCH  16  18
ATOM     18  O   UNL     1       2.383   5.010  21.253  0.00  0.00    +0.000 OA
ATOM     19  H   UNL     1       3.337   5.179  21.365  0.00  0.00    +0.000 HD
ENDBRANCH  16  18
ENDBRANCH  15  16
ENDBRANCH  14  15
ENDBRANCH  12  14
ENDBRANCH   1  13
TORSDOF 8
ENDMDL
MODEL 2
REMARK VINA RESULT:      -6.4      2.425      2.819
REMARK  Name = 
REMARK  9 active torsions:
REMARK  status: ('A' for Active; 'I' for Inactive)
REMARK    1  A    between atoms: C_1  and  C_2
REMARK    2  A    between atoms: C_2  and  C_13
REMARK    3  A    between atoms: C_3  and  C_4
REMARK    4  A    between atoms: C_4  and  N_5
REMARK    5  A    between atoms: C_8  and  C_9
REMARK    6  A    between atoms: C_9  and  O_11
REMARK    7  A    between atoms: C_13  and  C_14
REMARK    8  A    between atoms: C_14  and  C_15
REMARK    9  A    between atoms: C_15  and  O_17
REMARK                            x       y       z     vdW  Elec       q    Type
REMARK                         _______ _______ _______ _____ _____    ______ ____
ROOT
ATOM      1  C   UNL     1       5.644   4.848  19.150  0.00  0.00    +0.000 C 
ENDROOT
BRANCH   1   2
ATOM      2  N   UNL     1       6.267   5.245  17.897  0.00  0.00    +0.000 N 
ATOM      3  C   UNL     1       6.993   6.374  17.671  0.00  0.00    +0.000 A 
ATOM      4  N   UNL     1       7.383   6.406  16.422  0.00  0.00    +0.000 NA
ATOM      5  C   UNL     1       6.860   5.248  15.886  0.00  0.00    +0.000 A 
ATOM      6  N   UNL     1       6.139   4.512  16.766  0.00  0.00    +0.000 NA
BRANCH   5   7
ATOM      7  C   UNL     1       7.040   4.808  14.491  0.00  0.00    +0.000 C 
ATOM      8  O   UNL     1       6.422   3.903  13.944  0.00  0.00    +0.000 OA
BRANCH   7   9
ATOM      9  O   UNL     1       7.997   5.532  13.837  0.00  0.00    +0.000 OA
ATOM     10  H   UNL     1       8.757   5.621  14.459  0.00  0.00    +0.000 HD
ENDBRANCH   7   9
ENDBRANCH   5   7
ENDBRANCH   1   2
BRANCH   1  13
ATOM     11  C   UNL     1       2.768   5.662  18.276  0.00  0.00    +0.000 C 
ATOM     12  C   UNL     1       3.222   4.252  18.549  0.00  0.00    +0.000 C 
ATOM     13  C   UNL     1       4.470   3.927  18.951  0.00  0.00    +0.000 C 
BRANCH  12  14
ATOM     14  C   UNL     1       2.143   3.182  18.446  0.00  0.00    +0.000 C 
BRANCH  14  15
ATOM     15  C   UNL     1       2.102   2.234  19.647  0.00  0.00    +0.000 C 
BRANCH  15  16
ATOM     16  C   UNL     1       1.393   2.860  20.824  0.00  0.00    +0.000 C 
ATOM     17  O   UNL     1       1.666   2.669  21.997  0.00  0.00    +0.000 OA
BRANCH  16  18
ATOM     18  O   UNL     1       0.394   3.688  20.439  0.00  0.00    +0.000 OA
ATOM     19  H   UNL     1      -0.149   3.344  19.705  0.00  0.00    +0.000 HD
ENDBRANCH  16  18
ENDBRANCH  15  16
ENDBRANCH  14  15
ENDBRANCH  12  14
ENDBRANCH   1  13
TORSDOF 8
ENDMDL
MODEL 3
REMARK VINA RESULT:      -6.4      2.501      5.499
REMARK  Name = 
REMARK  9 active torsions:
REMARK  status: ('A' for Active; 'I' for Inactive)
REMARK    1  A    between atoms: C_1  and  C_2
REMARK    2  A    between atoms: C_2  and  C_13
REMARK    3  A    between atoms: C_3  and  C_4
REMARK    4  A    between atoms: C_4  and  N_5
REMARK    5  A    between atoms: C_8  and  C_9
REMARK    6  A    between atoms: C_9  and  O_11
REMARK    7  A    between atoms: C_13  and  C_14
REMARK    8  A    between atoms: C_14  and  C_15
REMARK    9  A    between atoms: C_15  and  O_17
REMARK                            x       y       z     vdW  Elec       q    Type
REMARK                         _______ _______ _______ _____ _____    ______ ____
ROOT
ATOM      1  C   UNL     1       3.009   6.009  17.755  0.00  0.00    +0.000 C 
ENDROOT
BRANCH   1   2
ATOM      2  N   UNL     1       2.970   4.598  18.105  0.00  0.00    +0.000 N 
ATOM      3  C   UNL     1       1.933   3.739  17.910  0.00  0.00    +0.000 A 
ATOM      4  N   UNL     1       2.250   2.553  18.363  0.00  0.00    +0.000 NA
ATOM      5  C   UNL     1       3.529   2.720  18.852  0.00  0.00    +0.000 A 
ATOM      6  N   UNL     1       4.002   3.984  18.732  0.00  0.00    +0.000 NA
BRANCH   5   7
ATOM      7  C   UNL     1       4.346   1.653  19.458  0.00  0.00    +0.000 C 
ATOM      8  O   UNL     1       4.893   1.711  20.552  0.00  0.00    +0.000 OA
BRANCH   7   9
ATOM      9  O   UNL     1       4.441   0.551  18.656  0.00  0.00    +0.000 OA
ATOM     10  H   UNL     1       5.398   0.326  18.597  0.00  0.00    +0.000 HD
ENDBRANCH   7   9
ENDBRANCH   5   7
ENDBRANCH   1   2
BRANCH   1  13
ATOM     11  C   UNL     1       5.189   5.984  15.531  0.00  0.00    +0.000 C 
ATOM     12  C   UNL     1       5.345   6.618  16.889  0.00  0.00    +0.000 C 
ATOM     13  C   UNL     1       4.393   6.594  17.845  0.00  0.00    +0.000 C 
BRANCH  12  14
ATOM     14  C   UNL     1       6.713   7.220  17.178  0.00  0.00    +0.000 C 
BRANCH  14  15
ATOM     15  C   UNL     1       7.569   6.373  18.123  0.00  0.00    +0.000 C 
BRANCH  15  16
ATOM     16  C   UNL     1       7.541   4.913  17.738  0.00  0.00    +0.000 C 
ATOM     17  O   UNL     1       8.103   4.426  16.772  0.00  0.00    +0.000 OA
BRANCH  16  18
ATOM     18  O   UNL     1       6.812   4.169  18.602  0.00  0.00    +0.000 OA
ATOM     19  H   UNL     1       7.006   3.213  18.567  0.00  0.00    +0.000 HD
ENDBRANCH  16  18
ENDBRANCH  15  16
ENDBRANCH  14  15
ENDBRANCH  12  14
ENDBRANCH   1  13
TORSDOF 8
ENDMDL
MODEL 4
REMARK VINA RESULT:      -6.4      2.226      2.496
REMARK  Name = 
REMARK  9 active torsions:
REMARK  status: ('A' for Active; 'I' for Inactive)
REMARK    1  A    between atoms: C_1  and  C_2
REMARK    2  A    between atoms: C_2  and  C_13
REMARK    3  A    between atoms: C_3  and  C_4
REMARK    4  A    between atoms: C_4  and  N_5
REMARK    5  A    between atoms: C_8  and  C_9
REMARK    6  A    between atoms: C_9  and  O_11
REMARK    7  A    between atoms: C_13  and  C_14
REMARK    8  A    between atoms: C_14  and  C_15
REMARK    9  A    between atoms: C_15  and  O_17
REMARK                            x       y       z     vdW  Elec       q    Type
REMARK                         _______ _______ _______ _____ _____    ______ ____
ROOT
ATOM      1  C   UNL     1       3.066   6.733  18.391  0.00  0.00    +0.000 C 
ENDROOT
BRANCH   1   2
ATOM      2  N   UNL     1       4.309   6.467  17.683  0.00  0.00    +0.000 N 
ATOM      3  C   UNL     1       4.729   7.053  16.528  0.00  0.00    +0.000 A 
ATOM      4  N   UNL     1       5.888   6.555  16.177  0.00  0.00    +0.000 NA
ATOM      5  C   UNL     1       6.162   5.633  17.165  0.00  0.00    +0.000 A 
ATOM      6  N   UNL     1       5.192   5.532  18.107  0.00  0.00    +0.000 NA
BRANCH   5   7
ATOM      7  C   UNL     1       7.382   4.809  17.235  0.00  0.00    +0.000 C 
ATOM      8  O   UNL     1       7.924   4.424  18.263  0.00  0.00    +0.000 OA
BRANCH   7   9
ATOM      9  O   UNL     1       7.873   4.501  15.997  0.00  0.00    +0.000 OA
ATOM     10  H   UNL     1       8.222   3.581  16.053  0.00  0.00    +0.000 HD
ENDBRANCH   7   9
ENDBRANCH   5   7
ENDBRANCH   1   2
BRANCH   1  13
ATOM     11  C   UNL     1       1.444   4.170  17.684  0.00  0.00    +0.000 C 
ATOM     12  C   UNL     1       2.003   4.491  19.045  0.00  0.00    +0.000 C 
ATOM     13  C   UNL     1       2.683   5.622  19.332  0.00  0.00    +0.000 C 
BRANCH  12  14
ATOM     14  C   UNL     1       1.667   3.494  20.145  0.00  0.00    +0.000 C 
BRANCH  14  15
ATOM     15  C   UNL     1       2.889   2.756  20.699  0.00  0.00    +0.000 C 
BRANCH  15  16
ATOM     16  C   UNL     1       3.781   2.251  19.590  0.00  0.00    +0.000 C 
ATOM     17  O   UNL     1       3.460   1.436  18.741  0.00  0.00    +0.000 OA
BRANCH  16  18
ATOM     18  O   UNL     1       5.012   2.812  19.625  0.00  0.00    +0.000 OA
ATOM     19  H   UNL     1       5.019   3.770  19.441  0.00  0.00    +0.000 HD
ENDBRANCH  16  18
ENDBRANCH  15  16
ENDBRANCH  14  15
ENDBRANCH  12  14
ENDBRANCH   1  13
TORSDOF 8
ENDMDL
MODEL 5
REMARK VINA RESULT:      -6.4      2.878      3.343
REMARK  Name = 
REMARK  9 active torsions:
REMARK  status: ('A' for Active; 'I' for Inactive)
REMARK    1  A    between atoms: C_1  and  C_2
REMARK    2  A    between atoms: C_2  and  C_13
REMARK    3  A    between atoms: C_3  and  C_4
REMARK    4  A    between atoms: C_4  and  N_5
REMARK    5  A    between atoms: C_8  and  C_9
REMARK    6  A    between atoms: C_9  and  O_11
REMARK    7  A    between atoms: C_13  and  C_14
REMARK    8  A    between atoms: C_14  and  C_15
REMARK    9  A    between atoms: C_15  and  O_17
REMARK                            x       y       z     vdW  Elec       q    Type
REMARK                         _______ _______ _______ _____ _____    ______ ____
ROOT
ATOM      1  C   UNL     1       4.493   3.741  16.531  0.00  0.00    +0.000 C 
ENDROOT
BRANCH   1   2
ATOM      2  N   UNL     1       5.648   4.345  15.885  0.00  0.00    +0.000 N 
ATOM      3  C   UNL     1       6.603   5.113  16.478  0.00  0.00    +0.000 A 
ATOM      4  N   UNL     1       7.479   5.496  15.584  0.00  0.00    +0.000 NA
ATOM      5  C   UNL     1       7.020   4.932  14.412  0.00  0.00    +0.000 A 
ATOM      6  N   UNL     1       5.870   4.230  14.554  0.00  0.00    +0.000 NA
BRANCH   5   7
ATOM      7  C   UNL     1       7.682   5.055  13.101  0.00  0.00    +0.000 C 
ATOM      8  O   UNL     1       7.340   4.482  12.074  0.00  0.00    +0.000 OA
BRANCH   7   9
ATOM      9  O   UNL     1       8.755   5.901  13.138  0.00  0.00    +0.000 OA
ATOM     10  H   UNL     1       9.184   5.774  14.015  0.00  0.00    +0.000 HD
ENDBRANCH   7   9
ENDBRANCH   5   7
ENDBRANCH   1   2
BRANCH   1  13
ATOM     11  C   UNL     1       1.844   4.705  17.854  0.00  0.00    +0.000 C 
ATOM     12  C   UNL     1       3.173   4.600  18.556  0.00  0.00    +0.000 C 
ATOM     13  C   UNL     1       4.313   4.202  17.952  0.00  0.00    +0.000 C 
BRANCH  12  14
ATOM     14  C   UNL     1       3.192   5.077  20.002  0.00  0.00    +0.000 C 
BRANCH  14  15
ATOM     15  C   UNL     1       1.857   4.890  20.727  0.00  0.00    +0.000 C 
BRANCH  15  16
ATOM     16  C   UNL     1       1.740   3.509  21.326  0.00  0.00    +0.000 C 
ATOM     17  O   UNL     1       2.486   3.039  22.170  0.00  0.00    +0.000 OA
BRANCH  16  18
ATOM     18  O   UNL     1       0.689   2.819  20.826  0.00  0.00    +0.000 OA
ATOM     19  H   UNL     1       0.822   2.496  19.915  0.00  0.00    +0.000 HD
ENDBRANCH  16  18
ENDBRANCH  15  16
ENDBRANCH  14  15
ENDBRANCH  12  14
ENDBRANCH   1  13
TORSDOF 8
ENDMDL
MODEL 6
REMARK VINA RESULT:      -6.2      2.656      3.248
REMARK  Name = 
REMARK  9 active torsions:
REMARK  status: ('A' for Active; 'I' for Inactive)
REMARK    1  A    between atoms: C_1  and  C_2
REMARK    2  A    between atoms: C_2  and  C_13
REMARK    3  A    between atoms: C_3  and  C_4
REMARK    4  A    between atoms: C_4  and  N_5
REMARK    5  A    between atoms: C_8  and  C_9
REMARK    6  A    between atoms: C_9  and  O_11
REMARK    7  A    between atoms: C_13  and  C_14
REMARK    8  A    between atoms: C_14  and  C_15
REMARK    9  A    between atoms: C_15  and  O_17
REMARK                            x       y       z     vdW  Elec       q    Type
REMARK                         _______ _______ _______ _____ _____    ______ ____
ROOT
ATOM      1  C   UNL     1       5.575   4.626  18.704  0.00  0.00    +0.000 C 
ENDROOT
BRANCH   1   2
ATOM      2  N   UNL     1       6.272   5.030  17.493  0.00  0.00    +0.000 N 
ATOM      3  C   UNL     1       7.132   6.077  17.360  0.00  0.00    +0.000 A 
ATOM      4  N   UNL     1       7.554   6.146  16.123  0.00  0.00    +0.000 NA
ATOM      5  C   UNL     1       6.913   5.098  15.498  0.00  0.00    +0.000 A 
ATOM      6  N   UNL     1       6.088   4.395  16.312  0.00  0.00    +0.000 NA
BRANCH   5   7
ATOM      7  C   UNL     1       7.076   4.734  14.079  0.00  0.00    +0.000 C 
ATOM      8  O   UNL     1       7.682   5.390  13.242  0.00  0.00    +0.000 OA
BRANCH   7   9
ATOM      9  O   UNL     1       6.465   3.551  13.772  0.00  0.00    +0.000 OA
ATOM     10  H   UNL     1       6.174   3.154  14.625  0.00  0.00    +0.000 HD
ENDBRANCH   7   9
ENDBRANCH   5   7
ENDBRANCH   1   2
BRANCH   1  13
ATOM     11  C   UNL     1       3.293   6.623  17.992  0.00  0.00    +0.000 C 
ATOM     12  C   UNL     1       3.127   5.132  18.125  0.00  0.00    +0.000 C 
ATOM     13  C   UNL     1       4.128   4.290  18.459  0.00  0.00    +0.000 C 
BRANCH  12  14
ATOM     14  C   UNL     1       1.706   4.612  17.959  0.00  0.00    +0.000 C 
BRANCH  14  15
ATOM     15  C   UNL     1       1.382   3.414  18.856  0.00  0.00    +0.000 C 
BRANCH  15  16
ATOM     16  C   UNL     1       1.039   3.850  20.260  0.00  0.00    +0.000 C 
ATOM     17  O   UNL     1       0.996   5.005  20.652  0.00  0.00    +0.000 OA
BRANCH  16  18
ATOM     18  O   UNL     1       0.768   2.801  21.072  0.00  0.00    +0.000 OA
ATOM     19  H   UNL     1       0.100   2.990  21.758  0.00  0.00    +0.000 HD
ENDBRANCH  16  18
ENDBRANCH  15  16
ENDBRANCH  14  15
ENDBRANCH  12  14
ENDBRANCH   1  13
TORSDOF 8
ENDMDL
MODEL 7
REMARK VINA RESULT:      -6.2      2.659      3.142
REMARK  Name = 
REMARK  9 active torsions:
REMARK  status: ('A' for Active; 'I' for Inactive)
REMARK    1  A    between atoms: C_1  and  C_2
REMARK    2  A    between atoms: C_2  and  C_13
REMARK    3  A    between atoms: C_3  and  C_4
REMARK    4  A    between atoms: C_4  and  N_5
REMARK    5  A    between atoms: C_8  and  C_9
REMARK    6  A    between atoms: C_9  and  O_11
REMARK    7  A    between atoms: C_13  and  C_14
REMARK    8  A    between atoms: C_14  and  C_15
REMARK    9  A    between atoms: C_15  and  O_17
REMARK                            x       y       z     vdW  Elec       q    Type
REMARK                         _______ _______ _______ _____ _____    ______ ____
ROOT
ATOM      1  C   UNL     1       5.026   5.641  18.452  0.00  0.00    +0.000 C 
ENDROOT
BRANCH   1   2
ATOM      2  N   UNL     1       5.991   5.240  17.441  0.00  0.00    +0.000 N 
ATOM      3  C   UNL     1       7.247   4.761  17.660  0.00  0.00    +0.000 A 
ATOM      4  N   UNL     1       7.833   4.521  16.515  0.00  0.00    +0.000 NA
ATOM      5  C   UNL     1       6.884   4.876  15.579  0.00  0.00    +0.000 A 
ATOM      6  N   UNL     1       5.734   5.351  16.117  0.00  0.00    +0.000 NA
BRANCH   5   7
ATOM      7  C   UNL     1       7.056   4.768  14.120  0.00  0.00    +0.000 C 
ATOM      8  O   UNL     1       6.449   3.999  13.385  0.00  0.00    +0.000 OA
BRANCH   7   9
ATOM      9  O   UNL     1       7.993   5.641  13.641  0.00  0.00    +0.000 OA
ATOM     10  H   UNL     1       8.574   5.876  14.402  0.00  0.00    +0.000 HD
ENDBRANCH   7   9
ENDBRANCH   5   7
ENDBRANCH   1   2
BRANCH   1  13
ATOM     11  C   UNL     1       2.924   3.506  17.600  0.00  0.00    +0.000 C 
ATOM     12  C   UNL     1       3.642   3.532  18.924  0.00  0.00    +0.000 C 
ATOM     13  C   UNL     1       4.533   4.484  19.279  0.00  0.00    +0.000 C 
BRANCH  12  14
ATOM     14  C   UNL     1       3.229   2.455  19.917  0.00  0.00    +0.000 C 
BRANCH  14  15
ATOM     15  C   UNL     1       2.466   2.998  21.129  0.00  0.00    +0.000 C 
BRANCH  15  16
ATOM     16  C   UNL     1       1.270   3.817  20.710  0.00  0.00    +0.000 C 
ATOM     17  O   UNL     1       1.188   5.033  20.772  0.00  0.00    +0.000 OA
BRANCH  16  18
ATOM     18  O   UNL     1       0.262   3.049  20.234  0.00  0.00    +0.000 OA
ATOM     19  H   UNL     1      -0.356   3.522  19.646  0.00  0.00    +0.000 HD
ENDBRANCH  16  18
ENDBRANCH  15  16
ENDBRANCH  14  15
ENDBRANCH  12  14
ENDBRANCH   1  13
TORSDOF 8
ENDMDL
MODEL 8
REMARK VINA RESULT:      -6.2      2.063      2.571
REMARK  Name = 
REMARK  9 active torsions:
REMARK  status: ('A' for Active; 'I' for Inactive)
REMARK    1  A    between atoms: C_1  and  C_2
REMARK    2  A    between atoms: C_2  and  C_13
REMARK    3  A    between atoms: C_3  and  C_4
REMARK    4  A    between atoms: C_4  and  N_5
REMARK    5  A    between atoms: C_8  and  C_9
REMARK    6  A    between atoms: C_9  and  O_11
REMARK    7  A    between atoms: C_13  and  C_14
REMARK    8  A    between atoms: C_14  and  C_15
REMARK    9  A    between atoms: C_15  and  O_17
REMARK                            x       y       z     vdW  Elec       q    Type
REMARK                         _______ _______ _______ _____ _____    ______ ____
ROOT
ATOM      1  C   UNL     1       2.900   6.473  18.111  0.00  0.00    +0.000 C 
ENDROOT
BRANCH   1   2
ATOM      2  N   UNL     1       4.273   6.303  17.661  0.00  0.00    +0.000 N 
ATOM      3  C   UNL     1       4.850   6.881  16.572  0.00  0.00    +0.000 A 
ATOM      4  N   UNL     1       6.093   6.485  16.470  0.00  0.00    +0.000 NA
ATOM      5  C   UNL     1       6.256   5.634  17.542  0.00  0.00    +0.000 A 
ATOM      6  N   UNL     1       5.139   5.475  18.292  0.00  0.00    +0.000 NA
BRANCH   5   7
ATOM      7  C   UNL     1       7.509   4.936  17.882  0.00  0.00    +0.000 C 
ATOM      8  O   UNL     1       8.136   4.195  17.137  0.00  0.00    +0.000 OA
BRANCH   7   9
ATOM      9  O   UNL     1       7.923   5.203  19.157  0.00  0.00    +0.000 OA
ATOM     10  H   UNL     1       8.499   6.002  19.105  0.00  0.00    +0.000 HD
ENDBRANCH   7   9
ENDBRANCH   5   7
ENDBRANCH   1   2
BRANCH   1  13
ATOM     11  C   UNL     1       2.144   5.017  20.758  0.00  0.00    +0.000 C 
ATOM     12  C   UNL     1       1.803   4.528  19.375  0.00  0.00    +0.000 C 
ATOM     13  C   UNL     1       2.163   5.166  18.241  0.00  0.00    +0.000 C 
BRANCH  12  14
ATOM     14  C   UNL     1       1.095   3.182  19.310  0.00  0.00    +0.000 C 
BRANCH  14  15
ATOM     15  C   UNL     1       1.992   1.999  19.684  0.00  0.00    +0.000 C 
BRANCH  15  16
ATOM     16  C   UNL     1       3.206   1.919  18.790  0.00  0.00    +0.000 C 
ATOM     17  O   UNL     1       3.183   1.798  17.576  0.00  0.00    +0.000 OA
BRANCH  16  18
ATOM     18  O   UNL     1       4.363   2.004  19.486  0.00  0.00    +0.000 OA
ATOM     19  H   UNL     1       4.427   1.378  20.231  0.00  0.00    +0.000 HD
ENDBRANCH  16  18
ENDBRANCH  15  16
ENDBRANCH  14  15
ENDBRANCH  12  14
ENDBRANCH   1  13
TORSDOF 8
ENDMDL
MODEL 9
REMARK VINA RESULT:      -6.2      2.958      3.523
REMARK  Name = 
REMARK  9 active torsions:
REMARK  status: ('A' for Active; 'I' for Inactive)
REMARK    1  A    between atoms: C_1  and  C_2
REMARK    2  A    between atoms: C_2  and  C_13
REMARK    3  A    between atoms: C_3  and  C_4
REMARK    4  A    between atoms: C_4  and  N_5
REMARK    5  A    between atoms: C_8  and  C_9
REMARK    6  A    between atoms: C_9  and  O_11
REMARK    7  A    between atoms: C_13  and  C_14
REMARK    8  A    between atoms: C_14  and  C_15
REMARK    9  A    between atoms: C_15  and  O_17
REMARK                            x       y       z     vdW  Elec       q    Type
REMARK                         _______ _______ _______ _____ _____    ______ ____
ROOT
ATOM      1  C   UNL     1       5.407   5.449  19.096  0.00  0.00    +0.000 C 
ENDROOT
BRANCH   1   2
ATOM      2  N   UNL     1       6.255   5.078  17.974  0.00  0.00    +0.000 N 
ATOM      3  C   UNL     1       7.553   4.674  18.034  0.00  0.00    +0.000 A 
ATOM      4  N   UNL     1       7.999   4.439  16.826  0.00  0.00    +0.000 NA
ATOM      5  C   UNL     1       6.918   4.720  16.017  0.00  0.00    +0.000 A 
ATOM      6  N   UNL     1       5.822   5.144  16.692  0.00  0.00    +0.000 NA
BRANCH   5   7
ATOM      7  C   UNL     1       6.905   4.589  14.549  0.00  0.00    +0.000 C 
ATOM      8  O   UNL     1       7.373   5.398  13.758  0.00  0.00    +0.000 OA
BRANCH   7   9
ATOM      9  O   UNL     1       6.300   3.435  14.135  0.00  0.00    +0.000 OA
ATOM     10  H   UNL     1       5.359   3.661  13.951  0.00  0.00    +0.000 HD
ENDBRANCH   7   9
ENDBRANCH   5   7
ENDBRANCH   1   2
BRANCH   1  13
ATOM     11  C   UNL     1       2.845   6.942  18.144  0.00  0.00    +0.000 C 
ATOM     12  C   UNL     1       2.899   5.495  18.559  0.00  0.00    +0.000 C 
ATOM     13  C   UNL     1       4.019   4.877  18.991  0.00  0.00    +0.000 C 
BRANCH  12  14
ATOM     14  C   UNL     1       1.563   4.763  18.565  0.00  0.00    +0.000 C 
BRANCH  14  15
ATOM     15  C   UNL     1       1.511   3.590  19.548  0.00  0.00    +0.000 C 
BRANCH  15  16
ATOM     16  C   UNL     1       1.548   2.263  18.831  0.00  0.00    +0.000 C 
ATOM     17  O   UNL     1       2.546   1.583  18.652  0.00  0.00    +0.000 OA
BRANCH  16  18
ATOM     18  O   UNL     1       0.326   1.881  18.394  0.00  0.00    +0.000 OA
ATOM     19  H   UNL     1      -0.059   2.470  17.718  0.00  0.00    +0.000 HD
ENDBRANCH  16  18
ENDBRANCH  15  16
ENDBRANCH  14  15
ENDBRANCH  12  14
ENDBRANCH   1  13
TORSDOF 8
ENDMDL
