MODEL 1
REMARK VINA RESULT:      -8.0      0.000      0.000
REMARK  Name = 
REMARK  7 active torsions:
REMARK  status: ('A' for Active; 'I' for Inactive)
REMARK    1  A    between atoms: C_1  and  C_2
REMARK    2  A    between atoms: C_2  and  C_4
REMARK    3  A    between atoms: C_8  and  N_9
REMARK    4  A    between atoms: C_10  and  S_11
REMARK    5  A    between atoms: N_12  and  C_13
REMARK    6  A    between atoms: N_15  and  C_16
REMARK    7  A    between atoms: C_16  and  C_17
REMARK                            x       y       z     vdW  Elec       q    Type
REMARK                         _______ _______ _______ _____ _____    ______ ____
ROOT
ATOM      1  N   UNL     1       6.913   4.688  16.053  0.00  0.00    +0.000 N 
ATOM      2  C   UNL     1       5.844   4.965  16.874  0.00  0.00    +0.000 C 
ATOM      3  N   UNL     1       4.786   5.618  16.504  0.00  0.00    +0.000 NA
ATOM      4  H   UNL     1       7.681   4.208  16.510  0.00  0.00    +0.000 HD
ENDROOT
BRANCH   1   9
ATOM      5  C   UNL     1       6.249   3.732  12.528  0.00  0.00    +0.000 A 
ATOM      6  C   UNL     1       7.152   4.539  11.834  0.00  0.00    +0.000 A 
ATOM      7  C   UNL     1       7.979   5.412  12.538  0.00  0.00    +0.000 A 
ATOM      8  C   UNL     1       7.912   5.476  13.932  0.00  0.00    +0.000 A 
ATOM      9  C   UNL     1       6.994   4.703  14.653  0.00  0.00    +0.000 A 
ATOM     10  C   UNL     1       6.167   3.830  13.927  0.00  0.00    +0.000 A 
BRANCH   5  12
ATOM     11  C   UNL     1       4.010   3.171  11.373  0.00  0.00    +0.000 C 
ATOM     12  C   UNL     1       5.378   2.741  11.833  0.00  0.00    +0.000 C 
ATOM     13  O   UNL     1       5.791   1.601  11.628  0.00  0.00    +0.000 OA
ENDBRANCH   5  12
ENDBRANCH   1   9
BRANCH   3  14
ATOM     14  C   UNL     1       3.713   5.783  17.376  0.00  0.00    +0.000 A 
ATOM     15  N   UNL     1       3.627   6.822  18.209  0.00  0.00    +0.000 NA
ATOM     16  N   UNL     1       2.564   6.522  18.984  0.00  0.00    +0.000 N 
ATOM     17  C   UNL     1       2.031   5.292  18.720  0.00  0.00    +0.000 A 
ATOM     18  C   UNL     1       2.778   4.773  17.686  0.00  0.00    +0.000 A 
ATOM     19 CL   UNL     1       2.647   3.226  17.007  0.00  0.00    +0.000 Cl
BRANCH  16  20
ATOM     20  C   UNL     1       2.239   7.404  20.099  0.00  0.00    +0.000 C 
BRANCH  20  21
ATOM     21  C   UNL     1       1.381   8.573  19.680  0.00  0.00    +0.000 A 
ATOM     22  C   UNL     1       1.354   8.948  18.323  0.00  0.00    +0.000 A 
ATOM     23  C   UNL     1       0.598  10.042  17.895  0.00  0.00    +0.000 A 
ATOM     24  C   UNL     1      -0.153  10.765  18.817  0.00  0.00    +0.000 A 
ATOM     25 CL   UNL     1      -1.086  12.112  18.293  0.00  0.00    +0.000 Cl
ATOM     26  C   UNL     1      -0.154  10.405  20.162  0.00  0.00    +0.000 A 
ATOM     27  C   UNL     1       0.611   9.316  20.591  0.00  0.00    +0.000 A 
ATOM     28 CL   UNL     1       0.582   8.947  22.278  0.00  0.00    +0.000 Cl
ENDBRANCH  20  21
ENDBRANCH  16  20
ENDBRANCH   3  14
BRANCH   2  29
ATOM     29  S   UNL     1       6.211   4.352  18.496  0.00  0.00    +0.000 S 
ATOM     30  H   UNL     1       7.303   5.098  18.688  0.00  0.00    +0.000 HD
ENDBRANCH   2  29
TORSDOF 6
ENDMDL
MODEL 2
REMARK VINA RESULT:      -7.9      5.137      7.501
REMARK  Name = 
REMARK  7 active torsions:
REMARK  status: ('A' for Active; 'I' for Inactive)
REMARK    1  A    between atoms: C_1  and  C_2
REMARK    2  A    between atoms: C_2  and  C_4
REMARK    3  A    between atoms: C_8  and  N_9
REMARK    4  A    between atoms: C_10  and  S_11
REMARK    5  A    between atoms: N_12  and  C_13
REMARK    6  A    between atoms: N_15  and  C_16
REMARK    7  A    between atoms: C_16  and  C_17
REMARK                            x       y       z     vdW  Elec       q    Type
REMARK                         _______ _______ _______ _____ _____    ______ ____
ROOT
ATOM      1  N   UNL     1       1.811   7.748  20.766  0.00  0.00    +0.000 N 
ATOM      2  C   UNL     1       1.072   8.874  20.490  0.00  0.00    +0.000 C 
ATOM      3  N   UNL     1       0.823   9.312  19.294  0.00  0.00    +0.000 NA
ATOM      4  H   UNL     1       1.951   7.569  21.755  0.00  0.00    +0.000 HD
ENDROOT
BRANCH   1   9
ATOM      5  C   UNL     1       2.186   4.243  19.602  0.00  0.00    +0.000 A 
ATOM      6  C   UNL     1       2.893   4.408  18.409  0.00  0.00    +0.000 A 
ATOM      7  C   UNL     1       3.238   5.689  17.984  0.00  0.00    +0.000 A 
ATOM      8  C   UNL     1       2.886   6.804  18.749  0.00  0.00    +0.000 A 
ATOM      9  C   UNL     1       2.150   6.672  19.932  0.00  0.00    +0.000 A 
ATOM     10  C   UNL     1       1.809   5.374  20.345  0.00  0.00    +0.000 A 
BRANCH   5  12
ATOM     11  C   UNL     1       1.498   2.753  21.595  0.00  0.00    +0.000 C 
ATOM     12  C   UNL     1       1.836   2.894  20.134  0.00  0.00    +0.000 C 
ATOM     13  O   UNL     1       1.808   1.926  19.375  0.00  0.00    +0.000 OA
ENDBRANCH   5  12
ENDBRANCH   1   9
BRANCH   3  14
ATOM     14  C   UNL     1      -0.004  10.416  19.100  0.00  0.00    +0.000 A 
ATOM     15  N   UNL     1      -1.315  10.294  18.891  0.00  0.00    +0.000 NA
ATOM     16  N   UNL     1      -1.706  11.547  18.578  0.00  0.00    +0.000 N 
ATOM     17  C   UNL     1      -0.671  12.435  18.504  0.00  0.00    +0.000 A 
ATOM     18  C   UNL     1       0.462  11.718  18.816  0.00  0.00    +0.000 A 
ATOM     19 CL   UNL     1       2.064  12.269  18.780  0.00  0.00    +0.000 Cl
BRANCH  16  20
ATOM     20  C   UNL     1      -3.090  11.769  18.175  0.00  0.00    +0.000 C 
BRANCH  20  21
ATOM     21  C   UNL     1      -3.987  12.099  19.343  0.00  0.00    +0.000 A 
ATOM     22  C   UNL     1      -3.425  12.699  20.486  0.00  0.00    +0.000 A 
ATOM     23  C   UNL     1      -4.211  12.994  21.603  0.00  0.00    +0.000 A 
ATOM     24  C   UNL     1      -5.573  12.708  21.583  0.00  0.00    +0.000 A 
ATOM     25 CL   UNL     1      -6.545  13.072  22.955  0.00  0.00    +0.000 Cl
ATOM     26  C   UNL     1      -6.155  12.128  20.459  0.00  0.00    +0.000 A 
ATOM     27  C   UNL     1      -5.365  11.824  19.346  0.00  0.00    +0.000 A 
ATOM     28 CL   UNL     1      -6.151  11.079  18.000  0.00  0.00    +0.000 Cl
ENDBRANCH  20  21
ENDBRANCH  16  20
ENDBRANCH   3  14
BRANCH   2  29
ATOM     29  S   UNL     1       0.609   9.631  22.024  0.00  0.00    +0.000 S 
ATOM     30  H   UNL     1       0.574  10.885  21.561  0.00  0.00    +0.000 HD
ENDBRANCH   2  29
TORSDOF 6
ENDMDL
MODEL 3
REMARK VINA RESULT:      -7.8      2.067      2.967
REMARK  Name = 
REMARK  7 active torsions:
REMARK  status: ('A' for Active; 'I' for Inactive)
REMARK    1  A    between atoms: C_1  and  C_2
REMARK    2  A    between atoms: C_2  and  C_4
REMARK    3  A    between atoms: C_8  and  N_9
REMARK    4  A    between atoms: C_10  and  S_11
REMARK    5  A    between atoms: N_12  and  C_13
REMARK    6  A    between atoms: N_15  and  C_16
REMARK    7  A    between atoms: C_16  and  C_17
REMARK                            x       y       z     vdW  Elec       q    Type
REMARK                         _______ _______ _______ _____ _____    ______ ____
ROOT
ATOM      1  N   UNL     1       3.775   4.133  16.967  0.00  0.00    +0.000 N 
ATOM      2  C   UNL     1       2.992   4.985  17.711  0.00  0.00    +0.000 C 
ATOM      3  N   UNL     1       3.407   6.101  18.225  0.00  0.00    +0.000 NA
ATOM      4  H   UNL     1       3.310   3.280  16.677  0.00  0.00    +0.000 HD
ENDROOT
BRANCH   1   9
ATOM      5  C   UNL     1       6.275   4.280  14.227  0.00  0.00    +0.000 A 
ATOM      6  C   UNL     1       7.421   4.702  14.902  0.00  0.00    +0.000 A 
ATOM      7  C   UNL     1       7.362   4.948  16.272  0.00  0.00    +0.000 A 
ATOM      8  C   UNL     1       6.165   4.768  16.969  0.00  0.00    +0.000 A 
ATOM      9  C   UNL     1       4.992   4.377  16.314  0.00  0.00    +0.000 A 
ATOM     10  C   UNL     1       5.069   4.134  14.933  0.00  0.00    +0.000 A 
BRANCH   5  12
ATOM     11  C   UNL     1       5.119   3.210  12.181  0.00  0.00    +0.000 C 
ATOM     12  C   UNL     1       6.290   3.949  12.772  0.00  0.00    +0.000 C 
ATOM     13  O   UNL     1       7.242   4.298  12.075  0.00  0.00    +0.000 OA
ENDBRANCH   5  12
ENDBRANCH   1   9
BRANCH   3  14
ATOM     14  C   UNL     1       2.526   6.945  18.897  0.00  0.00    +0.000 A 
ATOM     15  N   UNL     1       2.295   8.196  18.498  0.00  0.00    +0.000 NA
ATOM     16  N   UNL     1       1.544   8.715  19.491  0.00  0.00    +0.000 N 
ATOM     17  C   UNL     1       1.365   7.857  20.539  0.00  0.00    +0.000 A 
ATOM     18  C   UNL     1       2.017   6.696  20.190  0.00  0.00    +0.000 A 
ATOM     19 CL   UNL     1       2.228   5.314  21.148  0.00  0.00    +0.000 Cl
BRANCH  16  20
ATOM     20  C   UNL     1       1.193  10.129  19.438  0.00  0.00    +0.000 C 
BRANCH  20  21
ATOM     21  C   UNL     1      -0.185  10.362  18.867  0.00  0.00    +0.000 A 
ATOM     22  C   UNL     1      -0.561   9.680  17.693  0.00  0.00    +0.000 A 
ATOM     23  C   UNL     1      -1.814   9.887  17.111  0.00  0.00    +0.000 A 
ATOM     24  C   UNL     1      -2.713  10.767  17.706  0.00  0.00    +0.000 A 
ATOM     25 CL   UNL     1      -4.258  11.024  16.994  0.00  0.00    +0.000 Cl
ATOM     26  C   UNL     1      -2.371  11.442  18.874  0.00  0.00    +0.000 A 
ATOM     27  C   UNL     1      -1.112  11.241  19.450  0.00  0.00    +0.000 A 
ATOM     28 CL   UNL     1      -0.748  12.135  20.883  0.00  0.00    +0.000 Cl
ENDBRANCH  20  21
ENDBRANCH  16  20
ENDBRANCH   3  14
BRANCH   2  29
ATOM     29  S   UNL     1       1.388   4.253  17.895  0.00  0.00    +0.000 S 
ATOM     30  H   UNL     1       1.362   4.299  19.231  0.00  0.00    +0.000 HD
ENDBRANCH   2  29
TORSDOF 6
ENDMDL
MODEL 4
REMARK VINA RESULT:      -7.6      5.436     10.327
REMARK  Name = 
REMARK  7 active torsions:
REMARK  status: ('A' for Active; 'I' for Inactive)
REMARK    1  A    between atoms: C_1  and  C_2
REMARK    2  A    between atoms: C_2  and  C_4
REMARK    3  A    between atoms: C_8  and  N_9
REMARK    4  A    between atoms: C_10  and  S_11
REMARK    5  A    between atoms: N_12  and  C_13
REMARK    6  A    between atoms: N_15  and  C_16
REMARK    7  A    between atoms: C_16  and  C_17
REMARK                            x       y       z     vdW  Elec       q    Type
REMARK                         _______ _______ _______ _____ _____    ______ ____
ROOT
ATOM      1  N   UNL     1      -1.298  12.216  18.774  0.00  0.00    +0.000 N 
ATOM      2  C   UNL     1      -0.227  11.372  18.953  0.00  0.00    +0.000 C 
ATOM      3  N   UNL     1      -0.319  10.083  19.063  0.00  0.00    +0.000 NA
ATOM      4  H   UNL     1      -1.059  13.201  18.753  0.00  0.00    +0.000 HD
ENDROOT
BRANCH   1   9
ATOM      5  C   UNL     1      -4.979  11.752  18.905  0.00  0.00    +0.000 A 
ATOM      6  C   UNL     1      -5.255  11.261  17.628  0.00  0.00    +0.000 A 
ATOM      7  C   UNL     1      -4.217  11.092  16.715  0.00  0.00    +0.000 A 
ATOM      8  C   UNL     1      -2.903  11.405  17.076  0.00  0.00    +0.000 A 
ATOM      9  C   UNL     1      -2.601  11.929  18.338  0.00  0.00    +0.000 A 
ATOM     10  C   UNL     1      -3.660  12.094  19.245  0.00  0.00    +0.000 A 
BRANCH   5  12
ATOM     11  C   UNL     1      -7.201  10.943  19.940  0.00  0.00    +0.000 C 
ATOM     12  C   UNL     1      -6.041  11.903  19.941  0.00  0.00    +0.000 C 
ATOM     13  O   UNL     1      -5.947  12.790  20.790  0.00  0.00    +0.000 OA
ENDBRANCH   5  12
ENDBRANCH   1   9
BRANCH   3  14
ATOM     14  C   UNL     1       0.825   9.294  19.159  0.00  0.00    +0.000 A 
ATOM     15  N   UNL     1       1.550   8.959  18.091  0.00  0.00    +0.000 NA
ATOM     16  N   UNL     1       2.439   8.068  18.576  0.00  0.00    +0.000 N 
ATOM     17  C   UNL     1       2.245   7.772  19.895  0.00  0.00    +0.000 A 
ATOM     18  C   UNL     1       1.178   8.542  20.300  0.00  0.00    +0.000 A 
ATOM     19 CL   UNL     1       0.413   8.516  21.812  0.00  0.00    +0.000 Cl
BRANCH  16  20
ATOM     20  C   UNL     1       3.338   7.398  17.644  0.00  0.00    +0.000 C 
BRANCH  20  21
ATOM     21  C   UNL     1       3.377   5.903  17.851  0.00  0.00    +0.000 A 
ATOM     22  C   UNL     1       2.171   5.176  17.801  0.00  0.00    +0.000 A 
ATOM     23  C   UNL     1       2.155   3.796  18.018  0.00  0.00    +0.000 A 
ATOM     24  C   UNL     1       3.347   3.123  18.270  0.00  0.00    +0.000 A 
ATOM     25 CL   UNL     1       3.331   1.424  18.535  0.00  0.00    +0.000 Cl
ATOM     26  C   UNL     1       4.553   3.817  18.310  0.00  0.00    +0.000 A 
ATOM     27  C   UNL     1       4.567   5.200  18.103  0.00  0.00    +0.000 A 
ATOM     28 CL   UNL     1       6.097   5.997  18.196  0.00  0.00    +0.000 Cl
ENDBRANCH  20  21
ENDBRANCH  16  20
ENDBRANCH   3  14
BRANCH   2  29
ATOM     29  S   UNL     1       1.243  12.354  19.080  0.00  0.00    +0.000 S 
ATOM     30  H   UNL     1       2.057  11.471  18.492  0.00  0.00    +0.000 HD
ENDBRANCH   2  29
TORSDOF 6
ENDMDL
MODEL 5
REMARK VINA RESULT:      -7.5      5.252      7.511
REMARK  Name = 
REMARK  7 active torsions:
REMARK  status: ('A' for Active; 'I' for Inactive)
REMARK    1  A    between atoms: C_1  and  C_2
REMARK    2  A    between atoms: C_2  and  C_4
REMARK    3  A    between atoms: C_8  and  N_9
REMARK    4  A    between atoms: C_10  and  S_11
REMARK    5  A    between atoms: N_12  and  C_13
REMARK    6  A    between atoms: N_15  and  C_16
REMARK    7  A    between atoms: C_16  and  C_17
REMARK                            x       y       z     vdW  Elec       q    Type
REMARK                         _______ _______ _______ _____ _____    ______ ____
ROOT
ATOM      1  N   UNL     1       1.676   7.701  20.972  0.00  0.00    +0.000 N 
ATOM      2  C   UNL     1       0.952   8.840  20.708  0.00  0.00    +0.000 C 
ATOM      3  N   UNL     1       0.762   9.329  19.521  0.00  0.00    +0.000 NA
ATOM      4  H   UNL     1       1.767   7.480  21.957  0.00  0.00    +0.000 HD
ENDROOT
BRANCH   1   9
ATOM      5  C   UNL     1       2.150   4.246  19.701  0.00  0.00    +0.000 A 
ATOM      6  C   UNL     1       2.876   4.465  18.529  0.00  0.00    +0.000 A 
ATOM      7  C   UNL     1       3.202   5.766  18.153  0.00  0.00    +0.000 A 
ATOM      8  C   UNL     1       2.811   6.847  18.947  0.00  0.00    +0.000 A 
ATOM      9  C   UNL     1       2.055   6.661  20.110  0.00  0.00    +0.000 A 
ATOM     10  C   UNL     1       1.735   5.343  20.473  0.00  0.00    +0.000 A 
BRANCH   5  12
ATOM     11  C   UNL     1       1.491   2.670  21.638  0.00  0.00    +0.000 C 
ATOM     12  C   UNL     1       1.820   2.873  20.182  0.00  0.00    +0.000 C 
ATOM     13  O   UNL     1       1.799   1.934  19.386  0.00  0.00    +0.000 OA
ENDBRANCH   5  12
ENDBRANCH   1   9
BRANCH   3  14
ATOM     14  C   UNL     1      -0.054  10.443  19.334  0.00  0.00    +0.000 A 
ATOM     15  N   UNL     1      -1.230  10.366  18.710  0.00  0.00    +0.000 NA
ATOM     16  N   UNL     1      -1.608  11.654  18.581  0.00  0.00    +0.000 N 
ATOM     17  C   UNL     1      -0.670  12.541  19.030  0.00  0.00    +0.000 A 
ATOM     18  C   UNL     1       0.371  11.778  19.507  0.00  0.00    +0.000 A 
ATOM     19 CL   UNL     1       1.862  12.332  20.090  0.00  0.00    +0.000 Cl
BRANCH  16  20
ATOM     20  C   UNL     1      -2.821  11.957  17.832  0.00  0.00    +0.000 C 
BRANCH  20  21
ATOM     21  C   UNL     1      -4.075  11.715  18.638  0.00  0.00    +0.000 A 
ATOM     22  C   UNL     1      -4.990  10.738  18.200  0.00  0.00    +0.000 A 
ATOM     23  C   UNL     1      -6.177  10.502  18.897  0.00  0.00    +0.000 A 
ATOM     24  C   UNL     1      -6.456  11.228  20.051  0.00  0.00    +0.000 A 
ATOM     25 CL   UNL     1      -7.916  10.938  20.913  0.00  0.00    +0.000 Cl
ATOM     26  C   UNL     1      -5.561  12.189  20.513  0.00  0.00    +0.000 A 
ATOM     27  C   UNL     1      -4.377  12.432  19.808  0.00  0.00    +0.000 A 
ATOM     28 CL   UNL     1      -3.329  13.659  20.426  0.00  0.00    +0.000 Cl
ENDBRANCH  20  21
ENDBRANCH  16  20
ENDBRANCH   3  14
BRANCH   2  29
ATOM     29  S   UNL     1       0.415   9.532  22.249  0.00  0.00    +0.000 S 
ATOM     30  H   UNL     1      -0.662   8.753  22.389  0.00  0.00    +0.000 HD
ENDBRANCH   2  29
TORSDOF 6
ENDMDL
MODEL 6
REMARK VINA RESULT:      -7.5      5.254      7.569
REMARK  Name = 
REMARK  7 active torsions:
REMARK  status: ('A' for Active; 'I' for Inactive)
REMARK    1  A    between atoms: C_1  and  C_2
REMARK    2  A    between atoms: C_2  and  C_4
REMARK    3  A    between atoms: C_8  and  N_9
REMARK    4  A    between atoms: C_10  and  S_11
REMARK    5  A    between atoms: N_12  and  C_13
REMARK    6  A    between atoms: N_15  and  C_16
REMARK    7  A    between atoms: C_16  and  C_17
REMARK                            x       y       z     vdW  Elec       q    Type
REMARK                         _______ _______ _______ _____ _____    ______ ____
ROOT
ATOM      1  N   UNL     1       1.574   7.634  21.135  0.00  0.00    +0.000 N 
ATOM      2  C   UNL     1       1.120   8.905  20.869  0.00  0.00    +0.000 C 
ATOM      3  N   UNL     1       1.245   9.503  19.724  0.00  0.00    +0.000 NA
ATOM      4  H   UNL     1       1.437   7.330  22.093  0.00  0.00    +0.000 HD
ENDROOT
BRANCH   1   9
ATOM      5  C   UNL     1       1.897   4.204  19.754  0.00  0.00    +0.000 A 
ATOM      6  C   UNL     1       2.678   4.421  18.617  0.00  0.00    +0.000 A 
ATOM      7  C   UNL     1       3.092   5.713  18.302  0.00  0.00    +0.000 A 
ATOM      8  C   UNL     1       2.733   6.787  19.121  0.00  0.00    +0.000 A 
ATOM      9  C   UNL     1       1.925   6.604  20.249  0.00  0.00    +0.000 A 
ATOM     10  C   UNL     1       1.516   5.296  20.551  0.00  0.00    +0.000 A 
BRANCH   5  12
ATOM     11  C   UNL     1       1.557   2.459  21.626  0.00  0.00    +0.000 C 
ATOM     12  C   UNL     1       1.470   2.837  20.171  0.00  0.00    +0.000 C 
ATOM     13  O   UNL     1       1.037   2.048  19.331  0.00  0.00    +0.000 OA
ENDBRANCH   5  12
ENDBRANCH   1   9
BRANCH   3  14
ATOM     14  C   UNL     1       0.683  10.760  19.515  0.00  0.00    +0.000 A 
ATOM     15  N   UNL     1       1.039  11.827  20.232  0.00  0.00    +0.000 NA
ATOM     16  N   UNL     1       0.159  12.775  19.853  0.00  0.00    +0.000 N 
ATOM     17  C   UNL     1      -0.790  12.317  18.983  0.00  0.00    +0.000 A 
ATOM     18  C   UNL     1      -0.488  10.992  18.761  0.00  0.00    +0.000 A 
ATOM     19 CL   UNL     1      -1.382   9.877  17.851  0.00  0.00    +0.000 Cl
BRANCH  16  20
ATOM     20  C   UNL     1       0.185  14.067  20.529  0.00  0.00    +0.000 C 
BRANCH  20  21
ATOM     21  C   UNL     1       0.449  15.211  19.581  0.00  0.00    +0.000 A 
ATOM     22  C   UNL     1      -0.632  16.010  19.159  0.00  0.00    +0.000 A 
ATOM     23  C   UNL     1      -0.440  17.060  18.258  0.00  0.00    +0.000 A 
ATOM     24  C   UNL     1       0.838  17.335  17.781  0.00  0.00    +0.000 A 
ATOM     25 CL   UNL     1       1.078  18.629  16.673  0.00  0.00    +0.000 Cl
ATOM     26  C   UNL     1       1.924  16.569  18.194  0.00  0.00    +0.000 A 
ATOM     27  C   UNL     1       1.730  15.512  19.088  0.00  0.00    +0.000 A 
ATOM     28 CL   UNL     1       3.120  14.588  19.533  0.00  0.00    +0.000 Cl
ENDBRANCH  20  21
ENDBRANCH  16  20
ENDBRANCH   3  14
BRANCH   2  29
ATOM     29  S   UNL     1       0.428   9.575  22.357  0.00  0.00    +0.000 S 
ATOM     30  H   UNL     1       0.914   8.638  23.177  0.00  0.00    +0.000 HD
ENDBRANCH   2  29
TORSDOF 6
ENDMDL
MODEL 7
REMARK VINA RESULT:      -7.4      4.084      6.454
REMARK  Name = 
REMARK  7 active torsions:
REMARK  status: ('A' for Active; 'I' for Inactive)
REMARK    1  A    between atoms: C_1  and  C_2
REMARK    2  A    between atoms: C_2  and  C_4
REMARK    3  A    between atoms: C_8  and  N_9
REMARK    4  A    between atoms: C_10  and  S_11
REMARK    5  A    between atoms: N_12  and  C_13
REMARK    6  A    between atoms: N_15  and  C_16
REMARK    7  A    between atoms: C_16  and  C_17
REMARK                            x       y       z     vdW  Elec       q    Type
REMARK                         _______ _______ _______ _____ _____    ______ ____
ROOT
ATOM      1  N   UNL     1       2.172   7.126  20.249  0.00  0.00    +0.000 N 
ATOM      2  C   UNL     1       1.545   8.348  20.171  0.00  0.00    +0.000 C 
ATOM      3  N   UNL     1       1.563   9.116  19.126  0.00  0.00    +0.000 NA
ATOM      4  H   UNL     1       2.099   6.672  21.153  0.00  0.00    +0.000 HD
ENDROOT
BRANCH   1   9
ATOM      5  C   UNL     1       4.215   5.980  17.369  0.00  0.00    +0.000 A 
ATOM      6  C   UNL     1       3.598   4.771  17.039  0.00  0.00    +0.000 A 
ATOM      7  C   UNL     1       2.506   4.330  17.782  0.00  0.00    +0.000 A 
ATOM      8  C   UNL     1       2.023   5.094  18.848  0.00  0.00    +0.000 A 
ATOM      9  C   UNL     1       2.640   6.293  19.222  0.00  0.00    +0.000 A 
ATOM     10  C   UNL     1       3.741   6.723  18.463  0.00  0.00    +0.000 A 
BRANCH   5  12
ATOM     11  C   UNL     1       6.678   6.743  17.260  0.00  0.00    +0.000 C 
ATOM     12  C   UNL     1       5.353   6.529  16.577  0.00  0.00    +0.000 C 
ATOM     13  O   UNL     1       5.203   6.779  15.382  0.00  0.00    +0.000 OA
ENDBRANCH   5  12
ENDBRANCH   1   9
BRANCH   3  14
ATOM     14  C   UNL     1       0.832  10.301  19.103  0.00  0.00    +0.000 A 
ATOM     15  N   UNL     1       1.035  11.280  19.986  0.00  0.00    +0.000 NA
ATOM     16  N   UNL     1       0.032  12.146  19.739  0.00  0.00    +0.000 N 
ATOM     17  C   UNL     1      -0.843  11.705  18.787  0.00  0.00    +0.000 A 
ATOM     18  C   UNL     1      -0.359  10.487  18.367  0.00  0.00    +0.000 A 
ATOM     19 CL   UNL     1      -1.088   9.418  17.273  0.00  0.00    +0.000 Cl
BRANCH  16  20
ATOM     20  C   UNL     1      -0.123  13.306  20.609  0.00  0.00    +0.000 C 
BRANCH  20  21
ATOM     21  C   UNL     1      -1.210  13.116  21.639  0.00  0.00    +0.000 A 
ATOM     22  C   UNL     1      -1.191  11.961  22.446  0.00  0.00    +0.000 A 
ATOM     23  C   UNL     1      -2.194  11.729  23.391  0.00  0.00    +0.000 A 
ATOM     24  C   UNL     1      -3.219  12.657  23.551  0.00  0.00    +0.000 A 
ATOM     25 CL   UNL     1      -4.454  12.374  24.715  0.00  0.00    +0.000 Cl
ATOM     26  C   UNL     1      -3.251  13.812  22.776  0.00  0.00    +0.000 A 
ATOM     27  C   UNL     1      -2.253  14.039  21.824  0.00  0.00    +0.000 A 
ATOM     28 CL   UNL     1      -2.375  15.481  20.880  0.00  0.00    +0.000 Cl
ENDBRANCH  20  21
ENDBRANCH  16  20
ENDBRANCH   3  14
BRANCH   2  29
ATOM     29  S   UNL     1       0.801   8.696  21.742  0.00  0.00    +0.000 S 
ATOM     30  H   UNL     1      -0.028   9.648  21.301  0.00  0.00    +0.000 HD
ENDBRANCH   2  29
TORSDOF 6
ENDMDL
MODEL 8
REMARK VINA RESULT:      -7.4      5.263      7.385
REMARK  Name = 
REMARK  7 active torsions:
REMARK  status: ('A' for Active; 'I' for Inactive)
REMARK    1  A    between atoms: C_1  and  C_2
REMARK    2  A    between atoms: C_2  and  C_4
REMARK    3  A    between atoms: C_8  and  N_9
REMARK    4  A    between atoms: C_10  and  S_11
REMARK    5  A    between atoms: N_12  and  C_13
REMARK    6  A    between atoms: N_15  and  C_16
REMARK    7  A    between atoms: C_16  and  C_17
REMARK                            x       y       z     vdW  Elec       q    Type
REMARK                         _______ _______ _______ _____ _____    ______ ____
ROOT
ATOM      1  N   UNL     1       1.932   7.651  20.872  0.00  0.00    +0.000 N 
ATOM      2  C   UNL     1       1.336   8.879  20.703  0.00  0.00    +0.000 C 
ATOM      3  N   UNL     1       1.141   9.448  19.554  0.00  0.00    +0.000 NA
ATOM      4  H   UNL     1       2.049   7.369  21.838  0.00  0.00    +0.000 HD
ENDROOT
BRANCH   1   9
ATOM      5  C   UNL     1       1.904   4.238  19.411  0.00  0.00    +0.000 A 
ATOM      6  C   UNL     1       2.600   4.428  18.216  0.00  0.00    +0.000 A 
ATOM      7  C   UNL     1       3.073   5.697  17.889  0.00  0.00    +0.000 A 
ATOM      8  C   UNL     1       2.859   6.774  18.753  0.00  0.00    +0.000 A 
ATOM      9  C   UNL     1       2.137   6.620  19.942  0.00  0.00    +0.000 A 
ATOM     10  C   UNL     1       1.666   5.335  20.256  0.00  0.00    +0.000 A 
BRANCH   5  12
ATOM     11  C   UNL     1       1.399   1.772  18.835  0.00  0.00    +0.000 C 
ATOM     12  C   UNL     1       1.421   2.893  19.840  0.00  0.00    +0.000 C 
ATOM     13  O   UNL     1       1.069   2.713  21.006  0.00  0.00    +0.000 OA
ENDBRANCH   5  12
ENDBRANCH   1   9
BRANCH   3  14
ATOM     14  C   UNL     1       0.456  10.657  19.467  0.00  0.00    +0.000 A 
ATOM     15  N   UNL     1      -0.844  10.760  19.749  0.00  0.00    +0.000 NA
ATOM     16  N   UNL     1      -1.153  12.019  19.377  0.00  0.00    +0.000 N 
ATOM     17  C   UNL     1      -0.111  12.683  18.795  0.00  0.00    +0.000 A 
ATOM     18  C   UNL     1       0.952  11.808  18.818  0.00  0.00    +0.000 A 
ATOM     19 CL   UNL     1       2.485  12.042  18.135  0.00  0.00    +0.000 Cl
BRANCH  16  20
ATOM     20  C   UNL     1      -2.545  12.447  19.444  0.00  0.00    +0.000 C 
BRANCH  20  21
ATOM     21  C   UNL     1      -3.061  12.516  20.861  0.00  0.00    +0.000 A 
ATOM     22  C   UNL     1      -2.162  12.312  21.925  0.00  0.00    +0.000 A 
ATOM     23  C   UNL     1      -2.601  12.336  23.251  0.00  0.00    +0.000 A 
ATOM     24  C   UNL     1      -3.943  12.582  23.529  0.00  0.00    +0.000 A 
ATOM     25 CL   UNL     1      -4.486  12.615  25.161  0.00  0.00    +0.000 Cl
ATOM     26  C   UNL     1      -4.848  12.801  22.495  0.00  0.00    +0.000 A 
ATOM     27  C   UNL     1      -4.410  12.766  21.168  0.00  0.00    +0.000 A 
ATOM     28 CL   UNL     1      -5.596  13.019  19.938  0.00  0.00    +0.000 Cl
ENDBRANCH  20  21
ENDBRANCH  16  20
ENDBRANCH   3  14
BRANCH   2  29
ATOM     29  S   UNL     1       0.970   9.547  22.304  0.00  0.00    +0.000 S 
ATOM     30  H   UNL     1       0.086  10.457  21.881  0.00  0.00    +0.000 HD
ENDBRANCH   2  29
TORSDOF 6
ENDMDL
MODEL 9
REMARK VINA RESULT:      -7.3      4.541      6.807
REMARK  Name = 
REMARK  7 active torsions:
REMARK  status: ('A' for Active; 'I' for Inactive)
REMARK    1  A    between atoms: C_1  and  C_2
REMARK    2  A    between atoms: C_2  and  C_4
REMARK    3  A    between atoms: C_8  and  N_9
REMARK    4  A    between atoms: C_10  and  S_11
REMARK    5  A    between atoms: N_12  and  C_13
REMARK    6  A    between atoms: N_15  and  C_16
REMARK    7  A    between atoms: C_16  and  C_17
REMARK                            x       y       z     vdW  Elec       q    Type
REMARK                         _______ _______ _______ _____ _____    ______ ____
ROOT
ATOM      1  N   UNL     1       1.921   7.260  20.465  0.00  0.00    +0.000 N 
ATOM      2  C   UNL     1       1.324   8.498  20.438  0.00  0.00    +0.000 C 
ATOM      3  N   UNL     1       1.395   9.325  19.441  0.00  0.00    +0.000 NA
ATOM      4  H   UNL     1       1.807   6.756  21.337  0.00  0.00    +0.000 HD
ENDROOT
BRANCH   1   9
ATOM      5  C   UNL     1       2.493   4.273  18.336  0.00  0.00    +0.000 A 
ATOM      6  C   UNL     1       3.411   4.754  17.401  0.00  0.00    +0.000 A 
ATOM      7  C   UNL     1       3.836   6.079  17.472  0.00  0.00    +0.000 A 
ATOM      8  C   UNL     1       3.352   6.922  18.476  0.00  0.00    +0.000 A 
ATOM      9  C   UNL     1       2.407   6.477  19.407  0.00  0.00    +0.000 A 
ATOM     10  C   UNL     1       1.988   5.139  19.320  0.00  0.00    +0.000 A 
BRANCH   5  12
ATOM     11  C   UNL     1       0.706   2.513  18.948  0.00  0.00    +0.000 C 
ATOM     12  C   UNL     1       2.043   2.851  18.343  0.00  0.00    +0.000 C 
ATOM     13  O   UNL     1       2.754   1.982  17.840  0.00  0.00    +0.000 OA
ENDBRANCH   5  12
ENDBRANCH   1   9
BRANCH   3  14
ATOM     14  C   UNL     1       0.692  10.527  19.463  0.00  0.00    +0.000 A 
ATOM     15  N   UNL     1       0.852  11.428  20.434  0.00  0.00    +0.000 NA
ATOM     16  N   UNL     1      -0.114  12.336  20.190  0.00  0.00    +0.000 N 
ATOM     17  C   UNL     1      -0.928  11.994  19.147  0.00  0.00    +0.000 A 
ATOM     18  C   UNL     1      -0.441  10.800  18.666  0.00  0.00    +0.000 A 
ATOM     19 CL   UNL     1      -1.113   9.839  17.442  0.00  0.00    +0.000 Cl
BRANCH  16  20
ATOM     20  C   UNL     1      -0.306  13.427  21.138  0.00  0.00    +0.000 C 
BRANCH  20  21
ATOM     21  C   UNL     1      -1.572  13.276  21.945  0.00  0.00    +0.000 A 
ATOM     22  C   UNL     1      -1.676  12.209  22.858  0.00  0.00    +0.000 A 
ATOM     23  C   UNL     1      -2.841  12.012  23.604  0.00  0.00    +0.000 A 
ATOM     24  C   UNL     1      -3.910  12.891  23.458  0.00  0.00    +0.000 A 
ATOM     25 CL   UNL     1      -5.345  12.653  24.377  0.00  0.00    +0.000 Cl
ATOM     26  C   UNL     1      -3.826  13.962  22.573  0.00  0.00    +0.000 A 
ATOM     27  C   UNL     1      -2.664  14.152  21.820  0.00  0.00    +0.000 A 
ATOM     28 CL   UNL     1      -2.644  15.486  20.722  0.00  0.00    +0.000 Cl
ENDBRANCH  20  21
ENDBRANCH  16  20
ENDBRANCH   3  14
BRANCH   2  29
ATOM     29  S   UNL     1       0.533   8.772  22.001  0.00  0.00    +0.000 S 
ATOM     30  H   UNL     1       0.231  10.057  21.786  0.00  0.00    +0.000 HD
ENDBRANCH   2  29
TORSDOF 6
ENDMDL
