MODEL 1
REMARK VINA RESULT:      -5.8      0.000      0.000
REMARK  Name = 
REMARK  8 active torsions:
REMARK  status: ('A' for Active; 'I' for Inactive)
REMARK    1  A    between atoms: C_1  and  N_2
REMARK    2  A    between atoms: N_2  and  C_3
REMARK    3  A    between atoms: C_3  and  N_5
REMARK    4  A    between atoms: N_5  and  N_6
REMARK    5  A    between atoms: C_7  and  C_8
REMARK    6  A    between atoms: C_11  and  N_12
REMARK    7  A    between atoms: N_12  and  C_13
REMARK    8  A    between atoms: N_12  and  C_14
REMARK                            x       y       z     vdW  Elec       q    Type
REMARK                         _______ _______ _______ _____ _____    ______ ____
ROOT
ATOM      1  N   UNL     1       5.466   3.854  13.835  0.00  0.00    +0.000 NA
ATOM      2  C   UNL     1       5.974   4.095  14.999  0.00  0.00    +0.000 C 
ENDROOT
BRANCH   2   3
ATOM      3  C   UNL     1       5.153   4.745  16.039  0.00  0.00    +0.000 A 
ATOM      4  C   UNL     1       5.095   6.136  16.117  0.00  0.00    +0.000 A 
ATOM      5  C   UNL     1       4.318   6.752  17.099  0.00  0.00    +0.000 A 
ATOM      6  C   UNL     1       3.555   6.022  18.026  0.00  0.00    +0.000 A 
ATOM      7  C   UNL     1       3.645   4.620  17.925  0.00  0.00    +0.000 A 
ATOM      8  C   UNL     1       4.434   3.982  16.949  0.00  0.00    +0.000 A 
BRANCH   6   9
ATOM      9  N   UNL     1       2.821   6.666  19.016  0.00  0.00    +0.000 N 
ATOM     10  C   UNL     1       2.276   8.007  18.783  0.00  0.00    +0.000 C 
ATOM     11  C   UNL     1       2.155   5.933  20.088  0.00  0.00    +0.000 C 
ENDBRANCH   6   9
ENDBRANCH   2   3
BRANCH   1  12
ATOM     12  N   UNL     1       6.277   3.234  12.929  0.00  0.00    +0.000 N 
ATOM     13  H   UNL     1       7.280   3.177  13.072  0.00  0.00    +0.000 HD
BRANCH  12  14
ATOM     14  C   UNL     1       5.723   2.629  11.816  0.00  0.00    +0.000 C 
ATOM     15  S   UNL     1       4.280   3.169  11.190  0.00  0.00    +0.000 S 
BRANCH  14  17
ATOM     16  C   UNL     1       6.136   0.202  11.233  0.00  0.00    +0.000 C 
ATOM     17  N   UNL     1       6.486   1.595  11.344  0.00  0.00    +0.000 N 
ATOM     18  H   UNL     1       7.385   1.920  10.994  0.00  0.00    +0.000 HD
ENDBRANCH  14  17
ENDBRANCH  12  14
ENDBRANCH   1  12
TORSDOF 5
ENDMDL
MODEL 2
REMARK VINA RESULT:      -5.5      0.733      1.139
REMARK  Name = 
REMARK  8 active torsions:
REMARK  status: ('A' for Active; 'I' for Inactive)
REMARK    1  A    between atoms: C_1  and  N_2
REMARK    2  A    between atoms: N_2  and  C_3
REMARK    3  A    between atoms: C_3  and  N_5
REMARK    4  A    between atoms: N_5  and  N_6
REMARK    5  A    between atoms: C_7  and  C_8
REMARK    6  A    between atoms: C_11  and  N_12
REMARK    7  A    between atoms: N_12  and  C_13
REMARK    8  A    between atoms: N_12  and  C_14
REMARK                            x       y       z     vdW  Elec       q    Type
REMARK                         _______ _______ _______ _____ _____    ______ ____
ROOT
ATOM      1  N   UNL     1       5.838   4.348  14.144  0.00  0.00    +0.000 NA
ATOM      2  C   UNL     1       5.666   3.690  15.243  0.00  0.00    +0.000 C 
ENDROOT
BRANCH   2   3
ATOM      3  C   UNL     1       4.829   4.260  16.317  0.00  0.00    +0.000 A 
ATOM      4  C   UNL     1       4.824   5.636  16.545  0.00  0.00    +0.000 A 
ATOM      5  C   UNL     1       4.032   6.175  17.560  0.00  0.00    +0.000 A 
ATOM      6  C   UNL     1       3.203   5.384  18.373  0.00  0.00    +0.000 A 
ATOM      7  C   UNL     1       3.240   3.999  18.122  0.00  0.00    +0.000 A 
ATOM      8  C   UNL     1       4.043   3.435  17.111  0.00  0.00    +0.000 A 
BRANCH   6   9
ATOM      9  N   UNL     1       2.455   5.950  19.400  0.00  0.00    +0.000 N 
ATOM     10  C   UNL     1       2.254   5.225  20.657  0.00  0.00    +0.000 C 
ATOM     11  C   UNL     1       2.250   7.391  19.506  0.00  0.00    +0.000 C 
ENDBRANCH   6   9
ENDBRANCH   2   3
BRANCH   1  12
ATOM     12  N   UNL     1       6.609   3.753  13.188  0.00  0.00    +0.000 N 
ATOM     13  H   UNL     1       7.622   3.795  13.226  0.00  0.00    +0.000 HD
BRANCH  12  14
ATOM     14  C   UNL     1       6.005   3.034  12.173  0.00  0.00    +0.000 C 
ATOM     15  S   UNL     1       4.450   3.383  11.698  0.00  0.00    +0.000 S 
BRANCH  14  17
ATOM     16  C   UNL     1       6.449   0.847  10.980  0.00  0.00    +0.000 C 
ATOM     17  N   UNL     1       6.822   2.063  11.657  0.00  0.00    +0.000 N 
ATOM     18  H   UNL     1       7.805   2.311  11.748  0.00  0.00    +0.000 HD
ENDBRANCH  14  17
ENDBRANCH  12  14
ENDBRANCH   1  12
TORSDOF 5
ENDMDL
MODEL 3
REMARK VINA RESULT:      -5.4      1.382      1.743
REMARK  Name = 
REMARK  8 active torsions:
REMARK  status: ('A' for Active; 'I' for Inactive)
REMARK    1  A    between atoms: C_1  and  N_2
REMARK    2  A    between atoms: N_2  and  C_3
REMARK    3  A    between atoms: C_3  and  N_5
REMARK    4  A    between atoms: N_5  and  N_6
REMARK    5  A    between atoms: C_7  and  C_8
REMARK    6  A    between atoms: C_11  and  N_12
REMARK    7  A    between atoms: N_12  and  C_13
REMARK    8  A    between atoms: N_12  and  C_14
REMARK                            x       y       z     vdW  Elec       q    Type
REMARK                         _______ _______ _______ _____ _____    ______ ____
ROOT
ATOM      1  N   UNL     1       5.484   4.073  14.178  0.00  0.00    +0.000 NA
ATOM      2  C   UNL     1       5.724   3.816  15.422  0.00  0.00    +0.000 C 
ENDROOT
BRANCH   2   3
ATOM      3  C   UNL     1       4.841   4.364  16.469  0.00  0.00    +0.000 A 
ATOM      4  C   UNL     1       4.859   5.729  16.757  0.00  0.00    +0.000 A 
ATOM      5  C   UNL     1       4.022   6.248  17.747  0.00  0.00    +0.000 A 
ATOM      6  C   UNL     1       3.125   5.448  18.473  0.00  0.00    +0.000 A 
ATOM      7  C   UNL     1       3.139   4.074  18.164  0.00  0.00    +0.000 A 
ATOM      8  C   UNL     1       3.986   3.531  17.178  0.00  0.00    +0.000 A 
BRANCH   6   9
ATOM      9  N   UNL     1       2.333   5.992  19.478  0.00  0.00    +0.000 N 
ATOM     10  C   UNL     1       1.980   5.196  20.658  0.00  0.00    +0.000 C 
ATOM     11  C   UNL     1       2.213   7.433  19.677  0.00  0.00    +0.000 C 
ENDBRANCH   6   9
ENDBRANCH   2   3
BRANCH   1  12
ATOM     12  N   UNL     1       6.332   3.518  13.263  0.00  0.00    +0.000 N 
ATOM     13  H   UNL     1       7.329   3.457  13.439  0.00  0.00    +0.000 HD
BRANCH  12  14
ATOM     14  C   UNL     1       5.822   2.984  12.094  0.00  0.00    +0.000 C 
ATOM     15  S   UNL     1       6.656   1.804  11.269  0.00  0.00    +0.000 S 
BRANCH  14  17
ATOM     16  C   UNL     1       3.635   3.022  10.823  0.00  0.00    +0.000 C 
ATOM     17  N   UNL     1       4.617   3.533  11.745  0.00  0.00    +0.000 N 
ATOM     18  H   UNL     1       4.423   4.381  12.273  0.00  0.00    +0.000 HD
ENDBRANCH  14  17
ENDBRANCH  12  14
ENDBRANCH   1  12
TORSDOF 5
ENDMDL
MODEL 4
REMARK VINA RESULT:      -5.4      3.531      5.317
REMARK  Name = 
REMARK  8 active torsions:
REMARK  status: ('A' for Active; 'I' for Inactive)
REMARK    1  A    between atoms: C_1  and  N_2
REMARK    2  A    between atoms: N_2  and  C_3
REMARK    3  A    between atoms: C_3  and  N_5
REMARK    4  A    between atoms: N_5  and  N_6
REMARK    5  A    between atoms: C_7  and  C_8
REMARK    6  A    between atoms: C_11  and  N_12
REMARK    7  A    between atoms: N_12  and  C_13
REMARK    8  A    between atoms: N_12  and  C_14
REMARK                            x       y       z     vdW  Elec       q    Type
REMARK                         _______ _______ _______ _____ _____    ______ ____
ROOT
ATOM      1  N   UNL     1       4.549   6.758  17.169  0.00  0.00    +0.000 NA
ATOM      2  C   UNL     1       3.524   6.426  17.882  0.00  0.00    +0.000 C 
ENDROOT
BRANCH   2   3
ATOM      3  C   UNL     1       2.661   7.473  18.462  0.00  0.00    +0.000 A 
ATOM      4  C   UNL     1       2.213   7.361  19.778  0.00  0.00    +0.000 A 
ATOM      5  C   UNL     1       1.398   8.353  20.328  0.00  0.00    +0.000 A 
ATOM      6  C   UNL     1       1.013   9.498  19.611  0.00  0.00    +0.000 A 
ATOM      7  C   UNL     1       1.475   9.574  18.283  0.00  0.00    +0.000 A 
ATOM      8  C   UNL     1       2.287   8.577  17.707  0.00  0.00    +0.000 A 
BRANCH   6   9
ATOM      9  N   UNL     1       0.170  10.448  20.177  0.00  0.00    +0.000 N 
ATOM     10  C   UNL     1      -0.013  10.507  21.630  0.00  0.00    +0.000 C 
ATOM     11  C   UNL     1      -0.181  11.683  19.483  0.00  0.00    +0.000 C 
ENDBRANCH   6   9
ENDBRANCH   2   3
BRANCH   1  12
ATOM     12  N   UNL     1       5.291   5.737  16.649  0.00  0.00    +0.000 N 
ATOM     13  H   UNL     1       4.855   4.973  16.144  0.00  0.00    +0.000 HD
BRANCH  12  14
ATOM     14  C   UNL     1       6.668   5.763  16.767  0.00  0.00    +0.000 C 
ATOM     15  S   UNL     1       7.387   6.005  18.248  0.00  0.00    +0.000 S 
BRANCH  14  17
ATOM     16  C   UNL     1       6.877   4.779  14.446  0.00  0.00    +0.000 C 
ATOM     17  N   UNL     1       7.304   5.575  15.569  0.00  0.00    +0.000 N 
ATOM     18  H   UNL     1       8.153   6.131  15.502  0.00  0.00    +0.000 HD
ENDBRANCH  14  17
ENDBRANCH  12  14
ENDBRANCH   1  12
TORSDOF 5
ENDMDL
MODEL 5
REMARK VINA RESULT:      -5.4      4.652      6.093
REMARK  Name = 
REMARK  8 active torsions:
REMARK  status: ('A' for Active; 'I' for Inactive)
REMARK    1  A    between atoms: C_1  and  N_2
REMARK    2  A    between atoms: N_2  and  C_3
REMARK    3  A    between atoms: C_3  and  N_5
REMARK    4  A    between atoms: N_5  and  N_6
REMARK    5  A    between atoms: C_7  and  C_8
REMARK    6  A    between atoms: C_11  and  N_12
REMARK    7  A    between atoms: N_12  and  C_13
REMARK    8  A    between atoms: N_12  and  C_14
REMARK                            x       y       z     vdW  Elec       q    Type
REMARK                         _______ _______ _______ _____ _____    ______ ____
ROOT
ATOM      1  N   UNL     1       3.837   5.999  17.959  0.00  0.00    +0.000 NA
ATOM      2  C   UNL     1       2.975   6.133  18.913  0.00  0.00    +0.000 C 
ENDROOT
BRANCH   2   3
ATOM      3  C   UNL     1       2.262   7.414  19.084  0.00  0.00    +0.000 A 
ATOM      4  C   UNL     1       1.756   7.773  20.334  0.00  0.00    +0.000 A 
ATOM      5  C   UNL     1       1.084   8.985  20.497  0.00  0.00    +0.000 A 
ATOM      6  C   UNL     1       0.902   9.895  19.443  0.00  0.00    +0.000 A 
ATOM      7  C   UNL     1       1.416   9.498  18.194  0.00  0.00    +0.000 A 
ATOM      8  C   UNL     1       2.086   8.273  18.007  0.00  0.00    +0.000 A 
BRANCH   6   9
ATOM      9  N   UNL     1       0.194  11.077  19.631  0.00  0.00    +0.000 N 
ATOM     10  C   UNL     1      -0.652  11.614  18.562  0.00  0.00    +0.000 C 
ATOM     11  C   UNL     1      -0.143  11.576  20.961  0.00  0.00    +0.000 C 
ENDBRANCH   6   9
ENDBRANCH   2   3
BRANCH   1  12
ATOM     12  N   UNL     1       4.444   4.782  17.849  0.00  0.00    +0.000 N 
ATOM     13  H   UNL     1       4.129   4.095  17.173  0.00  0.00    +0.000 HD
BRANCH  12  14
ATOM     14  C   UNL     1       5.542   4.492  18.638  0.00  0.00    +0.000 C 
ATOM     15  S   UNL     1       6.844   5.526  18.690  0.00  0.00    +0.000 S 
BRANCH  14  17
ATOM     16  C   UNL     1       4.213   2.525  19.514  0.00  0.00    +0.000 C 
ATOM     17  N   UNL     1       5.404   3.312  19.320  0.00  0.00    +0.000 N 
ATOM     18  H   UNL     1       6.298   2.972  19.668  0.00  0.00    +0.000 HD
ENDBRANCH  14  17
ENDBRANCH  12  14
ENDBRANCH   1  12
TORSDOF 5
ENDMDL
MODEL 6
REMARK VINA RESULT:      -5.4      6.048      8.196
REMARK  Name = 
REMARK  8 active torsions:
REMARK  status: ('A' for Active; 'I' for Inactive)
REMARK    1  A    between atoms: C_1  and  N_2
REMARK    2  A    between atoms: N_2  and  C_3
REMARK    3  A    between atoms: C_3  and  N_5
REMARK    4  A    between atoms: N_5  and  N_6
REMARK    5  A    between atoms: C_7  and  C_8
REMARK    6  A    between atoms: C_11  and  N_12
REMARK    7  A    between atoms: N_12  and  C_13
REMARK    8  A    between atoms: N_12  and  C_14
REMARK                            x       y       z     vdW  Elec       q    Type
REMARK                         _______ _______ _______ _____ _____    ______ ____
ROOT
ATOM      1  N   UNL     1       1.703   9.219  18.401  0.00  0.00    +0.000 NA
ATOM      2  C   UNL     1       2.555   8.303  18.074  0.00  0.00    +0.000 C 
ENDROOT
BRANCH   2   3
ATOM      3  C   UNL     1       2.426   6.945  18.637  0.00  0.00    +0.000 A 
ATOM      4  C   UNL     1       2.643   5.829  17.830  0.00  0.00    +0.000 A 
ATOM      5  C   UNL     1       2.523   4.544  18.363  0.00  0.00    +0.000 A 
ATOM      6  C   UNL     1       2.205   4.312  19.711  0.00  0.00    +0.000 A 
ATOM      7  C   UNL     1       1.982   5.461  20.495  0.00  0.00    +0.000 A 
ATOM      8  C   UNL     1       2.086   6.765  19.971  0.00  0.00    +0.000 A 
BRANCH   6   9
ATOM      9  N   UNL     1       2.056   3.019  20.200  0.00  0.00    +0.000 N 
ATOM     10  C   UNL     1       1.537   2.792  21.552  0.00  0.00    +0.000 C 
ATOM     11  C   UNL     1       1.931   1.865  19.315  0.00  0.00    +0.000 C 
ENDBRANCH   6   9
ENDBRANCH   2   3
BRANCH   1  12
ATOM     12  N   UNL     1       1.873  10.446  17.828  0.00  0.00    +0.000 N 
ATOM     13  H   UNL     1       2.154  10.540  16.858  0.00  0.00    +0.000 HD
BRANCH  12  14
ATOM     14  C   UNL     1       1.612  11.587  18.564  0.00  0.00    +0.000 C 
ATOM     15  S   UNL     1       0.887  11.483  20.057  0.00  0.00    +0.000 S 
BRANCH  14  17
ATOM     16  C   UNL     1       3.017  13.678  18.331  0.00  0.00    +0.000 C 
ATOM     17  N   UNL     1       2.011  12.730  17.924  0.00  0.00    +0.000 N 
ATOM     18  H   UNL     1       1.539  12.845  17.030  0.00  0.00    +0.000 HD
ENDBRANCH  14  17
ENDBRANCH  12  14
ENDBRANCH   1  12
TORSDOF 5
ENDMDL
MODEL 7
REMARK VINA RESULT:      -5.4      4.181      5.682
REMARK  Name = 
REMARK  8 active torsions:
REMARK  status: ('A' for Active; 'I' for Inactive)
REMARK    1  A    between atoms: C_1  and  N_2
REMARK    2  A    between atoms: N_2  and  C_3
REMARK    3  A    between atoms: C_3  and  N_5
REMARK    4  A    between atoms: N_5  and  N_6
REMARK    5  A    between atoms: C_7  and  C_8
REMARK    6  A    between atoms: C_11  and  N_12
REMARK    7  A    between atoms: N_12  and  C_13
REMARK    8  A    between atoms: N_12  and  C_14
REMARK                            x       y       z     vdW  Elec       q    Type
REMARK                         _______ _______ _______ _____ _____    ______ ____
ROOT
ATOM      1  N   UNL     1       4.276   5.400  18.908  0.00  0.00    +0.000 NA
ATOM      2  C   UNL     1       3.417   5.958  18.119  0.00  0.00    +0.000 C 
ENDROOT
BRANCH   2   3
ATOM      3  C   UNL     1       2.654   7.135  18.577  0.00  0.00    +0.000 A 
ATOM      4  C   UNL     1       2.168   7.189  19.884  0.00  0.00    +0.000 A 
ATOM      5  C   UNL     1       1.448   8.303  20.319  0.00  0.00    +0.000 A 
ATOM      6  C   UNL     1       1.197   9.410  19.491  0.00  0.00    +0.000 A 
ATOM      7  C   UNL     1       1.692   9.318  18.176  0.00  0.00    +0.000 A 
ATOM      8  C   UNL     1       2.410   8.196  17.716  0.00  0.00    +0.000 A 
BRANCH   6   9
ATOM      9  N   UNL     1       0.443  10.487  19.944  0.00  0.00    +0.000 N 
ATOM     10  C   UNL     1       1.101  11.706  20.423  0.00  0.00    +0.000 C 
ATOM     11  C   UNL     1      -0.948  10.681  19.547  0.00  0.00    +0.000 C 
ENDBRANCH   6   9
ENDBRANCH   2   3
BRANCH   1  12
ATOM     12  N   UNL     1       4.957   4.327  18.412  0.00  0.00    +0.000 N 
ATOM     13  H   UNL     1       4.566   3.392  18.447  0.00  0.00    +0.000 HD
BRANCH  12  14
ATOM     14  C   UNL     1       6.184   4.519  17.802  0.00  0.00    +0.000 C 
ATOM     15  S   UNL     1       6.325   4.450  16.146  0.00  0.00    +0.000 S 
BRANCH  14  17
ATOM     16  C   UNL     1       7.810   6.012  19.038  0.00  0.00    +0.000 C 
ATOM     17  N   UNL     1       7.188   4.756  18.702  0.00  0.00    +0.000 N 
ATOM     18  H   UNL     1       7.453   3.910  19.202  0.00  0.00    +0.000 HD
ENDBRANCH  14  17
ENDBRANCH  12  14
ENDBRANCH   1  12
TORSDOF 5
ENDMDL
MODEL 8
REMARK VINA RESULT:      -5.4      4.578      6.000
REMARK  Name = 
REMARK  8 active torsions:
REMARK  status: ('A' for Active; 'I' for Inactive)
REMARK    1  A    between atoms: C_1  and  N_2
REMARK    2  A    between atoms: N_2  and  C_3
REMARK    3  A    between atoms: C_3  and  N_5
REMARK    4  A    between atoms: N_5  and  N_6
REMARK    5  A    between atoms: C_7  and  C_8
REMARK    6  A    between atoms: C_11  and  N_12
REMARK    7  A    between atoms: N_12  and  C_13
REMARK    8  A    between atoms: N_12  and  C_14
REMARK                            x       y       z     vdW  Elec       q    Type
REMARK                         _______ _______ _______ _____ _____    ______ ____
ROOT
ATOM      1  N   UNL     1       2.812   5.225  18.268  0.00  0.00    +0.000 NA
ATOM      2  C   UNL     1       3.269   6.429  18.160  0.00  0.00    +0.000 C 
ENDROOT
BRANCH   2   3
ATOM      3  C   UNL     1       2.454   7.569  18.622  0.00  0.00    +0.000 A 
ATOM      4  C   UNL     1       1.983   7.607  19.935  0.00  0.00    +0.000 A 
ATOM      5  C   UNL     1       1.213   8.686  20.373  0.00  0.00    +0.000 A 
ATOM      6  C   UNL     1       0.895   9.773  19.543  0.00  0.00    +0.000 A 
ATOM      7  C   UNL     1       1.377   9.698  18.222  0.00  0.00    +0.000 A 
ATOM      8  C   UNL     1       2.144   8.611  17.758  0.00  0.00    +0.000 A 
BRANCH   6   9
ATOM      9  N   UNL     1       0.093  10.814  20.000  0.00  0.00    +0.000 N 
ATOM     10  C   UNL     1       0.685  11.949  20.712  0.00  0.00    +0.000 C 
ATOM     11  C   UNL     1      -1.217  11.094  19.421  0.00  0.00    +0.000 C 
ENDBRANCH   6   9
ENDBRANCH   2   3
BRANCH   1  12
ATOM     12  N   UNL     1       3.628   4.219  17.837  0.00  0.00    +0.000 N 
ATOM     13  H   UNL     1       3.718   4.000  16.850  0.00  0.00    +0.000 HD
BRANCH  12  14
ATOM     14  C   UNL     1       4.387   3.514  18.752  0.00  0.00    +0.000 C 
ATOM     15  S   UNL     1       3.656   2.673  19.988  0.00  0.00    +0.000 S 
BRANCH  14  17
ATOM     16  C   UNL     1       6.485   4.759  18.084  0.00  0.00    +0.000 C 
ATOM     17  N   UNL     1       5.730   3.606  18.506  0.00  0.00    +0.000 N 
ATOM     18  H   UNL     1       6.212   2.734  18.713  0.00  0.00    +0.000 HD
ENDBRANCH  14  17
ENDBRANCH  12  14
ENDBRANCH   1  12
TORSDOF 5
ENDMDL
MODEL 9
REMARK VINA RESULT:      -5.4      1.154      1.866
REMARK  Name = 
REMARK  8 active torsions:
REMARK  status: ('A' for Active; 'I' for Inactive)
REMARK    1  A    between atoms: C_1  and  N_2
REMARK    2  A    between atoms: N_2  and  C_3
REMARK    3  A    between atoms: C_3  and  N_5
REMARK    4  A    between atoms: N_5  and  N_6
REMARK    5  A    between atoms: C_7  and  C_8
REMARK    6  A    between atoms: C_11  and  N_12
REMARK    7  A    between atoms: N_12  and  C_13
REMARK    8  A    between atoms: N_12  and  C_14
REMARK                            x       y       z     vdW  Elec       q    Type
REMARK                         _______ _______ _______ _____ _____    ______ ____
ROOT
ATOM      1  N   UNL     1       5.728   4.224  13.736  0.00  0.00    +0.000 NA
ATOM      2  C   UNL     1       5.713   3.764  14.944  0.00  0.00    +0.000 C 
ENDROOT
BRANCH   2   3
ATOM      3  C   UNL     1       4.982   4.493  15.999  0.00  0.00    +0.000 A 
ATOM      4  C   UNL     1       4.178   3.797  16.902  0.00  0.00    +0.000 A 
ATOM      5  C   UNL     1       3.488   4.486  17.901  0.00  0.00    +0.000 A 
ATOM      6  C   UNL     1       3.579   5.878  18.059  0.00  0.00    +0.000 A 
ATOM      7  C   UNL     1       4.390   6.550  17.124  0.00  0.00    +0.000 A 
ATOM      8  C   UNL     1       5.084   5.873  16.102  0.00  0.00    +0.000 A 
BRANCH   6   9
ATOM      9  N   UNL     1       2.848   6.537  19.041  0.00  0.00    +0.000 N 
ATOM     10  C   UNL     1       2.305   7.875  18.791  0.00  0.00    +0.000 C 
ATOM     11  C   UNL     1       2.182   5.820  20.124  0.00  0.00    +0.000 C 
ENDBRANCH   6   9
ENDBRANCH   2   3
BRANCH   1  12
ATOM     12  N   UNL     1       6.409   3.489  12.809  0.00  0.00    +0.000 N 
ATOM     13  H   UNL     1       7.423   3.472  12.792  0.00  0.00    +0.000 HD
BRANCH  12  14
ATOM     14  C   UNL     1       5.710   2.711  11.905  0.00  0.00    +0.000 C 
ATOM     15  S   UNL     1       6.452   1.440  11.130  0.00  0.00    +0.000 S 
BRANCH  14  17
ATOM     16  C   UNL     1       3.745   3.566  10.560  0.00  0.00    +0.000 C 
ATOM     17  N   UNL     1       4.410   3.116  11.756  0.00  0.00    +0.000 N 
ATOM     18  H   UNL     1       3.884   3.017  12.622  0.00  0.00    +0.000 HD
ENDBRANCH  14  17
ENDBRANCH  12  14
ENDBRANCH   1  12
TORSDOF 5
ENDMDL
