MODEL 1
REMARK VINA RESULT:      -7.4      0.000      0.000
REMARK  Name = 
REMARK  12 active torsions:
REMARK  status: ('A' for Active; 'I' for Inactive)
REMARK    1  A    between atoms: C_1  and  C_2
REMARK    2  A    between atoms: C_2  and  C_3
REMARK    3  A    between atoms: C_2  and  C_4
REMARK    4  A    between atoms: C_2  and  O_5
REMARK    5  A    between atoms: O_5  and  C_6
REMARK    6  A    between atoms: N_8  and  C_9
REMARK    7  A    between atoms: C_9  and  C_10
REMARK    8  A    between atoms: C_9  and  C_20
REMARK    9  A    between atoms: C_10  and  C_11
REMARK   10  A    between atoms: C_23  and  S_24
REMARK   11  A    between atoms: S_24  and  C_25
REMARK   12  A    between atoms: C_25  and  C_26
REMARK                            x       y       z     vdW  Elec       q    Type
REMARK                         _______ _______ _______ _____ _____    ______ ____
ROOT
ATOM      1  C   UNL     1       3.102   7.063  18.146  0.00  0.00    +0.000 C 
ENDROOT
BRANCH   1   2
ATOM      2  C   UNL     1       2.432   5.763  18.499  0.00  0.00    +0.000 A 
ATOM      3  N   UNL     1       1.596   5.067  17.754  0.00  0.00    +0.000 NA
ATOM      4  N   UNL     1       1.244   3.959  18.484  0.00  0.00    +0.000 NA
ATOM      5  C   UNL     1       1.873   4.045  19.638  0.00  0.00    +0.000 A 
ATOM      6  O   UNL     1       2.641   5.186  19.730  0.00  0.00    +0.000 OA
BRANCH   5   7
ATOM      7  S   UNL     1       1.722   2.869  20.911  0.00  0.00    +0.000 S 
BRANCH   7   8
ATOM      8  C   UNL     1       3.461   2.347  21.048  0.00  0.00    +0.000 C 
BRANCH   8   9
ATOM      9  C   UNL     1       4.091   2.231  19.674  0.00  0.00    +0.000 C 
ATOM     10  N   UNL     1       5.095   3.117  19.395  0.00  0.00    +0.000 N 
ATOM     11  O   UNL     1       3.784   1.368  18.860  0.00  0.00    +0.000 OA
ATOM     12  H   UNL     1       5.232   3.957  19.939  0.00  0.00    +0.000 HD
ATOM     13  H   UNL     1       5.487   3.084  18.461  0.00  0.00    +0.000 HD
ENDBRANCH   8   9
ENDBRANCH   7   8
ENDBRANCH   5   7
ENDBRANCH   1   2
BRANCH   1  16
ATOM     14  C   UNL     1       5.342   6.414  17.359  0.00  0.00    +0.000 C 
ATOM     15  O   UNL     1       5.675   6.028  18.466  0.00  0.00    +0.000 OA
ATOM     16  N   UNL     1       4.103   6.930  17.087  0.00  0.00    +0.000 N 
ATOM     17  H   UNL     1       3.894   7.199  16.135  0.00  0.00    +0.000 HD
BRANCH  14  18
ATOM     18  O   UNL     1       6.126   6.391  16.249  0.00  0.00    +0.000 OA
BRANCH  18  20
ATOM     19  C   UNL     1       7.576   4.430  16.713  0.00  0.00    +0.000 C 
ATOM     20  C   UNL     1       6.600   5.108  15.737  0.00  0.00    +0.000 C 
ATOM     21  C   UNL     1       7.215   5.248  14.337  0.00  0.00    +0.000 C 
ATOM     22  C   UNL     1       5.356   4.210  15.620  0.00  0.00    +0.000 C 
ENDBRANCH  18  20
ENDBRANCH  14  18
ENDBRANCH   1  16
BRANCH   1  23
ATOM     23  C   UNL     1       2.032   8.165  17.893  0.00  0.00    +0.000 C 
BRANCH  23  24
ATOM     24  C   UNL     1       1.445   8.746  19.147  0.00  0.00    +0.000 A 
ATOM     25  C   UNL     1       1.753   8.353  20.436  0.00  0.00    +0.000 A 
ATOM     26  N   UNL     1       1.142   9.214  21.302  0.00  0.00    +0.000 N 
ATOM     27  C   UNL     1       0.313  10.067  20.616  0.00  0.00    +0.000 A 
ATOM     28  C   UNL     1      -0.541  11.065  21.096  0.00  0.00    +0.000 A 
ATOM     29  C   UNL     1      -1.362  11.714  20.171  0.00  0.00    +0.000 A 
ATOM     30  C   UNL     1      -1.299  11.400  18.816  0.00  0.00    +0.000 A 
ATOM     31  C   UNL     1      -0.383  10.451  18.343  0.00  0.00    +0.000 A 
ATOM     32  C   UNL     1       0.438   9.760  19.259  0.00  0.00    +0.000 A 
ATOM     33  H   UNL     1       1.239   9.196  22.307  0.00  0.00    +0.000 HD
ENDBRANCH  23  24
ENDBRANCH   1  23
TORSDOF 9
ENDMDL
MODEL 2
REMARK VINA RESULT:      -7.4      1.509      1.788
REMARK  Name = 
REMARK  12 active torsions:
REMARK  status: ('A' for Active; 'I' for Inactive)
REMARK    1  A    between atoms: C_1  and  C_2
REMARK    2  A    between atoms: C_2  and  C_3
REMARK    3  A    between atoms: C_2  and  C_4
REMARK    4  A    between atoms: C_2  and  O_5
REMARK    5  A    between atoms: O_5  and  C_6
REMARK    6  A    between atoms: N_8  and  C_9
REMARK    7  A    between atoms: C_9  and  C_10
REMARK    8  A    between atoms: C_9  and  C_20
REMARK    9  A    between atoms: C_10  and  C_11
REMARK   10  A    between atoms: C_23  and  S_24
REMARK   11  A    between atoms: S_24  and  C_25
REMARK   12  A    between atoms: C_25  and  C_26
REMARK                            x       y       z     vdW  Elec       q    Type
REMARK                         _______ _______ _______ _____ _____    ______ ____
ROOT
ATOM      1  C   UNL     1       2.997   7.406  18.124  0.00  0.00    +0.000 C 
ENDROOT
BRANCH   1   2
ATOM      2  C   UNL     1       2.601   6.209  18.945  0.00  0.00    +0.000 A 
ATOM      3  N   UNL     1       2.370   6.172  20.243  0.00  0.00    +0.000 NA
ATOM      4  N   UNL     1       2.042   4.874  20.549  0.00  0.00    +0.000 NA
ATOM      5  C   UNL     1       2.103   4.189  19.426  0.00  0.00    +0.000 A 
ATOM      6  O   UNL     1       2.475   4.973  18.355  0.00  0.00    +0.000 OA
BRANCH   5   7
ATOM      7  S   UNL     1       1.785   2.482  19.317  0.00  0.00    +0.000 S 
BRANCH   7   8
ATOM      8  C   UNL     1       3.422   1.906  18.763  0.00  0.00    +0.000 C 
BRANCH   8   9
ATOM      9  C   UNL     1       4.511   2.450  19.667  0.00  0.00    +0.000 C 
ATOM     10  N   UNL     1       4.744   1.750  20.819  0.00  0.00    +0.000 N 
ATOM     11  O   UNL     1       5.202   3.422  19.384  0.00  0.00    +0.000 OA
ATOM     12  H   UNL     1       4.075   1.088  21.184  0.00  0.00    +0.000 HD
ATOM     13  H   UNL     1       5.432   2.135  21.456  0.00  0.00    +0.000 HD
ENDBRANCH   8   9
ENDBRANCH   7   8
ENDBRANCH   5   7
ENDBRANCH   1   2
BRANCH   1  16
ATOM     14  C   UNL     1       5.180   6.667  17.258  0.00  0.00    +0.000 C 
ATOM     15  O   UNL     1       5.639   6.538  18.380  0.00  0.00    +0.000 OA
ATOM     16  N   UNL     1       3.895   7.078  17.017  0.00  0.00    +0.000 N 
ATOM     17  H   UNL     1       3.581   7.130  16.058  0.00  0.00    +0.000 HD
BRANCH  14  18
ATOM     18  O   UNL     1       5.852   6.429  16.102  0.00  0.00    +0.000 OA
BRANCH  18  20
ATOM     19  C   UNL     1       7.354   4.585  16.810  0.00  0.00    +0.000 C 
ATOM     20  C   UNL     1       6.299   5.071  15.803  0.00  0.00    +0.000 C 
ATOM     21  C   UNL     1       6.803   4.945  14.358  0.00  0.00    +0.000 C 
ATOM     22  C   UNL     1       5.060   4.172  15.953  0.00  0.00    +0.000 C 
ENDBRANCH  18  20
ENDBRANCH  14  18
ENDBRANCH   1  16
BRANCH   1  23
ATOM     23  C   UNL     1       1.732   8.217  17.716  0.00  0.00    +0.000 C 
BRANCH  23  24
ATOM     24  C   UNL     1       1.581   9.521  18.446  0.00  0.00    +0.000 A 
ATOM     25  C   UNL     1       2.100  10.735  18.040  0.00  0.00    +0.000 A 
ATOM     26  N   UNL     1       1.620  11.705  18.873  0.00  0.00    +0.000 N 
ATOM     27  C   UNL     1       0.926  11.135  19.913  0.00  0.00    +0.000 A 
ATOM     28  C   UNL     1       0.317  11.735  21.019  0.00  0.00    +0.000 A 
ATOM     29  C   UNL     1      -0.230  10.895  21.991  0.00  0.00    +0.000 A 
ATOM     30  C   UNL     1      -0.200   9.511  21.839  0.00  0.00    +0.000 A 
ATOM     31  C   UNL     1       0.348   8.929  20.688  0.00  0.00    +0.000 A 
ATOM     32  C   UNL     1       0.933   9.754  19.703  0.00  0.00    +0.000 A 
ATOM     33  H   UNL     1       1.793  12.695  18.777  0.00  0.00    +0.000 HD
ENDBRANCH  23  24
ENDBRANCH   1  23
TORSDOF 9
ENDMDL
MODEL 3
REMARK VINA RESULT:      -7.4      1.542      1.942
REMARK  Name = 
REMARK  12 active torsions:
REMARK  status: ('A' for Active; 'I' for Inactive)
REMARK    1  A    between atoms: C_1  and  C_2
REMARK    2  A    between atoms: C_2  and  C_3
REMARK    3  A    between atoms: C_2  and  C_4
REMARK    4  A    between atoms: C_2  and  O_5
REMARK    5  A    between atoms: O_5  and  C_6
REMARK    6  A    between atoms: N_8  and  C_9
REMARK    7  A    between atoms: C_9  and  C_10
REMARK    8  A    between atoms: C_9  and  C_20
REMARK    9  A    between atoms: C_10  and  C_11
REMARK   10  A    between atoms: C_23  and  S_24
REMARK   11  A    between atoms: S_24  and  C_25
REMARK   12  A    between atoms: C_25  and  C_26
REMARK                            x       y       z     vdW  Elec       q    Type
REMARK                         _______ _______ _______ _____ _____    ______ ____
ROOT
ATOM      1  C   UNL     1       2.942   7.740  18.051  0.00  0.00    +0.000 C 
ENDROOT
BRANCH   1   2
ATOM      2  C   UNL     1       2.471   6.656  18.982  0.00  0.00    +0.000 A 
ATOM      3  N   UNL     1       2.209   6.768  20.270  0.00  0.00    +0.000 NA
ATOM      4  N   UNL     1       1.812   5.526  20.701  0.00  0.00    +0.000 NA
ATOM      5  C   UNL     1       1.864   4.724  19.659  0.00  0.00    +0.000 A 
ATOM      6  O   UNL     1       2.297   5.371  18.522  0.00  0.00    +0.000 OA
BRANCH   5   7
ATOM      7  S   UNL     1       1.467   3.031  19.721  0.00  0.00    +0.000 S 
BRANCH   7   8
ATOM      8  C   UNL     1       2.951   2.404  20.569  0.00  0.00    +0.000 C 
BRANCH   8   9
ATOM      9  C   UNL     1       4.123   2.338  19.609  0.00  0.00    +0.000 C 
ATOM     10  N   UNL     1       4.059   1.370  18.645  0.00  0.00    +0.000 N 
ATOM     11  O   UNL     1       5.061   3.127  19.630  0.00  0.00    +0.000 OA
ATOM     12  H   UNL     1       3.428   0.585  18.719  0.00  0.00    +0.000 HD
ATOM     13  H   UNL     1       4.861   1.281  18.033  0.00  0.00    +0.000 HD
ENDBRANCH   8   9
ENDBRANCH   7   8
ENDBRANCH   5   7
ENDBRANCH   1   2
BRANCH   1  16
ATOM     14  C   UNL     1       5.035   6.778  17.181  0.00  0.00    +0.000 C 
ATOM     15  O   UNL     1       5.539   6.741  18.289  0.00  0.00    +0.000 OA
ATOM     16  N   UNL     1       3.766   7.239  16.950  0.00  0.00    +0.000 N 
ATOM     17  H   UNL     1       3.409   7.208  16.005  0.00  0.00    +0.000 HD
BRANCH  14  18
ATOM     18  O   UNL     1       5.635   6.376  16.030  0.00  0.00    +0.000 OA
BRANCH  18  20
ATOM     19  C   UNL     1       4.801   4.047  16.235  0.00  0.00    +0.000 C 
ATOM     20  C   UNL     1       5.975   4.965  15.857  0.00  0.00    +0.000 C 
ATOM     21  C   UNL     1       7.250   4.591  16.626  0.00  0.00    +0.000 C 
ATOM     22  C   UNL     1       6.253   4.775  14.356  0.00  0.00    +0.000 C 
ENDBRANCH  18  20
ENDBRANCH  14  18
ENDBRANCH   1  16
BRANCH   1  23
ATOM     23  C   UNL     1       1.742   8.629  17.612  0.00  0.00    +0.000 C 
BRANCH  23  24
ATOM     24  C   UNL     1       1.657   9.941  18.337  0.00  0.00    +0.000 A 
ATOM     25  C   UNL     1       2.312  11.103  17.977  0.00  0.00    +0.000 A 
ATOM     26  N   UNL     1       1.863  12.113  18.779  0.00  0.00    +0.000 N 
ATOM     27  C   UNL     1       1.047  11.608  19.763  0.00  0.00    +0.000 A 
ATOM     28  C   UNL     1       0.416  12.263  20.826  0.00  0.00    +0.000 A 
ATOM     29  C   UNL     1      -0.274  11.476  21.751  0.00  0.00    +0.000 A 
ATOM     30  C   UNL     1      -0.359  10.095  21.593  0.00  0.00    +0.000 A 
ATOM     31  C   UNL     1       0.216   9.465  20.480  0.00  0.00    +0.000 A 
ATOM     32  C   UNL     1       0.943  10.233  19.546  0.00  0.00    +0.000 A 
ATOM     33  H   UNL     1       2.131  13.083  18.702  0.00  0.00    +0.000 HD
ENDBRANCH  23  24
ENDBRANCH   1  23
TORSDOF 9
ENDMDL
MODEL 4
REMARK VINA RESULT:      -7.3      2.752      7.169
REMARK  Name = 
REMARK  12 active torsions:
REMARK  status: ('A' for Active; 'I' for Inactive)
REMARK    1  A    between atoms: C_1  and  C_2
REMARK    2  A    between atoms: C_2  and  C_3
REMARK    3  A    between atoms: C_2  and  C_4
REMARK    4  A    between atoms: C_2  and  O_5
REMARK    5  A    between atoms: O_5  and  C_6
REMARK    6  A    between atoms: N_8  and  C_9
REMARK    7  A    between atoms: C_9  and  C_10
REMARK    8  A    between atoms: C_9  and  C_20
REMARK    9  A    between atoms: C_10  and  C_11
REMARK   10  A    between atoms: C_23  and  S_24
REMARK   11  A    between atoms: S_24  and  C_25
REMARK   12  A    between atoms: C_25  and  C_26
REMARK                            x       y       z     vdW  Elec       q    Type
REMARK                         _______ _______ _______ _____ _____    ______ ____
ROOT
ATOM      1  C   UNL     1       2.923   7.267  18.799  0.00  0.00    +0.000 C 
ENDROOT
BRANCH   1   2
ATOM      2  C   UNL     1       2.031   8.466  18.631  0.00  0.00    +0.000 A 
ATOM      3  N   UNL     1       1.983   9.288  17.600  0.00  0.00    +0.000 NA
ATOM      4  N   UNL     1       1.025  10.229  17.889  0.00  0.00    +0.000 NA
ATOM      5  C   UNL     1       0.551   9.938  19.083  0.00  0.00    +0.000 A 
ATOM      6  O   UNL     1       1.161   8.831  19.633  0.00  0.00    +0.000 OA
BRANCH   5   7
ATOM      7  S   UNL     1      -0.679  10.870  19.887  0.00  0.00    +0.000 S 
BRANCH   7   8
ATOM      8  C   UNL     1       0.228  11.325  21.399  0.00  0.00    +0.000 C 
BRANCH   8   9
ATOM      9  C   UNL     1      -0.193  10.443  22.558  0.00  0.00    +0.000 C 
ATOM     10  N   UNL     1       0.443   9.236  22.660  0.00  0.00    +0.000 N 
ATOM     11  O   UNL     1      -1.010  10.783  23.406  0.00  0.00    +0.000 OA
ATOM     12  H   UNL     1       0.953   8.836  21.886  0.00  0.00    +0.000 HD
ATOM     13  H   UNL     1       0.132   8.616  23.398  0.00  0.00    +0.000 HD
ENDBRANCH   8   9
ENDBRANCH   7   8
ENDBRANCH   5   7
ENDBRANCH   1   2
BRANCH   1  16
ATOM     14  C   UNL     1       1.886   5.197  19.635  0.00  0.00    +0.000 C 
ATOM     15  O   UNL     1       2.109   5.493  20.796  0.00  0.00    +0.000 OA
ATOM     16  N   UNL     1       2.233   5.996  18.578  0.00  0.00    +0.000 N 
ATOM     17  H   UNL     1       1.985   5.693  17.647  0.00  0.00    +0.000 HD
BRANCH  14  18
ATOM     18  O   UNL     1       1.272   4.059  19.219  0.00  0.00    +0.000 OA
BRANCH  18  20
ATOM     19  C   UNL     1       3.242   2.643  19.738  0.00  0.00    +0.000 C 
ATOM     20  C   UNL     1       2.085   2.932  18.769  0.00  0.00    +0.000 C 
ATOM     21  C   UNL     1       2.592   3.135  17.335  0.00  0.00    +0.000 C 
ATOM     22  C   UNL     1       1.154   1.707  18.774  0.00  0.00    +0.000 C 
ENDBRANCH  18  20
ENDBRANCH  14  18
ENDBRANCH   1  16
BRANCH   1  23
ATOM     23  C   UNL     1       4.228   7.450  17.970  0.00  0.00    +0.000 C 
BRANCH  23  24
ATOM     24  C   UNL     1       5.001   6.179  17.759  0.00  0.00    +0.000 A 
ATOM     25  C   UNL     1       5.554   5.399  18.758  0.00  0.00    +0.000 A 
ATOM     26  N   UNL     1       6.034   4.255  18.189  0.00  0.00    +0.000 N 
ATOM     27  C   UNL     1       5.952   4.336  16.820  0.00  0.00    +0.000 A 
ATOM     28  C   UNL     1       6.373   3.429  15.842  0.00  0.00    +0.000 A 
ATOM     29  C   UNL     1       6.265   3.822  14.506  0.00  0.00    +0.000 A 
ATOM     30  C   UNL     1       5.720   5.058  14.166  0.00  0.00    +0.000 A 
ATOM     31  C   UNL     1       5.233   5.922  15.157  0.00  0.00    +0.000 A 
ATOM     32  C   UNL     1       5.357   5.562  16.515  0.00  0.00    +0.000 A 
ATOM     33  H   UNL     1       6.443   3.480  18.691  0.00  0.00    +0.000 HD
ENDBRANCH  23  24
ENDBRANCH   1  23
TORSDOF 9
ENDMDL
MODEL 5
REMARK VINA RESULT:      -7.2      5.121      9.307
REMARK  Name = 
REMARK  12 active torsions:
REMARK  status: ('A' for Active; 'I' for Inactive)
REMARK    1  A    between atoms: C_1  and  C_2
REMARK    2  A    between atoms: C_2  and  C_3
REMARK    3  A    between atoms: C_2  and  C_4
REMARK    4  A    between atoms: C_2  and  O_5
REMARK    5  A    between atoms: O_5  and  C_6
REMARK    6  A    between atoms: N_8  and  C_9
REMARK    7  A    between atoms: C_9  and  C_10
REMARK    8  A    between atoms: C_9  and  C_20
REMARK    9  A    between atoms: C_10  and  C_11
REMARK   10  A    between atoms: C_23  and  S_24
REMARK   11  A    between atoms: S_24  and  C_25
REMARK   12  A    between atoms: C_25  and  C_26
REMARK                            x       y       z     vdW  Elec       q    Type
REMARK                         _______ _______ _______ _____ _____    ______ ____
ROOT
ATOM      1  C   UNL     1       0.635  10.619  18.907  0.00  0.00    +0.000 C 
ENDROOT
BRANCH   1   2
ATOM      2  C   UNL     1       1.333  11.734  19.637  0.00  0.00    +0.000 A 
ATOM      3  N   UNL     1       1.358  11.943  20.939  0.00  0.00    +0.000 NA
ATOM      4  N   UNL     1       2.113  13.072  21.143  0.00  0.00    +0.000 NA
ATOM      5  C   UNL     1       2.496  13.496  19.956  0.00  0.00    +0.000 A 
ATOM      6  O   UNL     1       2.018  12.700  18.938  0.00  0.00    +0.000 OA
BRANCH   5   7
ATOM      7  S   UNL     1       3.463  14.921  19.705  0.00  0.00    +0.000 S 
BRANCH   7   8
ATOM      8  C   UNL     1       2.975  15.319  17.997  0.00  0.00    +0.000 C 
BRANCH   8   9
ATOM      9  C   UNL     1       2.608  16.785  17.877  0.00  0.00    +0.000 C 
ATOM     10  N   UNL     1       2.045  17.358  18.984  0.00  0.00    +0.000 N 
ATOM     11  O   UNL     1       2.843  17.463  16.883  0.00  0.00    +0.000 OA
ATOM     12  H   UNL     1       1.648  16.803  19.728  0.00  0.00    +0.000 HD
ATOM     13  H   UNL     1       1.746  18.323  18.897  0.00  0.00    +0.000 HD
ENDBRANCH   8   9
ENDBRANCH   7   8
ENDBRANCH   5   7
ENDBRANCH   1   2
BRANCH   1  16
ATOM     14  C   UNL     1      -1.603  11.516  18.411  0.00  0.00    +0.000 C 
ATOM     15  O   UNL     1      -1.909  11.545  19.590  0.00  0.00    +0.000 OA
ATOM     16  N   UNL     1      -0.380  11.090  17.965  0.00  0.00    +0.000 N 
ATOM     17  H   UNL     1      -0.193  11.127  16.972  0.00  0.00    +0.000 HD
BRANCH  14  18
ATOM     18  O   UNL     1      -2.405  11.896  17.382  0.00  0.00    +0.000 OA
BRANCH  18  20
ATOM     19  C   UNL     1      -3.303   9.589  17.551  0.00  0.00    +0.000 C 
ATOM     20  C   UNL     1      -3.294  10.912  16.769  0.00  0.00    +0.000 C 
ATOM     21  C   UNL     1      -2.955  10.686  15.289  0.00  0.00    +0.000 C 
ATOM     22  C   UNL     1      -4.709  11.511  16.846  0.00  0.00    +0.000 C 
ENDBRANCH  18  20
ENDBRANCH  14  18
ENDBRANCH   1  16
BRANCH   1  23
ATOM     23  C   UNL     1       1.681   9.640  18.298  0.00  0.00    +0.000 C 
BRANCH  23  24
ATOM     24  C   UNL     1       1.933   8.418  19.134  0.00  0.00    +0.000 A 
ATOM     25  C   UNL     1       1.483   8.221  20.426  0.00  0.00    +0.000 A 
ATOM     26  N   UNL     1       1.775   6.937  20.789  0.00  0.00    +0.000 N 
ATOM     27  C   UNL     1       2.546   6.336  19.823  0.00  0.00    +0.000 A 
ATOM     28  C   UNL     1       3.115   5.059  19.799  0.00  0.00    +0.000 A 
ATOM     29  C   UNL     1       3.955   4.746  18.728  0.00  0.00    +0.000 A 
ATOM     30  C   UNL     1       4.181   5.663  17.705  0.00  0.00    +0.000 A 
ATOM     31  C   UNL     1       3.542   6.911  17.708  0.00  0.00    +0.000 A 
ATOM     32  C   UNL     1       2.711   7.264  18.792  0.00  0.00    +0.000 A 
ATOM     33  H   UNL     1       1.513   6.504  21.662  0.00  0.00    +0.000 HD
ENDBRANCH  23  24
ENDBRANCH   1  23
TORSDOF 9
ENDMDL
MODEL 6
REMARK VINA RESULT:      -7.2      4.569      6.979
REMARK  Name = 
REMARK  12 active torsions:
REMARK  status: ('A' for Active; 'I' for Inactive)
REMARK    1  A    between atoms: C_1  and  C_2
REMARK    2  A    between atoms: C_2  and  C_3
REMARK    3  A    between atoms: C_2  and  C_4
REMARK    4  A    between atoms: C_2  and  O_5
REMARK    5  A    between atoms: O_5  and  C_6
REMARK    6  A    between atoms: N_8  and  C_9
REMARK    7  A    between atoms: C_9  and  C_10
REMARK    8  A    between atoms: C_9  and  C_20
REMARK    9  A    between atoms: C_10  and  C_11
REMARK   10  A    between atoms: C_23  and  S_24
REMARK   11  A    between atoms: S_24  and  C_25
REMARK   12  A    between atoms: C_25  and  C_26
REMARK                            x       y       z     vdW  Elec       q    Type
REMARK                         _______ _______ _______ _____ _____    ______ ____
ROOT
ATOM      1  C   UNL     1       5.941   4.801  16.965  0.00  0.00    +0.000 C 
ENDROOT
BRANCH   1   2
ATOM      2  C   UNL     1       6.836   5.872  17.527  0.00  0.00    +0.000 A 
ATOM      3  N   UNL     1       7.696   5.754  18.519  0.00  0.00    +0.000 NA
ATOM      4  N   UNL     1       8.284   6.985  18.680  0.00  0.00    +0.000 NA
ATOM      5  C   UNL     1       7.741   7.788  17.788  0.00  0.00    +0.000 A 
ATOM      6  O   UNL     1       6.788   7.151  17.023  0.00  0.00    +0.000 OA
BRANCH   5   7
ATOM      7  S   UNL     1       8.157   9.470  17.623  0.00  0.00    +0.000 S 
BRANCH   7   8
ATOM      8  C   UNL     1       9.077   9.707  19.176  0.00  0.00    +0.000 C 
BRANCH   8   9
ATOM      9  C   UNL     1       9.679  11.097  19.230  0.00  0.00    +0.000 C 
ATOM     10  N   UNL     1      10.037  11.646  18.030  0.00  0.00    +0.000 N 
ATOM     11  O   UNL     1       9.797  11.743  20.265  0.00  0.00    +0.000 OA
ATOM     12  H   UNL     1      10.153  11.083  17.200  0.00  0.00    +0.000 HD
ATOM     13  H   UNL     1      10.491  12.552  18.059  0.00  0.00    +0.000 HD
ENDBRANCH   8   9
ENDBRANCH   7   8
ENDBRANCH   5   7
ENDBRANCH   1   2
BRANCH   1  16
ATOM     14  C   UNL     1       5.972   4.059  14.618  0.00  0.00    +0.000 C 
ATOM     15  O   UNL     1       4.953   4.674  14.357  0.00  0.00    +0.000 OA
ATOM     16  N   UNL     1       6.549   4.059  15.861  0.00  0.00    +0.000 N 
ATOM     17  H   UNL     1       7.412   3.548  15.988  0.00  0.00    +0.000 HD
BRANCH  14  18
ATOM     18  O   UNL     1       6.678   3.300  13.740  0.00  0.00    +0.000 OA
BRANCH  18  20
ATOM     19  C   UNL     1       4.926   3.649  12.018  0.00  0.00    +0.000 C 
ATOM     20  C   UNL     1       6.420   3.436  12.309  0.00  0.00    +0.000 C 
ATOM     21  C   UNL     1       6.983   2.249  11.516  0.00  0.00    +0.000 C 
ATOM     22  C   UNL     1       7.168   4.704  11.860  0.00  0.00    +0.000 C 
ENDBRANCH  18  20
ENDBRANCH  14  18
ENDBRANCH   1  16
BRANCH   1  23
ATOM     23  C   UNL     1       5.383   3.911  18.115  0.00  0.00    +0.000 C 
BRANCH  23  24
ATOM     24  C   UNL     1       3.922   4.118  18.393  0.00  0.00    +0.000 A 
ATOM     25  C   UNL     1       3.060   4.886  17.633  0.00  0.00    +0.000 A 
ATOM     26  N   UNL     1       1.793   4.702  18.108  0.00  0.00    +0.000 N 
ATOM     27  C   UNL     1       1.823   3.955  19.260  0.00  0.00    +0.000 A 
ATOM     28  C   UNL     1       0.778   3.573  20.107  0.00  0.00    +0.000 A 
ATOM     29  C   UNL     1       1.113   2.900  21.284  0.00  0.00    +0.000 A 
ATOM     30  C   UNL     1       2.438   2.590  21.578  0.00  0.00    +0.000 A 
ATOM     31  C   UNL     1       3.465   2.914  20.681  0.00  0.00    +0.000 A 
ATOM     32  C   UNL     1       3.158   3.620  19.498  0.00  0.00    +0.000 A 
ATOM     33  H   UNL     1       0.956   5.100  17.706  0.00  0.00    +0.000 HD
ENDBRANCH  23  24
ENDBRANCH   1  23
TORSDOF 9
ENDMDL
MODEL 7
REMARK VINA RESULT:      -7.2      1.362      1.692
REMARK  Name = 
REMARK  12 active torsions:
REMARK  status: ('A' for Active; 'I' for Inactive)
REMARK    1  A    between atoms: C_1  and  C_2
REMARK    2  A    between atoms: C_2  and  C_3
REMARK    3  A    between atoms: C_2  and  C_4
REMARK    4  A    between atoms: C_2  and  O_5
REMARK    5  A    between atoms: O_5  and  C_6
REMARK    6  A    between atoms: N_8  and  C_9
REMARK    7  A    between atoms: C_9  and  C_10
REMARK    8  A    between atoms: C_9  and  C_20
REMARK    9  A    between atoms: C_10  and  C_11
REMARK   10  A    between atoms: C_23  and  S_24
REMARK   11  A    between atoms: S_24  and  C_25
REMARK   12  A    between atoms: C_25  and  C_26
REMARK                            x       y       z     vdW  Elec       q    Type
REMARK                         _______ _______ _______ _____ _____    ______ ____
ROOT
ATOM      1  C   UNL     1       2.900   7.618  18.075  0.00  0.00    +0.000 C 
ENDROOT
BRANCH   1   2
ATOM      2  C   UNL     1       2.368   6.439  18.843  0.00  0.00    +0.000 A 
ATOM      3  N   UNL     1       2.172   6.356  20.145  0.00  0.00    +0.000 NA
ATOM      4  N   UNL     1       1.678   5.099  20.391  0.00  0.00    +0.000 NA
ATOM      5  C   UNL     1       1.613   4.480  19.230  0.00  0.00    +0.000 A 
ATOM      6  O   UNL     1       2.057   5.268  18.191  0.00  0.00    +0.000 OA
BRANCH   5   7
ATOM      7  S   UNL     1       1.062   2.840  19.040  0.00  0.00    +0.000 S 
BRANCH   7   8
ATOM      8  C   UNL     1       2.370   2.208  17.942  0.00  0.00    +0.000 C 
BRANCH   8   9
ATOM      9  C   UNL     1       3.568   1.750  18.751  0.00  0.00    +0.000 C 
ATOM     10  N   UNL     1       4.206   0.628  18.299  0.00  0.00    +0.000 N 
ATOM     11  O   UNL     1       4.002   2.359  19.722  0.00  0.00    +0.000 OA
ATOM     12  H   UNL     1       3.769  -0.008  17.648  0.00  0.00    +0.000 HD
ATOM     13  H   UNL     1       4.974   0.281  18.862  0.00  0.00    +0.000 HD
ENDBRANCH   8   9
ENDBRANCH   7   8
ENDBRANCH   5   7
ENDBRANCH   1   2
BRANCH   1  16
ATOM     14  C   UNL     1       5.076   6.627  17.491  0.00  0.00    +0.000 C 
ATOM     15  O   UNL     1       5.305   6.321  18.648  0.00  0.00    +0.000 OA
ATOM     16  N   UNL     1       3.926   7.257  17.097  0.00  0.00    +0.000 N 
ATOM     17  H   UNL     1       3.798   7.449  16.112  0.00  0.00    +0.000 HD
BRANCH  14  18
ATOM     18  O   UNL     1       5.903   6.394  16.438  0.00  0.00    +0.000 OA
BRANCH  18  20
ATOM     19  C   UNL     1       5.097   4.060  16.200  0.00  0.00    +0.000 C 
ATOM     20  C   UNL     1       6.293   5.022  16.126  0.00  0.00    +0.000 C 
ATOM     21  C   UNL     1       7.452   4.546  17.012  0.00  0.00    +0.000 C 
ATOM     22  C   UNL     1       6.788   5.041  14.669  0.00  0.00    +0.000 C 
ENDBRANCH  18  20
ENDBRANCH  14  18
ENDBRANCH   1  16
BRANCH   1  23
ATOM     23  C   UNL     1       1.722   8.459  17.500  0.00  0.00    +0.000 C 
BRANCH  23  24
ATOM     24  C   UNL     1       1.096   9.392  18.496  0.00  0.00    +0.000 A 
ATOM     25  C   UNL     1       1.639   9.749  19.716  0.00  0.00    +0.000 A 
ATOM     26  N   UNL     1       0.859  10.729  20.260  0.00  0.00    +0.000 N 
ATOM     27  C   UNL     1      -0.271  10.911  19.500  0.00  0.00    +0.000 A 
ATOM     28  C   UNL     1      -1.362  11.761  19.707  0.00  0.00    +0.000 A 
ATOM     29  C   UNL     1      -2.438  11.660  18.822  0.00  0.00    +0.000 A 
ATOM     30  C   UNL     1      -2.402  10.770  17.752  0.00  0.00    +0.000 A 
ATOM     31  C   UNL     1      -1.268   9.980  17.516  0.00  0.00    +0.000 A 
ATOM     32  C   UNL     1      -0.179  10.042  18.411  0.00  0.00    +0.000 A 
ATOM     33  H   UNL     1       1.050  11.215  21.124  0.00  0.00    +0.000 HD
ENDBRANCH  23  24
ENDBRANCH   1  23
TORSDOF 9
ENDMDL
MODEL 8
REMARK VINA RESULT:      -7.1      1.755      2.557
REMARK  Name = 
REMARK  12 active torsions:
REMARK  status: ('A' for Active; 'I' for Inactive)
REMARK    1  A    between atoms: C_1  and  C_2
REMARK    2  A    between atoms: C_2  and  C_3
REMARK    3  A    between atoms: C_2  and  C_4
REMARK    4  A    between atoms: C_2  and  O_5
REMARK    5  A    between atoms: O_5  and  C_6
REMARK    6  A    between atoms: N_8  and  C_9
REMARK    7  A    between atoms: C_9  and  C_10
REMARK    8  A    between atoms: C_9  and  C_20
REMARK    9  A    between atoms: C_10  and  C_11
REMARK   10  A    between atoms: C_23  and  S_24
REMARK   11  A    between atoms: S_24  and  C_25
REMARK   12  A    between atoms: C_25  and  C_26
REMARK                            x       y       z     vdW  Elec       q    Type
REMARK                         _______ _______ _______ _____ _____    ______ ____
ROOT
ATOM      1  C   UNL     1       3.767   6.288  17.859  0.00  0.00    +0.000 C 
ENDROOT
BRANCH   1   2
ATOM      2  C   UNL     1       3.980   5.135  18.801  0.00  0.00    +0.000 A 
ATOM      3  N   UNL     1       5.091   4.449  18.986  0.00  0.00    +0.000 NA
ATOM      4  N   UNL     1       4.814   3.497  19.936  0.00  0.00    +0.000 NA
ATOM      5  C   UNL     1       3.548   3.644  20.268  0.00  0.00    +0.000 A 
ATOM      6  O   UNL     1       2.939   4.663  19.567  0.00  0.00    +0.000 OA
BRANCH   5   7
ATOM      7  S   UNL     1       2.731   2.640  21.431  0.00  0.00    +0.000 S 
BRANCH   7   8
ATOM      8  C   UNL     1       1.069   2.610  20.689  0.00  0.00    +0.000 C 
BRANCH   8   9
ATOM      9  C   UNL     1       1.140   2.164  19.242  0.00  0.00    +0.000 C 
ATOM     10  N   UNL     1       2.289   1.524  18.865  0.00  0.00    +0.000 N 
ATOM     11  O   UNL     1       0.218   2.298  18.446  0.00  0.00    +0.000 OA
ATOM     12  H   UNL     1       3.135   1.579  19.413  0.00  0.00    +0.000 HD
ATOM     13  H   UNL     1       2.370   1.270  17.887  0.00  0.00    +0.000 HD
ENDBRANCH   8   9
ENDBRANCH   7   8
ENDBRANCH   5   7
ENDBRANCH   1   2
BRANCH   1  16
ATOM     14  C   UNL     1       5.594   6.572  16.233  0.00  0.00    +0.000 C 
ATOM     15  O   UNL     1       6.273   7.197  17.028  0.00  0.00    +0.000 OA
ATOM     16  N   UNL     1       4.355   6.072  16.537  0.00  0.00    +0.000 N 
ATOM     17  H   UNL     1       3.868   5.537  15.830  0.00  0.00    +0.000 HD
BRANCH  14  18
ATOM     18  O   UNL     1       5.950   6.278  14.955  0.00  0.00    +0.000 OA
BRANCH  18  20
ATOM     19  C   UNL     1       5.481   4.037  13.997  0.00  0.00    +0.000 C 
ATOM     20  C   UNL     1       6.515   4.964  14.656  0.00  0.00    +0.000 C 
ATOM     21  C   UNL     1       7.136   4.317  15.901  0.00  0.00    +0.000 C 
ATOM     22  C   UNL     1       7.641   5.208  13.636  0.00  0.00    +0.000 C 
ENDBRANCH  18  20
ENDBRANCH  14  18
ENDBRANCH   1  16
BRANCH   1  23
ATOM     23  C   UNL     1       2.265   6.696  17.842  0.00  0.00    +0.000 C 
BRANCH  23  24
ATOM     24  C   UNL     1       2.013   8.117  18.257  0.00  0.00    +0.000 A 
ATOM     25  C   UNL     1       2.222   9.234  17.470  0.00  0.00    +0.000 A 
ATOM     26  N   UNL     1       1.733  10.322  18.134  0.00  0.00    +0.000 N 
ATOM     27  C   UNL     1       1.352   9.969  19.406  0.00  0.00    +0.000 A 
ATOM     28  C   UNL     1       0.853  10.762  20.444  0.00  0.00    +0.000 A 
ATOM     29  C   UNL     1       0.651  10.151  21.684  0.00  0.00    +0.000 A 
ATOM     30  C   UNL     1       0.903   8.793  21.862  0.00  0.00    +0.000 A 
ATOM     31  C   UNL     1       1.331   7.998  20.790  0.00  0.00    +0.000 A 
ATOM     32  C   UNL     1       1.570   8.595  19.534  0.00  0.00    +0.000 A 
ATOM     33  H   UNL     1       1.703  11.263  17.770  0.00  0.00    +0.000 HD
ENDBRANCH  23  24
ENDBRANCH   1  23
TORSDOF 9
ENDMDL
MODEL 9
REMARK VINA RESULT:      -7.1      0.642      1.021
REMARK  Name = 
REMARK  12 active torsions:
REMARK  status: ('A' for Active; 'I' for Inactive)
REMARK    1  A    between atoms: C_1  and  C_2
REMARK    2  A    between atoms: C_2  and  C_3
REMARK    3  A    between atoms: C_2  and  C_4
REMARK    4  A    between atoms: C_2  and  O_5
REMARK    5  A    between atoms: O_5  and  C_6
REMARK    6  A    between atoms: N_8  and  C_9
REMARK    7  A    between atoms: C_9  and  C_10
REMARK    8  A    between atoms: C_9  and  C_20
REMARK    9  A    between atoms: C_10  and  C_11
REMARK   10  A    between atoms: C_23  and  S_24
REMARK   11  A    between atoms: S_24  and  C_25
REMARK   12  A    between atoms: C_25  and  C_26
REMARK                            x       y       z     vdW  Elec       q    Type
REMARK                         _______ _______ _______ _____ _____    ______ ____
ROOT
ATOM      1  C   UNL     1       3.221   7.050  18.056  0.00  0.00    +0.000 C 
ENDROOT
BRANCH   1   2
ATOM      2  C   UNL     1       2.500   5.759  18.333  0.00  0.00    +0.000 A 
ATOM      3  N   UNL     1       1.469   5.264  17.676  0.00  0.00    +0.000 NA
ATOM      4  N   UNL     1       1.149   4.074  18.282  0.00  0.00    +0.000 NA
ATOM      5  C   UNL     1       1.992   3.914  19.281  0.00  0.00    +0.000 A 
ATOM      6  O   UNL     1       2.877   4.965  19.390  0.00  0.00    +0.000 OA
BRANCH   5   7
ATOM      7  S   UNL     1       1.964   2.550  20.360  0.00  0.00    +0.000 S 
BRANCH   7   8
ATOM      8  C   UNL     1       3.313   1.564  19.636  0.00  0.00    +0.000 C 
BRANCH   8   9
ATOM      9  C   UNL     1       4.658   2.057  20.132  0.00  0.00    +0.000 C 
ATOM     10  N   UNL     1       5.257   3.032  19.383  0.00  0.00    +0.000 N 
ATOM     11  O   UNL     1       5.179   1.670  21.172  0.00  0.00    +0.000 OA
ATOM     12  H   UNL     1       4.974   3.223  18.433  0.00  0.00    +0.000 HD
ATOM     13  H   UNL     1       6.181   3.330  19.675  0.00  0.00    +0.000 HD
ENDBRANCH   8   9
ENDBRANCH   7   8
ENDBRANCH   5   7
ENDBRANCH   1   2
BRANCH   1  16
ATOM     14  C   UNL     1       5.469   6.408  17.285  0.00  0.00    +0.000 C 
ATOM     15  O   UNL     1       5.787   6.000  18.389  0.00  0.00    +0.000 OA
ATOM     16  N   UNL     1       4.235   6.933  17.008  0.00  0.00    +0.000 N 
ATOM     17  H   UNL     1       4.039   7.221  16.059  0.00  0.00    +0.000 HD
BRANCH  14  18
ATOM     18  O   UNL     1       6.267   6.403  16.186  0.00  0.00    +0.000 OA
BRANCH  18  20
ATOM     19  C   UNL     1       7.341   5.338  14.217  0.00  0.00    +0.000 C 
ATOM     20  C   UNL     1       6.586   5.131  15.541  0.00  0.00    +0.000 C 
ATOM     21  C   UNL     1       5.334   4.266  15.343  0.00  0.00    +0.000 C 
ATOM     22  C   UNL     1       7.528   4.389  16.505  0.00  0.00    +0.000 C 
ENDBRANCH  18  20
ENDBRANCH  14  18
ENDBRANCH   1  16
BRANCH   1  23
ATOM     23  C   UNL     1       2.196   8.202  17.842  0.00  0.00    +0.000 C 
BRANCH  23  24
ATOM     24  C   UNL     1       1.546   8.684  19.108  0.00  0.00    +0.000 A 
ATOM     25  C   UNL     1       1.774   8.175  20.372  0.00  0.00    +0.000 A 
ATOM     26  N   UNL     1       1.127   8.970  21.275  0.00  0.00    +0.000 N 
ATOM     27  C   UNL     1       0.351   9.895  20.620  0.00  0.00    +0.000 A 
ATOM     28  C   UNL     1      -0.515  10.864  21.137  0.00  0.00    +0.000 A 
ATOM     29  C   UNL     1      -1.273  11.605  20.227  0.00  0.00    +0.000 A 
ATOM     30  C   UNL     1      -1.137  11.408  18.855  0.00  0.00    +0.000 A 
ATOM     31  C   UNL     1      -0.209  10.485  18.353  0.00  0.00    +0.000 A 
ATOM     32  C   UNL     1       0.549   9.703  19.251  0.00  0.00    +0.000 A 
ATOM     33  H   UNL     1       1.166   8.865  22.278  0.00  0.00    +0.000 HD
ENDBRANCH  23  24
ENDBRANCH   1  23
TORSDOF 9
ENDMDL
