MODEL 1
REMARK VINA RESULT:      -6.2      0.000      0.000
REMARK  Name = 
REMARK  4 active torsions:
REMARK  status: ('A' for Active; 'I' for Inactive)
REMARK    1  A    between atoms: C_1  and  N_2
REMARK    2  A    between atoms: C_12  and  C_13
REMARK    3  A    between atoms: N_19  and  C_20
REMARK    4  A    between atoms: C_23  and  O_24
REMARK                            x       y       z     vdW  Elec       q    Type
REMARK                         _______ _______ _______ _____ _____    ______ ____
ROOT
ATOM      1  C   UNL     1       4.709   1.969  20.707  0.00  0.00    +0.000 C 
ATOM      2  N   UNL     1       4.362   2.939  19.700  0.00  0.00    +0.000 N 
ATOM      3  C   UNL     1       5.279   3.733  19.015  0.00  0.00    +0.000 C 
ATOM      4  O   UNL     1       6.485   3.778  19.214  0.00  0.00    +0.000 OA
ATOM      5  C   UNL     1       4.499   4.581  17.980  0.00  0.00    +0.000 C 
ATOM      6  C   UNL     1       3.092   4.041  18.160  0.00  0.00    +0.000 A 
ATOM      7  C   UNL     1       1.920   4.338  17.477  0.00  0.00    +0.000 A 
ATOM      8  C   UNL     1       0.726   3.755  17.907  0.00  0.00    +0.000 A 
ATOM      9  C   UNL     1       0.712   2.865  18.991  0.00  0.00    +0.000 A 
ATOM     10  C   UNL     1       1.898   2.526  19.644  0.00  0.00    +0.000 A 
ATOM     11  C   UNL     1       3.070   3.123  19.211  0.00  0.00    +0.000 A 
ATOM     12  C   UNL     1       4.753   6.070  18.352  0.00  0.00    +0.000 C 
ATOM     13  N   UNL     1       5.582   6.602  17.277  0.00  0.00    +0.000 N 
ATOM     14  C   UNL     1       5.974   7.999  17.196  0.00  0.00    +0.000 C 
ATOM     15  C   UNL     1       5.704   5.740  16.208  0.00  0.00    +0.000 C 
ATOM     16  O   UNL     1       6.116   6.040  15.100  0.00  0.00    +0.000 OA
ATOM     17  C   UNL     1       5.170   4.367  16.609  0.00  0.00    +0.000 C 
ENDROOT
BRANCH  12  18
ATOM     18  C   UNL     1       3.511   6.926  18.587  0.00  0.00    +0.000 A 
ATOM     19  C   UNL     1       2.865   6.886  19.833  0.00  0.00    +0.000 A 
ATOM     20  C   UNL     1       1.763   7.705  20.087  0.00  0.00    +0.000 A 
ATOM     21  C   UNL     1       1.287   8.566  19.099  0.00  0.00    +0.000 A 
ATOM     22  C   UNL     1       1.897   8.594  17.849  0.00  0.00    +0.000 A 
ATOM     23  C   UNL     1       2.992   7.772  17.592  0.00  0.00    +0.000 A 
ENDBRANCH  12  18
BRANCH  17  24
ATOM     24  O   UNL     1       4.328   3.772  15.626  0.00  0.00    +0.000 OA
ATOM     25  H   UNL     1       3.922   2.983  16.025  0.00  0.00    +0.000 HD
ENDBRANCH  17  24
TORSDOF 2
ENDMDL
MODEL 2
REMARK VINA RESULT:      -5.9      2.344      4.986
REMARK  Name = 
REMARK  4 active torsions:
REMARK  status: ('A' for Active; 'I' for Inactive)
REMARK    1  A    between atoms: C_1  and  N_2
REMARK    2  A    between atoms: C_12  and  C_13
REMARK    3  A    between atoms: N_19  and  C_20
REMARK    4  A    between atoms: C_23  and  O_24
REMARK                            x       y       z     vdW  Elec       q    Type
REMARK                         _______ _______ _______ _____ _____    ______ ____
ROOT
ATOM      1  C   UNL     1       1.212   7.392  21.494  0.00  0.00    +0.000 C 
ATOM      2  N   UNL     1       1.817   6.595  20.457  0.00  0.00    +0.000 N 
ATOM      3  C   UNL     1       1.893   5.204  20.470  0.00  0.00    +0.000 C 
ATOM      4  O   UNL     1       1.529   4.469  21.376  0.00  0.00    +0.000 OA
ATOM      5  C   UNL     1       2.554   4.749  19.144  0.00  0.00    +0.000 C 
ATOM      6  C   UNL     1       2.709   6.075  18.425  0.00  0.00    +0.000 A 
ATOM      7  C   UNL     1       3.180   6.356  17.148  0.00  0.00    +0.000 A 
ATOM      8  C   UNL     1       3.303   7.692  16.757  0.00  0.00    +0.000 A 
ATOM      9  C   UNL     1       2.933   8.730  17.625  0.00  0.00    +0.000 A 
ATOM     10  C   UNL     1       2.411   8.445  18.887  0.00  0.00    +0.000 A 
ATOM     11  C   UNL     1       2.308   7.117  19.262  0.00  0.00    +0.000 A 
ATOM     12  C   UNL     1       3.851   3.987  19.542  0.00  0.00    +0.000 C 
ATOM     13  N   UNL     1       3.600   2.591  19.204  0.00  0.00    +0.000 N 
ATOM     14  C   UNL     1       4.606   1.550  19.336  0.00  0.00    +0.000 C 
ATOM     15  C   UNL     1       2.443   2.409  18.477  0.00  0.00    +0.000 C 
ATOM     16  O   UNL     1       2.147   1.399  17.860  0.00  0.00    +0.000 OA
ATOM     17  C   UNL     1       1.627   3.698  18.504  0.00  0.00    +0.000 C 
ENDROOT
BRANCH  12  18
ATOM     18  C   UNL     1       5.148   4.498  18.919  0.00  0.00    +0.000 A 
ATOM     19  C   UNL     1       5.480   4.130  17.605  0.00  0.00    +0.000 A 
ATOM     20  C   UNL     1       6.633   4.634  16.998  0.00  0.00    +0.000 A 
ATOM     21  C   UNL     1       7.470   5.503  17.696  0.00  0.00    +0.000 A 
ATOM     22  C   UNL     1       7.171   5.852  19.009  0.00  0.00    +0.000 A 
ATOM     23  C   UNL     1       6.026   5.344  19.619  0.00  0.00    +0.000 A 
ENDBRANCH  12  18
BRANCH  17  24
ATOM     24  O   UNL     1       1.103   4.070  17.232  0.00  0.00    +0.000 OA
ATOM     25  H   UNL     1       0.303   4.601  17.386  0.00  0.00    +0.000 HD
ENDBRANCH  17  24
TORSDOF 2
ENDMDL
MODEL 3
REMARK VINA RESULT:      -5.9      1.767      4.617
REMARK  Name = 
REMARK  4 active torsions:
REMARK  status: ('A' for Active; 'I' for Inactive)
REMARK    1  A    between atoms: C_1  and  N_2
REMARK    2  A    between atoms: C_12  and  C_13
REMARK    3  A    between atoms: N_19  and  C_20
REMARK    4  A    between atoms: C_23  and  O_24
REMARK                            x       y       z     vdW  Elec       q    Type
REMARK                         _______ _______ _______ _____ _____    ______ ____
ROOT
ATOM      1  C   UNL     1       5.732   3.633  14.807  0.00  0.00    +0.000 C 
ATOM      2  N   UNL     1       5.245   3.903  16.136  0.00  0.00    +0.000 N 
ATOM      3  C   UNL     1       4.216   3.203  16.761  0.00  0.00    +0.000 C 
ATOM      4  O   UNL     1       3.536   2.319  16.259  0.00  0.00    +0.000 OA
ATOM      5  C   UNL     1       4.057   3.764  18.196  0.00  0.00    +0.000 C 
ATOM      6  C   UNL     1       5.198   4.763  18.247  0.00  0.00    +0.000 A 
ATOM      7  C   UNL     1       5.648   5.561  19.291  0.00  0.00    +0.000 A 
ATOM      8  C   UNL     1       6.679   6.471  19.044  0.00  0.00    +0.000 A 
ATOM      9  C   UNL     1       7.269   6.559  17.774  0.00  0.00    +0.000 A 
ATOM     10  C   UNL     1       6.851   5.719  16.741  0.00  0.00    +0.000 A 
ATOM     11  C   UNL     1       5.821   4.833  17.001  0.00  0.00    +0.000 A 
ATOM     12  C   UNL     1       2.607   4.320  18.290  0.00  0.00    +0.000 C 
ATOM     13  N   UNL     1       1.906   3.424  19.202  0.00  0.00    +0.000 N 
ATOM     14  C   UNL     1       0.536   3.645  19.634  0.00  0.00    +0.000 C 
ATOM     15  C   UNL     1       2.745   2.534  19.839  0.00  0.00    +0.000 C 
ATOM     16  O   UNL     1       2.457   1.869  20.820  0.00  0.00    +0.000 OA
ATOM     17  C   UNL     1       4.115   2.569  19.167  0.00  0.00    +0.000 C 
ENDROOT
BRANCH  12  18
ATOM     18  C   UNL     1       2.473   5.780  18.715  0.00  0.00    +0.000 A 
ATOM     19  C   UNL     1       2.625   6.799  17.761  0.00  0.00    +0.000 A 
ATOM     20  C   UNL     1       2.449   8.137  18.118  0.00  0.00    +0.000 A 
ATOM     21  C   UNL     1       2.128   8.476  19.432  0.00  0.00    +0.000 A 
ATOM     22  C   UNL     1       2.004   7.480  20.396  0.00  0.00    +0.000 A 
ATOM     23  C   UNL     1       2.187   6.145  20.043  0.00  0.00    +0.000 A 
ENDBRANCH  12  18
BRANCH  17  24
ATOM     24  O   UNL     1       5.202   2.609  20.088  0.00  0.00    +0.000 OA
ATOM     25  H   UNL     1       5.925   3.105  19.667  0.00  0.00    +0.000 HD
ENDBRANCH  17  24
TORSDOF 2
ENDMDL
MODEL 4
REMARK VINA RESULT:      -5.9      9.986     12.188
REMARK  Name = 
REMARK  4 active torsions:
REMARK  status: ('A' for Active; 'I' for Inactive)
REMARK    1  A    between atoms: C_1  and  N_2
REMARK    2  A    between atoms: C_12  and  C_13
REMARK    3  A    between atoms: N_19  and  C_20
REMARK    4  A    between atoms: C_23  and  O_24
REMARK                            x       y       z     vdW  Elec       q    Type
REMARK                         _______ _______ _______ _____ _____    ______ ____
ROOT
ATOM      1  C   UNL     1       5.189  16.370  20.413  0.00  0.00    +0.000 C 
ATOM      2  N   UNL     1       6.585  16.040  20.277  0.00  0.00    +0.000 N 
ATOM      3  C   UNL     1       7.478  16.701  19.436  0.00  0.00    +0.000 C 
ATOM      4  O   UNL     1       7.201  17.596  18.650  0.00  0.00    +0.000 OA
ATOM      5  C   UNL     1       8.882  16.080  19.645  0.00  0.00    +0.000 C 
ATOM      6  C   UNL     1       8.602  15.096  20.765  0.00  0.00    +0.000 A 
ATOM      7  C   UNL     1       9.464  14.261  21.465  0.00  0.00    +0.000 A 
ATOM      8  C   UNL     1       8.927  13.376  22.403  0.00  0.00    +0.000 A 
ATOM      9  C   UNL     1       7.548  13.347  22.653  0.00  0.00    +0.000 A 
ATOM     10  C   UNL     1       6.689  14.222  21.987  0.00  0.00    +0.000 A 
ATOM     11  C   UNL     1       7.237  15.084  21.054  0.00  0.00    +0.000 A 
ATOM     12  C   UNL     1       9.314  15.502  18.267  0.00  0.00    +0.000 C 
ATOM     13  N   UNL     1      10.410  16.352  17.816  0.00  0.00    +0.000 N 
ATOM     14  C   UNL     1      11.163  16.096  16.600  0.00  0.00    +0.000 C 
ATOM     15  C   UNL     1      10.852  17.226  18.786  0.00  0.00    +0.000 C 
ATOM     16  O   UNL     1      11.902  17.847  18.753  0.00  0.00    +0.000 OA
ATOM     17  C   UNL     1       9.857  17.236  19.943  0.00  0.00    +0.000 C 
ENDROOT
BRANCH  12  18
ATOM     18  C   UNL     1       9.696  14.025  18.247  0.00  0.00    +0.000 A 
ATOM     19  C   UNL     1       8.714  13.056  17.989  0.00  0.00    +0.000 A 
ATOM     20  C   UNL     1       9.056  11.704  17.909  0.00  0.00    +0.000 A 
ATOM     21  C   UNL     1      10.378  11.302  18.096  0.00  0.00    +0.000 A 
ATOM     22  C   UNL     1      11.357  12.248  18.384  0.00  0.00    +0.000 A 
ATOM     23  C   UNL     1      11.017  13.596  18.471  0.00  0.00    +0.000 A 
ENDBRANCH  12  18
BRANCH  17  24
ATOM     24  O   UNL     1      10.472  17.173  21.227  0.00  0.00    +0.000 OA
ATOM     25  H   UNL     1       9.992  16.508  21.751  0.00  0.00    +0.000 HD
ENDBRANCH  17  24
TORSDOF 2
ENDMDL
MODEL 5
REMARK VINA RESULT:      -5.9      2.364      4.934
REMARK  Name = 
REMARK  4 active torsions:
REMARK  status: ('A' for Active; 'I' for Inactive)
REMARK    1  A    between atoms: C_1  and  N_2
REMARK    2  A    between atoms: C_12  and  C_13
REMARK    3  A    between atoms: N_19  and  C_20
REMARK    4  A    between atoms: C_23  and  O_24
REMARK                            x       y       z     vdW  Elec       q    Type
REMARK                         _______ _______ _______ _____ _____    ______ ____
ROOT
ATOM      1  C   UNL     1       1.130   7.309  21.535  0.00  0.00    +0.000 C 
ATOM      2  N   UNL     1       1.725   6.564  20.456  0.00  0.00    +0.000 N 
ATOM      3  C   UNL     1       1.773   5.173  20.386  0.00  0.00    +0.000 C 
ATOM      4  O   UNL     1       1.391   4.393  21.246  0.00  0.00    +0.000 OA
ATOM      5  C   UNL     1       2.432   4.785  19.038  0.00  0.00    +0.000 C 
ATOM      6  C   UNL     1       2.615   6.149  18.398  0.00  0.00    +0.000 A 
ATOM      7  C   UNL     1       3.097   6.496  17.143  0.00  0.00    +0.000 A 
ATOM      8  C   UNL     1       3.248   7.850  16.832  0.00  0.00    +0.000 A 
ATOM      9  C   UNL     1       2.894   8.841  17.759  0.00  0.00    +0.000 A 
ATOM     10  C   UNL     1       2.361   8.492  19.000  0.00  0.00    +0.000 A 
ATOM     11  C   UNL     1       2.230   7.146  19.295  0.00  0.00    +0.000 A 
ATOM     12  C   UNL     1       3.712   3.976  19.393  0.00  0.00    +0.000 C 
ATOM     13  N   UNL     1       3.436   2.608  18.972  0.00  0.00    +0.000 N 
ATOM     14  C   UNL     1       4.421   1.541  19.046  0.00  0.00    +0.000 C 
ATOM     15  C   UNL     1       2.278   2.491  18.232  0.00  0.00    +0.000 C 
ATOM     16  O   UNL     1       1.966   1.526  17.555  0.00  0.00    +0.000 OA
ATOM     17  C   UNL     1       1.487   3.792  18.333  0.00  0.00    +0.000 C 
ENDROOT
BRANCH  12  18
ATOM     18  C   UNL     1       5.021   4.497  18.806  0.00  0.00    +0.000 A 
ATOM     19  C   UNL     1       5.872   5.287  19.595  0.00  0.00    +0.000 A 
ATOM     20  C   UNL     1       7.100   5.725  19.095  0.00  0.00    +0.000 A 
ATOM     21  C   UNL     1       7.490   5.387  17.800  0.00  0.00    +0.000 A 
ATOM     22  C   UNL     1       6.644   4.631  16.994  0.00  0.00    +0.000 A 
ATOM     23  C   UNL     1       5.415   4.200  17.489  0.00  0.00    +0.000 A 
ENDBRANCH  12  18
BRANCH  17  24
ATOM     24  O   UNL     1       0.977   4.249  17.083  0.00  0.00    +0.000 OA
ATOM     25  H   UNL     1       0.063   4.550  17.230  0.00  0.00    +0.000 HD
ENDBRANCH  17  24
TORSDOF 2
ENDMDL
MODEL 6
REMARK VINA RESULT:      -5.9      9.941     12.094
REMARK  Name = 
REMARK  4 active torsions:
REMARK  status: ('A' for Active; 'I' for Inactive)
REMARK    1  A    between atoms: C_1  and  N_2
REMARK    2  A    between atoms: C_12  and  C_13
REMARK    3  A    between atoms: N_19  and  C_20
REMARK    4  A    between atoms: C_23  and  O_24
REMARK                            x       y       z     vdW  Elec       q    Type
REMARK                         _______ _______ _______ _____ _____    ______ ____
ROOT
ATOM      1  C   UNL     1       5.233  16.158  20.862  0.00  0.00    +0.000 C 
ATOM      2  N   UNL     1       6.617  15.852  20.602  0.00  0.00    +0.000 N 
ATOM      3  C   UNL     1       7.447  16.591  19.762  0.00  0.00    +0.000 C 
ATOM      4  O   UNL     1       7.114  17.546  19.076  0.00  0.00    +0.000 OA
ATOM      5  C   UNL     1       8.864  15.966  19.819  0.00  0.00    +0.000 C 
ATOM      6  C   UNL     1       8.665  14.887  20.867  0.00  0.00    +0.000 A 
ATOM      7  C   UNL     1       9.575  14.002  21.432  0.00  0.00    +0.000 A 
ATOM      8  C   UNL     1       9.107  13.036  22.326  0.00  0.00    +0.000 A 
ATOM      9  C   UNL     1       7.748  12.974  22.667  0.00  0.00    +0.000 A 
ATOM     10  C   UNL     1       6.843  13.896  22.140  0.00  0.00    +0.000 A 
ATOM     11  C   UNL     1       7.323  14.839  21.248  0.00  0.00    +0.000 A 
ATOM     12  C   UNL     1       9.201  15.511  18.370  0.00  0.00    +0.000 C 
ATOM     13  N   UNL     1      10.261  16.405  17.920  0.00  0.00    +0.000 N 
ATOM     14  C   UNL     1      10.929  16.260  16.637  0.00  0.00    +0.000 C 
ATOM     15  C   UNL     1      10.767  17.197  18.928  0.00  0.00    +0.000 C 
ATOM     16  O   UNL     1      11.811  17.827  18.877  0.00  0.00    +0.000 OA
ATOM     17  C   UNL     1       9.855  17.099  20.148  0.00  0.00    +0.000 C 
ENDROOT
BRANCH  12  18
ATOM     18  C   UNL     1       9.584  14.044  18.198  0.00  0.00    +0.000 A 
ATOM     19  C   UNL     1      10.935  13.666  18.258  0.00  0.00    +0.000 A 
ATOM     20  C   UNL     1      11.301  12.322  18.161  0.00  0.00    +0.000 A 
ATOM     21  C   UNL     1      10.325  11.340  17.995  0.00  0.00    +0.000 A 
ATOM     22  C   UNL     1       8.985  11.701  17.902  0.00  0.00    +0.000 A 
ATOM     23  C   UNL     1       8.619  13.042  17.991  0.00  0.00    +0.000 A 
ENDBRANCH  12  18
BRANCH  17  24
ATOM     24  O   UNL     1      10.557  16.932  21.376  0.00  0.00    +0.000 OA
ATOM     25  H   UNL     1      11.425  16.545  21.168  0.00  0.00    +0.000 HD
ENDBRANCH  17  24
TORSDOF 2
ENDMDL
MODEL 7
REMARK VINA RESULT:      -5.7      1.767      4.495
REMARK  Name = 
REMARK  4 active torsions:
REMARK  status: ('A' for Active; 'I' for Inactive)
REMARK    1  A    between atoms: C_1  and  N_2
REMARK    2  A    between atoms: C_12  and  C_13
REMARK    3  A    between atoms: N_19  and  C_20
REMARK    4  A    between atoms: C_23  and  O_24
REMARK                            x       y       z     vdW  Elec       q    Type
REMARK                         _______ _______ _______ _____ _____    ______ ____
ROOT
ATOM      1  C   UNL     1       5.566   3.242  14.990  0.00  0.00    +0.000 C 
ATOM      2  N   UNL     1       5.146   3.695  16.291  0.00  0.00    +0.000 N 
ATOM      3  C   UNL     1       4.215   3.042  17.095  0.00  0.00    +0.000 C 
ATOM      4  O   UNL     1       3.573   2.046  16.793  0.00  0.00    +0.000 OA
ATOM      5  C   UNL     1       4.106   3.820  18.431  0.00  0.00    +0.000 C 
ATOM      6  C   UNL     1       5.170   4.884  18.236  0.00  0.00    +0.000 A 
ATOM      7  C   UNL     1       5.624   5.871  19.102  0.00  0.00    +0.000 A 
ATOM      8  C   UNL     1       6.566   6.792  18.636  0.00  0.00    +0.000 A 
ATOM      9  C   UNL     1       7.064   6.707  17.327  0.00  0.00    +0.000 A 
ATOM     10  C   UNL     1       6.646   5.685  16.476  0.00  0.00    +0.000 A 
ATOM     11  C   UNL     1       5.704   4.789  16.951  0.00  0.00    +0.000 A 
ATOM     12  C   UNL     1       2.627   4.290  18.544  0.00  0.00    +0.000 C 
ATOM     13  N   UNL     1       2.056   3.513  19.637  0.00  0.00    +0.000 N 
ATOM     14  C   UNL     1       0.704   3.714  20.131  0.00  0.00    +0.000 C 
ATOM     15  C   UNL     1       2.998   2.795  20.343  0.00  0.00    +0.000 C 
ATOM     16  O   UNL     1       2.825   2.283  21.436  0.00  0.00    +0.000 OA
ATOM     17  C   UNL     1       4.316   2.807  19.573  0.00  0.00    +0.000 C 
ENDROOT
BRANCH  12  18
ATOM     18  C   UNL     1       2.411   5.788  18.739  0.00  0.00    +0.000 A 
ATOM     19  C   UNL     1       2.171   6.294  20.027  0.00  0.00    +0.000 A 
ATOM     20  C   UNL     1       2.029   7.668  20.233  0.00  0.00    +0.000 A 
ATOM     21  C   UNL     1       2.116   8.552  19.158  0.00  0.00    +0.000 A 
ATOM     22  C   UNL     1       2.323   8.063  17.872  0.00  0.00    +0.000 A 
ATOM     23  C   UNL     1       2.457   6.693  17.663  0.00  0.00    +0.000 A 
ENDBRANCH  12  18
BRANCH  17  24
ATOM     24  O   UNL     1       5.454   3.067  20.390  0.00  0.00    +0.000 OA
ATOM     25  H   UNL     1       6.153   2.444  20.129  0.00  0.00    +0.000 HD
ENDBRANCH  17  24
TORSDOF 2
ENDMDL
MODEL 8
REMARK VINA RESULT:      -5.7      7.292      9.950
REMARK  Name = 
REMARK  4 active torsions:
REMARK  status: ('A' for Active; 'I' for Inactive)
REMARK    1  A    between atoms: C_1  and  N_2
REMARK    2  A    between atoms: C_12  and  C_13
REMARK    3  A    between atoms: N_19  and  C_20
REMARK    4  A    between atoms: C_23  and  O_24
REMARK                            x       y       z     vdW  Elec       q    Type
REMARK                         _______ _______ _______ _____ _____    ______ ____
ROOT
ATOM      1  C   UNL     1      -3.705  11.489  18.033  0.00  0.00    +0.000 C 
ATOM      2  N   UNL     1      -2.630  11.775  18.949  0.00  0.00    +0.000 N 
ATOM      3  C   UNL     1      -2.708  12.683  20.002  0.00  0.00    +0.000 C 
ATOM      4  O   UNL     1      -3.655  13.413  20.259  0.00  0.00    +0.000 OA
ATOM      5  C   UNL     1      -1.365  12.636  20.775  0.00  0.00    +0.000 C 
ATOM      6  C   UNL     1      -0.645  11.520  20.040  0.00  0.00    +0.000 A 
ATOM      7  C   UNL     1       0.591  10.935  20.284  0.00  0.00    +0.000 A 
ATOM      8  C   UNL     1       1.065   9.972  19.390  0.00  0.00    +0.000 A 
ATOM      9  C   UNL     1       0.298   9.583  18.282  0.00  0.00    +0.000 A 
ATOM     10  C   UNL     1      -0.965  10.134  18.067  0.00  0.00    +0.000 A 
ATOM     11  C   UNL     1      -1.414  11.095  18.957  0.00  0.00    +0.000 A 
ATOM     12  C   UNL     1      -0.760  14.066  20.689  0.00  0.00    +0.000 C 
ATOM     13  N   UNL     1      -0.837  14.602  22.042  0.00  0.00    +0.000 N 
ATOM     14  C   UNL     1      -0.288  15.895  22.415  0.00  0.00    +0.000 C 
ATOM     15  C   UNL     1      -1.201  13.658  22.980  0.00  0.00    +0.000 C 
ATOM     16  O   UNL     1      -1.086  13.781  24.188  0.00  0.00    +0.000 OA
ATOM     17  C   UNL     1      -1.698  12.407  22.262  0.00  0.00    +0.000 C 
ENDROOT
BRANCH  12  18
ATOM     18  C   UNL     1       0.653  14.164  20.119  0.00  0.00    +0.000 A 
ATOM     19  C   UNL     1       1.759  14.026  20.972  0.00  0.00    +0.000 A 
ATOM     20  C   UNL     1       3.058  14.055  20.460  0.00  0.00    +0.000 A 
ATOM     21  C   UNL     1       3.269  14.230  19.094  0.00  0.00    +0.000 A 
ATOM     22  C   UNL     1       2.185  14.400  18.239  0.00  0.00    +0.000 A 
ATOM     23  C   UNL     1       0.888  14.379  18.749  0.00  0.00    +0.000 A 
ENDBRANCH  12  18
BRANCH  17  24
ATOM     24  O   UNL     1      -1.180  11.194  22.803  0.00  0.00    +0.000 OA
ATOM     25  H   UNL     1      -0.669  10.754  22.102  0.00  0.00    +0.000 HD
ENDBRANCH  17  24
TORSDOF 2
ENDMDL
MODEL 9
REMARK VINA RESULT:      -5.6      9.866     11.937
REMARK  Name = 
REMARK  4 active torsions:
REMARK  status: ('A' for Active; 'I' for Inactive)
REMARK    1  A    between atoms: C_1  and  N_2
REMARK    2  A    between atoms: C_12  and  C_13
REMARK    3  A    between atoms: N_19  and  C_20
REMARK    4  A    between atoms: C_23  and  O_24
REMARK                            x       y       z     vdW  Elec       q    Type
REMARK                         _______ _______ _______ _____ _____    ______ ____
ROOT
ATOM      1  C   UNL     1       4.732  14.930  20.276  0.00  0.00    +0.000 C 
ATOM      2  N   UNL     1       6.168  15.043  20.246  0.00  0.00    +0.000 N 
ATOM      3  C   UNL     1       6.886  15.772  19.301  0.00  0.00    +0.000 C 
ATOM      4  O   UNL     1       6.420  16.353  18.332  0.00  0.00    +0.000 OA
ATOM      5  C   UNL     1       8.388  15.687  19.671  0.00  0.00    +0.000 C 
ATOM      6  C   UNL     1       8.325  14.910  20.973  0.00  0.00    +0.000 A 
ATOM      7  C   UNL     1       9.335  14.553  21.857  0.00  0.00    +0.000 A 
ATOM      8  C   UNL     1       9.013  13.750  22.955  0.00  0.00    +0.000 A 
ATOM      9  C   UNL     1       7.693  13.333  23.175  0.00  0.00    +0.000 A 
ATOM     10  C   UNL     1       6.670  13.735  22.316  0.00  0.00    +0.000 A 
ATOM     11  C   UNL     1       7.009  14.521  21.228  0.00  0.00    +0.000 A 
ATOM     12  C   UNL     1       9.099  15.012  18.463  0.00  0.00    +0.000 C 
ATOM     13  N   UNL     1       9.917  16.059  17.861  0.00  0.00    +0.000 N 
ATOM     14  C   UNL     1      10.819  15.818  16.747  0.00  0.00    +0.000 C 
ATOM     15  C   UNL     1       9.981  17.205  18.625  0.00  0.00    +0.000 C 
ATOM     16  O   UNL     1      10.787  18.108  18.480  0.00  0.00    +0.000 OA
ATOM     17  C   UNL     1       8.930  17.128  19.730  0.00  0.00    +0.000 C 
ENDROOT
BRANCH  12  18
ATOM     18  C   UNL     1       9.917  13.762  18.776  0.00  0.00    +0.000 A 
ATOM     19  C   UNL     1      11.235  13.892  19.242  0.00  0.00    +0.000 A 
ATOM     20  C   UNL     1      11.978  12.762  19.589  0.00  0.00    +0.000 A 
ATOM     21  C   UNL     1      11.420  11.490  19.467  0.00  0.00    +0.000 A 
ATOM     22  C   UNL     1      10.126  11.343  18.977  0.00  0.00    +0.000 A 
ATOM     23  C   UNL     1       9.386  12.469  18.624  0.00  0.00    +0.000 A 
ENDBRANCH  12  18
BRANCH  17  24
ATOM     24  O   UNL     1       9.417  17.523  21.010  0.00  0.00    +0.000 OA
ATOM     25  H   UNL     1       9.157  18.450  21.150  0.00  0.00    +0.000 HD
ENDBRANCH  17  24
TORSDOF 2
ENDMDL
