MODEL 1
REMARK VINA RESULT:      -8.2      0.000      0.000
REMARK  Name = 
REMARK  9 active torsions:
REMARK  status: ('A' for Active; 'I' for Inactive)
REMARK    1  A    between atoms: C_1  and  C_2
REMARK    2  A    between atoms: C_2  and  C_3
REMARK    3  A    between atoms: C_2  and  C_4
REMARK    4  A    between atoms: C_8  and  C_9
REMARK    5  A    between atoms: C_9  and  C_10
REMARK    6  A    between atoms: C_9  and  C_11
REMARK    7  A    between atoms: C_12  and  N_13
REMARK    8  A    between atoms: N_16  and  C_17
REMARK    9  A    between atoms: C_17  and  C_18
REMARK                            x       y       z     vdW  Elec       q    Type
REMARK                         _______ _______ _______ _____ _____    ______ ____
ROOT
ATOM      1  N   UNL     1       3.049   5.924  19.846  0.00  0.00    +0.000 N 
ATOM      2  C   UNL     1       2.340   6.995  19.303  0.00  0.00    +0.000 C 
ATOM      3  O   UNL     1       1.954   7.077  18.146  0.00  0.00    +0.000 OA
ATOM      4  N   UNL     1       2.106   7.976  20.258  0.00  0.00    +0.000 N 
ATOM      5  H   UNL     1       2.580   5.623  20.689  0.00  0.00    +0.000 HD
ATOM      6  H   UNL     1       2.445   7.804  21.192  0.00  0.00    +0.000 HD
ENDROOT
BRANCH   1  12
ATOM      7  C   UNL     1       4.696   4.964  18.255  0.00  0.00    +0.000 A 
ATOM      8  C   UNL     1       5.016   3.934  17.344  0.00  0.00    +0.000 A 
ATOM      9  C   UNL     1       4.216   2.814  17.202  0.00  0.00    +0.000 A 
ATOM     10  C   UNL     1       3.088   2.682  17.992  0.00  0.00    +0.000 A 
ATOM     11  C   UNL     1       2.705   3.675  18.925  0.00  0.00    +0.000 A 
ATOM     12  C   UNL     1       3.519   4.833  19.057  0.00  0.00    +0.000 A 
BRANCH   7  14
ATOM     13  C   UNL     1       7.062   5.506  18.869  0.00  0.00    +0.000 C 
ATOM     14  C   UNL     1       5.714   6.094  18.430  0.00  0.00    +0.000 C 
ATOM     15  C   UNL     1       5.960   6.949  17.167  0.00  0.00    +0.000 C 
ENDBRANCH   7  14
BRANCH  11  16
ATOM     16  C   UNL     1       1.439   3.330  19.705  0.00  0.00    +0.000 C 
ATOM     17  C   UNL     1       0.587   2.335  18.913  0.00  0.00    +0.000 C 
ATOM     18  C   UNL     1       1.590   2.920  21.167  0.00  0.00    +0.000 C 
ENDBRANCH  11  16
ENDBRANCH   1  12
BRANCH   4  19
ATOM     19  C   UNL     1       1.238   9.130  20.062  0.00  0.00    +0.000 C 
BRANCH  19  20
ATOM     20  C   UNL     1       0.663   9.877  21.286  0.00  0.00    +0.000 C 
ATOM     21  C   UNL     1       0.076   8.920  22.334  0.00  0.00    +0.000 C 
ATOM     22  C   UNL     1      -0.419   9.836  23.453  0.00  0.00    +0.000 C 
ATOM     23  C   UNL     1      -1.001  10.933  22.604  0.00  0.00    +0.000 A 
ATOM     24  C   UNL     1      -1.998  11.809  22.999  0.00  0.00    +0.000 A 
ATOM     25  C   UNL     1      -2.463  12.719  22.056  0.00  0.00    +0.000 A 
ATOM     26  C   UNL     1      -1.903  12.746  20.767  0.00  0.00    +0.000 A 
ATOM     27  C   UNL     1      -0.868  11.861  20.393  0.00  0.00    +0.000 A 
ATOM     28  C   UNL     1      -0.424  10.936  21.320  0.00  0.00    +0.000 A 
ENDBRANCH  19  20
ENDBRANCH   4  19
TORSDOF 5
ENDMDL
MODEL 2
REMARK VINA RESULT:      -8.0      2.509      8.317
REMARK  Name = 
REMARK  9 active torsions:
REMARK  status: ('A' for Active; 'I' for Inactive)
REMARK    1  A    between atoms: C_1  and  C_2
REMARK    2  A    between atoms: C_2  and  C_3
REMARK    3  A    between atoms: C_2  and  C_4
REMARK    4  A    between atoms: C_8  and  C_9
REMARK    5  A    between atoms: C_9  and  C_10
REMARK    6  A    between atoms: C_9  and  C_11
REMARK    7  A    between atoms: C_12  and  N_13
REMARK    8  A    between atoms: N_16  and  C_17
REMARK    9  A    between atoms: C_17  and  C_18
REMARK                            x       y       z     vdW  Elec       q    Type
REMARK                         _______ _______ _______ _____ _____    ______ ____
ROOT
ATOM      1  N   UNL     1       0.683  10.060  17.841  0.00  0.00    +0.000 N 
ATOM      2  C   UNL     1       1.366   9.172  18.671  0.00  0.00    +0.000 C 
ATOM      3  O   UNL     1       1.215   9.071  19.879  0.00  0.00    +0.000 OA
ATOM      4  N   UNL     1       2.249   8.385  17.942  0.00  0.00    +0.000 N 
ATOM      5  H   UNL     1       0.286   9.541  17.070  0.00  0.00    +0.000 HD
ATOM      6  H   UNL     1       2.284   8.529  16.944  0.00  0.00    +0.000 HD
ENDROOT
BRANCH   1  12
ATOM      7  C   UNL     1       0.286  12.115  19.178  0.00  0.00    +0.000 A 
ATOM      8  C   UNL     1      -0.644  12.966  19.813  0.00  0.00    +0.000 A 
ATOM      9  C   UNL     1      -2.009  12.795  19.658  0.00  0.00    +0.000 A 
ATOM     10  C   UNL     1      -2.476  11.785  18.838  0.00  0.00    +0.000 A 
ATOM     11  C   UNL     1      -1.602  10.893  18.171  0.00  0.00    +0.000 A 
ATOM     12  C   UNL     1      -0.201  11.059  18.345  0.00  0.00    +0.000 A 
BRANCH   7  14
ATOM     13  C   UNL     1       2.204  13.309  18.099  0.00  0.00    +0.000 C 
ATOM     14  C   UNL     1       1.770  12.469  19.309  0.00  0.00    +0.000 C 
ATOM     15  C   UNL     1       2.142  13.254  20.586  0.00  0.00    +0.000 C 
ENDBRANCH   7  14
BRANCH  11  16
ATOM     16  C   UNL     1      -2.319   9.861  17.305  0.00  0.00    +0.000 C 
ATOM     17  C   UNL     1      -3.632   9.438  17.968  0.00  0.00    +0.000 C 
ATOM     18  C   UNL     1      -2.499  10.174  15.822  0.00  0.00    +0.000 C 
ENDBRANCH  11  16
ENDBRANCH   1  12
BRANCH   4  19
ATOM     19  C   UNL     1       2.973   7.240  18.480  0.00  0.00    +0.000 C 
BRANCH  19  20
ATOM     20  C   UNL     1       2.214   5.933  18.801  0.00  0.00    +0.000 C 
ATOM     21  C   UNL     1       1.928   5.773  20.301  0.00  0.00    +0.000 C 
ATOM     22  C   UNL     1       1.173   4.449  20.407  0.00  0.00    +0.000 C 
ATOM     23  C   UNL     1       1.970   3.655  19.410  0.00  0.00    +0.000 A 
ATOM     24  C   UNL     1       2.085   2.275  19.392  0.00  0.00    +0.000 A 
ATOM     25  C   UNL     1       2.923   1.713  18.435  0.00  0.00    +0.000 A 
ATOM     26  C   UNL     1       3.592   2.537  17.514  0.00  0.00    +0.000 A 
ATOM     27  C   UNL     1       3.439   3.941  17.532  0.00  0.00    +0.000 A 
ATOM     28  C   UNL     1       2.630   4.504  18.501  0.00  0.00    +0.000 A 
ENDBRANCH  19  20
ENDBRANCH   4  19
TORSDOF 5
ENDMDL
MODEL 3
REMARK VINA RESULT:      -7.9      0.347      3.332
REMARK  Name = 
REMARK  9 active torsions:
REMARK  status: ('A' for Active; 'I' for Inactive)
REMARK    1  A    between atoms: C_1  and  C_2
REMARK    2  A    between atoms: C_2  and  C_3
REMARK    3  A    between atoms: C_2  and  C_4
REMARK    4  A    between atoms: C_8  and  C_9
REMARK    5  A    between atoms: C_9  and  C_10
REMARK    6  A    between atoms: C_9  and  C_11
REMARK    7  A    between atoms: C_12  and  N_13
REMARK    8  A    between atoms: N_16  and  C_17
REMARK    9  A    between atoms: C_17  and  C_18
REMARK                            x       y       z     vdW  Elec       q    Type
REMARK                         _______ _______ _______ _____ _____    ______ ____
ROOT
ATOM      1  N   UNL     1       2.928   5.953  19.717  0.00  0.00    +0.000 N 
ATOM      2  C   UNL     1       2.267   7.069  19.205  0.00  0.00    +0.000 C 
ATOM      3  O   UNL     1       1.852   7.185  18.061  0.00  0.00    +0.000 OA
ATOM      4  N   UNL     1       2.120   8.051  20.175  0.00  0.00    +0.000 N 
ATOM      5  H   UNL     1       2.468   5.670  20.571  0.00  0.00    +0.000 HD
ATOM      6  H   UNL     1       2.476   7.850  21.097  0.00  0.00    +0.000 HD
ENDROOT
BRANCH   1  12
ATOM      7  C   UNL     1       2.641   3.586  19.023  0.00  0.00    +0.000 A 
ATOM      8  C   UNL     1       3.172   2.467  18.346  0.00  0.00    +0.000 A 
ATOM      9  C   UNL     1       4.324   2.557  17.584  0.00  0.00    +0.000 A 
ATOM     10  C   UNL     1       4.958   3.779  17.457  0.00  0.00    +0.000 A 
ATOM     11  C   UNL     1       4.483   4.943  18.109  0.00  0.00    +0.000 A 
ATOM     12  C   UNL     1       3.310   4.844  18.904  0.00  0.00    +0.000 A 
BRANCH   7  14
ATOM     13  C   UNL     1       0.447   2.380  18.967  0.00  0.00    +0.000 C 
ATOM     14  C   UNL     1       1.294   3.410  19.729  0.00  0.00    +0.000 C 
ATOM     15  C   UNL     1       1.385   2.950  21.200  0.00  0.00    +0.000 C 
ENDBRANCH   7  14
BRANCH  11  16
ATOM     16  C   UNL     1       5.318   6.189  17.826  0.00  0.00    +0.000 C 
ATOM     17  C   UNL     1       6.766   5.965  18.267  0.00  0.00    +0.000 C 
ATOM     18  C   UNL     1       5.232   6.807  16.433  0.00  0.00    +0.000 C 
ENDBRANCH  11  16
ENDBRANCH   1  12
BRANCH   4  19
ATOM     19  C   UNL     1       1.315   9.257  20.016  0.00  0.00    +0.000 C 
BRANCH  19  20
ATOM     20  C   UNL     1       0.713   9.948  21.259  0.00  0.00    +0.000 C 
ATOM     21  C   UNL     1       0.138   8.944  22.269  0.00  0.00    +0.000 C 
ATOM     22  C   UNL     1      -0.388   9.811  23.412  0.00  0.00    +0.000 C 
ATOM     23  C   UNL     1      -0.986  10.923  22.595  0.00  0.00    +0.000 A 
ATOM     24  C   UNL     1      -2.006  11.763  23.010  0.00  0.00    +0.000 A 
ATOM     25  C   UNL     1      -2.483  12.694  22.093  0.00  0.00    +0.000 A 
ATOM     26  C   UNL     1      -1.912  12.776  20.811  0.00  0.00    +0.000 A 
ATOM     27  C   UNL     1      -0.853  11.927  20.418  0.00  0.00    +0.000 A 
ATOM     28  C   UNL     1      -0.398  10.981  21.318  0.00  0.00    +0.000 A 
ENDBRANCH  19  20
ENDBRANCH   4  19
TORSDOF 5
ENDMDL
MODEL 4
REMARK VINA RESULT:      -7.7      1.371      3.969
REMARK  Name = 
REMARK  9 active torsions:
REMARK  status: ('A' for Active; 'I' for Inactive)
REMARK    1  A    between atoms: C_1  and  C_2
REMARK    2  A    between atoms: C_2  and  C_3
REMARK    3  A    between atoms: C_2  and  C_4
REMARK    4  A    between atoms: C_8  and  C_9
REMARK    5  A    between atoms: C_9  and  C_10
REMARK    6  A    between atoms: C_9  and  C_11
REMARK    7  A    between atoms: C_12  and  N_13
REMARK    8  A    between atoms: N_16  and  C_17
REMARK    9  A    between atoms: C_17  and  C_18
REMARK                            x       y       z     vdW  Elec       q    Type
REMARK                         _______ _______ _______ _____ _____    ______ ____
ROOT
ATOM      1  N   UNL     1       2.255   6.092  17.699  0.00  0.00    +0.000 N 
ATOM      2  C   UNL     1       2.325   7.382  18.224  0.00  0.00    +0.000 C 
ATOM      3  O   UNL     1       3.199   7.798  18.971  0.00  0.00    +0.000 OA
ATOM      4  N   UNL     1       1.266   8.162  17.778  0.00  0.00    +0.000 N 
ATOM      5  H   UNL     1       2.142   6.159  16.697  0.00  0.00    +0.000 HD
ATOM      6  H   UNL     1       0.608   7.733  17.145  0.00  0.00    +0.000 HD
ENDROOT
BRANCH   1  12
ATOM      7  C   UNL     1       2.796   4.114  19.100  0.00  0.00    +0.000 A 
ATOM      8  C   UNL     1       3.783   3.230  19.587  0.00  0.00    +0.000 A 
ATOM      9  C   UNL     1       5.083   3.259  19.115  0.00  0.00    +0.000 A 
ATOM     10  C   UNL     1       5.423   4.158  18.121  0.00  0.00    +0.000 A 
ATOM     11  C   UNL     1       4.487   5.076  17.586  0.00  0.00    +0.000 A 
ATOM     12  C   UNL     1       3.156   5.055  18.084  0.00  0.00    +0.000 A 
BRANCH   7  14
ATOM     13  C   UNL     1       0.681   2.822  18.751  0.00  0.00    +0.000 C 
ATOM     14  C   UNL     1       1.361   3.912  19.591  0.00  0.00    +0.000 C 
ATOM     15  C   UNL     1       1.232   3.510  21.077  0.00  0.00    +0.000 C 
ENDBRANCH   7  14
BRANCH  11  16
ATOM     16  C   UNL     1       5.060   5.969  16.489  0.00  0.00    +0.000 C 
ATOM     17  C   UNL     1       6.077   6.945  17.082  0.00  0.00    +0.000 C 
ATOM     18  C   UNL     1       5.579   5.299  15.220  0.00  0.00    +0.000 C 
ENDBRANCH  11  16
ENDBRANCH   1  12
BRANCH   4  19
ATOM     19  C   UNL     1       1.149   9.599  17.993  0.00  0.00    +0.000 C 
BRANCH  19  20
ATOM     20  C   UNL     1       0.063  10.147  18.946  0.00  0.00    +0.000 C 
ATOM     21  C   UNL     1      -0.071  11.675  18.866  0.00  0.00    +0.000 C 
ATOM     22  C   UNL     1      -1.185  12.013  19.855  0.00  0.00    +0.000 C 
ATOM     23  C   UNL     1      -0.808  11.058  20.953  0.00  0.00    +0.000 A 
ATOM     24  C   UNL     1      -1.137  11.205  22.291  0.00  0.00    +0.000 A 
ATOM     25  C   UNL     1      -0.643  10.256  23.181  0.00  0.00    +0.000 A 
ATOM     26  C   UNL     1       0.132   9.183  22.708  0.00  0.00    +0.000 A 
ATOM     27  C   UNL     1       0.432   9.038  21.335  0.00  0.00    +0.000 A 
ATOM     28  C   UNL     1      -0.032   9.995  20.453  0.00  0.00    +0.000 A 
ENDBRANCH  19  20
ENDBRANCH   4  19
TORSDOF 5
ENDMDL
MODEL 5
REMARK VINA RESULT:      -7.7      1.422      2.305
REMARK  Name = 
REMARK  9 active torsions:
REMARK  status: ('A' for Active; 'I' for Inactive)
REMARK    1  A    between atoms: C_1  and  C_2
REMARK    2  A    between atoms: C_2  and  C_3
REMARK    3  A    between atoms: C_2  and  C_4
REMARK    4  A    between atoms: C_8  and  C_9
REMARK    5  A    between atoms: C_9  and  C_10
REMARK    6  A    between atoms: C_9  and  C_11
REMARK    7  A    between atoms: C_12  and  N_13
REMARK    8  A    between atoms: N_16  and  C_17
REMARK    9  A    between atoms: C_17  and  C_18
REMARK                            x       y       z     vdW  Elec       q    Type
REMARK                         _______ _______ _______ _____ _____    ______ ____
ROOT
ATOM      1  N   UNL     1       2.310   6.236  17.488  0.00  0.00    +0.000 N 
ATOM      2  C   UNL     1       2.456   7.387  18.262  0.00  0.00    +0.000 C 
ATOM      3  O   UNL     1       3.274   7.540  19.158  0.00  0.00    +0.000 OA
ATOM      4  N   UNL     1       1.551   8.367  17.877  0.00  0.00    +0.000 N 
ATOM      5  H   UNL     1       2.327   6.500  16.513  0.00  0.00    +0.000 HD
ATOM      6  H   UNL     1       0.932   8.152  17.110  0.00  0.00    +0.000 HD
ENDROOT
BRANCH   1  12
ATOM      7  C   UNL     1       4.209   4.715  16.992  0.00  0.00    +0.000 A 
ATOM      8  C   UNL     1       4.785   3.435  17.143  0.00  0.00    +0.000 A 
ATOM      9  C   UNL     1       4.240   2.487  17.992  0.00  0.00    +0.000 A 
ATOM     10  C   UNL     1       3.117   2.809  18.733  0.00  0.00    +0.000 A 
ATOM     11  C   UNL     1       2.486   4.071  18.631  0.00  0.00    +0.000 A 
ATOM     12  C   UNL     1       3.038   5.037  17.747  0.00  0.00    +0.000 A 
BRANCH   7  14
ATOM     13  C   UNL     1       5.941   6.523  17.013  0.00  0.00    +0.000 C 
ATOM     14  C   UNL     1       4.964   5.732  16.132  0.00  0.00    +0.000 C 
ATOM     15  C   UNL     1       5.769   5.125  14.962  0.00  0.00    +0.000 C 
ENDBRANCH   7  14
BRANCH  11  16
ATOM     16  C   UNL     1       1.272   4.227  19.545  0.00  0.00    +0.000 C 
ATOM     17  C   UNL     1       0.615   2.866  19.784  0.00  0.00    +0.000 C 
ATOM     18  C   UNL     1       1.449   5.015  20.839  0.00  0.00    +0.000 C 
ENDBRANCH  11  16
ENDBRANCH   1  12
BRANCH   4  19
ATOM     19  C   UNL     1       1.567   9.743  18.359  0.00  0.00    +0.000 C 
BRANCH  19  20
ATOM     20  C   UNL     1       0.353  10.299  19.136  0.00  0.00    +0.000 C 
ATOM     21  C   UNL     1       0.221  11.823  19.006  0.00  0.00    +0.000 C 
ATOM     22  C   UNL     1      -1.025  12.170  19.820  0.00  0.00    +0.000 C 
ATOM     23  C   UNL     1      -0.801  11.240  20.980  0.00  0.00    +0.000 A 
ATOM     24  C   UNL     1      -1.318  11.410  22.254  0.00  0.00    +0.000 A 
ATOM     25  C   UNL     1      -0.949  10.484  23.225  0.00  0.00    +0.000 A 
ATOM     26  C   UNL     1      -0.107   9.410  22.889  0.00  0.00    +0.000 A 
ATOM     27  C   UNL     1       0.387   9.241  21.576  0.00  0.00    +0.000 A 
ATOM     28  C   UNL     1       0.045  10.176  20.617  0.00  0.00    +0.000 A 
ENDBRANCH  19  20
ENDBRANCH   4  19
TORSDOF 5
ENDMDL
MODEL 6
REMARK VINA RESULT:      -7.7      1.228      3.851
REMARK  Name = 
REMARK  9 active torsions:
REMARK  status: ('A' for Active; 'I' for Inactive)
REMARK    1  A    between atoms: C_1  and  C_2
REMARK    2  A    between atoms: C_2  and  C_3
REMARK    3  A    between atoms: C_2  and  C_4
REMARK    4  A    between atoms: C_8  and  C_9
REMARK    5  A    between atoms: C_9  and  C_10
REMARK    6  A    between atoms: C_9  and  C_11
REMARK    7  A    between atoms: C_12  and  N_13
REMARK    8  A    between atoms: N_16  and  C_17
REMARK    9  A    between atoms: C_17  and  C_18
REMARK                            x       y       z     vdW  Elec       q    Type
REMARK                         _______ _______ _______ _____ _____    ______ ____
ROOT
ATOM      1  N   UNL     1       3.169   6.774  19.413  0.00  0.00    +0.000 N 
ATOM      2  C   UNL     1       2.350   7.412  18.482  0.00  0.00    +0.000 C 
ATOM      3  O   UNL     1       1.950   6.924  17.436  0.00  0.00    +0.000 OA
ATOM      4  N   UNL     1       2.021   8.695  18.902  0.00  0.00    +0.000 N 
ATOM      5  H   UNL     1       2.740   6.849  20.324  0.00  0.00    +0.000 HD
ATOM      6  H   UNL     1       2.382   8.999  19.793  0.00  0.00    +0.000 HD
ENDROOT
BRANCH   1  12
ATOM      7  C   UNL     1       3.303   4.346  19.914  0.00  0.00    +0.000 A 
ATOM      8  C   UNL     1       4.027   3.140  19.795  0.00  0.00    +0.000 A 
ATOM      9  C   UNL     1       5.153   3.043  18.995  0.00  0.00    +0.000 A 
ATOM     10  C   UNL     1       5.566   4.147  18.272  0.00  0.00    +0.000 A 
ATOM     11  C   UNL     1       4.890   5.389  18.344  0.00  0.00    +0.000 A 
ATOM     12  C   UNL     1       3.745   5.490  19.178  0.00  0.00    +0.000 A 
BRANCH   7  14
ATOM     13  C   UNL     1       0.827   4.000  19.778  0.00  0.00    +0.000 C 
ATOM     14  C   UNL     1       2.000   4.311  20.718  0.00  0.00    +0.000 C 
ATOM     15  C   UNL     1       1.972   3.278  21.866  0.00  0.00    +0.000 C 
ENDBRANCH   7  14
BRANCH  11  16
ATOM     16  C   UNL     1       5.499   6.472  17.457  0.00  0.00    +0.000 C 
ATOM     17  C   UNL     1       7.000   6.593  17.728  0.00  0.00    +0.000 C 
ATOM     18  C   UNL     1       5.186   6.433  15.964  0.00  0.00    +0.000 C 
ENDBRANCH  11  16
ENDBRANCH   1  12
BRANCH   4  19
ATOM     19  C   UNL     1       1.037   9.551  18.251  0.00  0.00    +0.000 C 
BRANCH  19  20
ATOM     20  C   UNL     1      -0.004  10.311  19.103  0.00  0.00    +0.000 C 
ATOM     21  C   UNL     1       0.179  11.834  19.030  0.00  0.00    +0.000 C 
ATOM     22  C   UNL     1      -0.935  12.395  19.914  0.00  0.00    +0.000 C 
ATOM     23  C   UNL     1      -0.864  11.391  21.030  0.00  0.00    +0.000 A 
ATOM     24  C   UNL     1      -1.283  11.609  22.332  0.00  0.00    +0.000 A 
ATOM     25  C   UNL     1      -1.077  10.586  23.252  0.00  0.00    +0.000 A 
ATOM     26  C   UNL     1      -0.490   9.377  22.841  0.00  0.00    +0.000 A 
ATOM     27  C   UNL     1      -0.095   9.166  21.502  0.00  0.00    +0.000 A 
ATOM     28  C   UNL     1      -0.272  10.191  20.592  0.00  0.00    +0.000 A 
ENDBRANCH  19  20
ENDBRANCH   4  19
TORSDOF 5
ENDMDL
MODEL 7
REMARK VINA RESULT:      -7.7      2.462      8.811
REMARK  Name = 
REMARK  9 active torsions:
REMARK  status: ('A' for Active; 'I' for Inactive)
REMARK    1  A    between atoms: C_1  and  C_2
REMARK    2  A    between atoms: C_2  and  C_3
REMARK    3  A    between atoms: C_2  and  C_4
REMARK    4  A    between atoms: C_8  and  C_9
REMARK    5  A    between atoms: C_9  and  C_10
REMARK    6  A    between atoms: C_9  and  C_11
REMARK    7  A    between atoms: C_12  and  N_13
REMARK    8  A    between atoms: N_16  and  C_17
REMARK    9  A    between atoms: C_17  and  C_18
REMARK                            x       y       z     vdW  Elec       q    Type
REMARK                         _______ _______ _______ _____ _____    ______ ____
ROOT
ATOM      1  N   UNL     1       0.658  10.223  18.051  0.00  0.00    +0.000 N 
ATOM      2  C   UNL     1       1.205   9.240  18.873  0.00  0.00    +0.000 C 
ATOM      3  O   UNL     1       0.945   9.077  20.056  0.00  0.00    +0.000 OA
ATOM      4  N   UNL     1       2.093   8.436  18.169  0.00  0.00    +0.000 N 
ATOM      5  H   UNL     1       0.295   9.781  17.218  0.00  0.00    +0.000 HD
ATOM      6  H   UNL     1       2.224   8.637  17.190  0.00  0.00    +0.000 HD
ENDROOT
BRANCH   1  12
ATOM      7  C   UNL     1       0.329  12.329  19.325  0.00  0.00    +0.000 A 
ATOM      8  C   UNL     1      -0.571  13.214  19.957  0.00  0.00    +0.000 A 
ATOM      9  C   UNL     1      -1.942  13.058  19.850  0.00  0.00    +0.000 A 
ATOM     10  C   UNL     1      -2.447  12.025  19.081  0.00  0.00    +0.000 A 
ATOM     11  C   UNL     1      -1.605  11.099  18.421  0.00  0.00    +0.000 A 
ATOM     12  C   UNL     1      -0.198  11.252  18.546  0.00  0.00    +0.000 A 
BRANCH   7  14
ATOM     13  C   UNL     1       2.226  13.462  18.148  0.00  0.00    +0.000 C 
ATOM     14  C   UNL     1       1.820  12.667  19.397  0.00  0.00    +0.000 C 
ATOM     15  C   UNL     1       2.242  13.488  20.636  0.00  0.00    +0.000 C 
ENDBRANCH   7  14
BRANCH  11  16
ATOM     16  C   UNL     1      -2.362  10.046  17.615  0.00  0.00    +0.000 C 
ATOM     17  C   UNL     1      -3.811   9.954  18.098  0.00  0.00    +0.000 C 
ATOM     18  C   UNL     1      -2.268  10.108  16.093  0.00  0.00    +0.000 C 
ENDBRANCH  11  16
ENDBRANCH   1  12
BRANCH   4  19
ATOM     19  C   UNL     1       2.690   7.212  18.688  0.00  0.00    +0.000 C 
BRANCH  19  20
ATOM     20  C   UNL     1       3.056   6.065  17.719  0.00  0.00    +0.000 C 
ATOM     21  C   UNL     1       2.705   4.682  18.287  0.00  0.00    +0.000 C 
ATOM     22  C   UNL     1       3.125   3.702  17.192  0.00  0.00    +0.000 C 
ATOM     23  C   UNL     1       4.412   4.361  16.781  0.00  0.00    +0.000 A 
ATOM     24  C   UNL     1       5.480   3.724  16.173  0.00  0.00    +0.000 A 
ATOM     25  C   UNL     1       6.622   4.479  15.925  0.00  0.00    +0.000 A 
ATOM     26  C   UNL     1       6.650   5.843  16.263  0.00  0.00    +0.000 A 
ATOM     27  C   UNL     1       5.539   6.480  16.858  0.00  0.00    +0.000 A 
ATOM     28  C   UNL     1       4.414   5.725  17.131  0.00  0.00    +0.000 A 
ENDBRANCH  19  20
ENDBRANCH   4  19
TORSDOF 5
ENDMDL
MODEL 8
REMARK VINA RESULT:      -7.6      1.979      2.600
REMARK  Name = 
REMARK  9 active torsions:
REMARK  status: ('A' for Active; 'I' for Inactive)
REMARK    1  A    between atoms: C_1  and  C_2
REMARK    2  A    between atoms: C_2  and  C_3
REMARK    3  A    between atoms: C_2  and  C_4
REMARK    4  A    between atoms: C_8  and  C_9
REMARK    5  A    between atoms: C_9  and  C_10
REMARK    6  A    between atoms: C_9  and  C_11
REMARK    7  A    between atoms: C_12  and  N_13
REMARK    8  A    between atoms: N_16  and  C_17
REMARK    9  A    between atoms: C_17  and  C_18
REMARK                            x       y       z     vdW  Elec       q    Type
REMARK                         _______ _______ _______ _____ _____    ______ ____
ROOT
ATOM      1  N   UNL     1       2.267   6.500  17.924  0.00  0.00    +0.000 N 
ATOM      2  C   UNL     1       2.209   7.331  19.041  0.00  0.00    +0.000 C 
ATOM      3  O   UNL     1       2.878   7.205  20.056  0.00  0.00    +0.000 OA
ATOM      4  N   UNL     1       1.288   8.354  18.855  0.00  0.00    +0.000 N 
ATOM      5  H   UNL     1       2.398   7.074  17.102  0.00  0.00    +0.000 HD
ATOM      6  H   UNL     1       0.801   8.387  17.973  0.00  0.00    +0.000 HD
ENDROOT
BRANCH   1  12
ATOM      7  C   UNL     1       4.303   5.273  17.205  0.00  0.00    +0.000 A 
ATOM      8  C   UNL     1       4.949   4.030  17.032  0.00  0.00    +0.000 A 
ATOM      9  C   UNL     1       4.396   2.850  17.499  0.00  0.00    +0.000 A 
ATOM     10  C   UNL     1       3.192   2.890  18.178  0.00  0.00    +0.000 A 
ATOM     11  C   UNL     1       2.487   4.100  18.387  0.00  0.00    +0.000 A 
ATOM     12  C   UNL     1       3.049   5.307  17.892  0.00  0.00    +0.000 A 
BRANCH   7  14
ATOM     13  C   UNL     1       6.425   6.574  17.472  0.00  0.00    +0.000 C 
ATOM     14  C   UNL     1       5.061   6.530  16.769  0.00  0.00    +0.000 C 
ATOM     15  C   UNL     1       5.309   6.646  15.249  0.00  0.00    +0.000 C 
ENDBRANCH   7  14
BRANCH  11  16
ATOM     16  C   UNL     1       1.189   3.926  19.172  0.00  0.00    +0.000 C 
ATOM     17  C   UNL     1       0.554   2.573  18.847  0.00  0.00    +0.000 C 
ATOM     18  C   UNL     1       1.218   4.202  20.672  0.00  0.00    +0.000 C 
ENDBRANCH  11  16
ENDBRANCH   1  12
BRANCH   4  19
ATOM     19  C   UNL     1       1.122   9.491  19.753  0.00  0.00    +0.000 C 
BRANCH  19  20
ATOM     20  C   UNL     1       0.057  10.567  19.442  0.00  0.00    +0.000 C 
ATOM     21  C   UNL     1      -0.697  11.026  20.699  0.00  0.00    +0.000 C 
ATOM     22  C   UNL     1      -1.678  12.082  20.191  0.00  0.00    +0.000 C 
ATOM     23  C   UNL     1      -2.097  11.405  18.915  0.00  0.00    +0.000 A 
ATOM     24  C   UNL     1      -3.291  11.621  18.247  0.00  0.00    +0.000 A 
ATOM     25  C   UNL     1      -3.541  10.852  17.115  0.00  0.00    +0.000 A 
ATOM     26  C   UNL     1      -2.587   9.921  16.672  0.00  0.00    +0.000 A 
ATOM     27  C   UNL     1      -1.363   9.736  17.353  0.00  0.00    +0.000 A 
ATOM     28  C   UNL     1      -1.125  10.477  18.495  0.00  0.00    +0.000 A 
ENDBRANCH  19  20
ENDBRANCH   4  19
TORSDOF 5
ENDMDL
MODEL 9
REMARK VINA RESULT:      -7.6      4.708      7.820
REMARK  Name = 
REMARK  9 active torsions:
REMARK  status: ('A' for Active; 'I' for Inactive)
REMARK    1  A    between atoms: C_1  and  C_2
REMARK    2  A    between atoms: C_2  and  C_3
REMARK    3  A    between atoms: C_2  and  C_4
REMARK    4  A    between atoms: C_8  and  C_9
REMARK    5  A    between atoms: C_9  and  C_10
REMARK    6  A    between atoms: C_9  and  C_11
REMARK    7  A    between atoms: C_12  and  N_13
REMARK    8  A    between atoms: N_16  and  C_17
REMARK    9  A    between atoms: C_17  and  C_18
REMARK                            x       y       z     vdW  Elec       q    Type
REMARK                         _______ _______ _______ _____ _____    ______ ____
ROOT
ATOM      1  N   UNL     1       5.560   7.376  16.986  0.00  0.00    +0.000 N 
ATOM      2  C   UNL     1       6.686   7.484  17.801  0.00  0.00    +0.000 C 
ATOM      3  O   UNL     1       7.107   6.614  18.550  0.00  0.00    +0.000 OA
ATOM      4  N   UNL     1       7.297   8.722  17.649  0.00  0.00    +0.000 N 
ATOM      5  H   UNL     1       5.819   7.632  16.044  0.00  0.00    +0.000 HD
ATOM      6  H   UNL     1       6.886   9.364  16.989  0.00  0.00    +0.000 HD
ENDROOT
BRANCH   1  12
ATOM      7  C   UNL     1       3.571   6.226  17.929  0.00  0.00    +0.000 A 
ATOM      8  C   UNL     1       2.848   5.023  18.081  0.00  0.00    +0.000 A 
ATOM      9  C   UNL     1       3.195   3.873  17.394  0.00  0.00    +0.000 A 
ATOM     10  C   UNL     1       4.260   3.907  16.513  0.00  0.00    +0.000 A 
ATOM     11  C   UNL     1       5.032   5.076  16.311  0.00  0.00    +0.000 A 
ATOM     12  C   UNL     1       4.684   6.251  17.030  0.00  0.00    +0.000 A 
BRANCH   7  14
ATOM     13  C   UNL     1       2.161   8.275  17.651  0.00  0.00    +0.000 C 
ATOM     14  C   UNL     1       3.026   7.472  18.632  0.00  0.00    +0.000 C 
ATOM     15  C   UNL     1       2.176   7.190  19.890  0.00  0.00    +0.000 C 
ENDBRANCH   7  14
BRANCH  11  16
ATOM     16  C   UNL     1       6.151   4.905  15.287  0.00  0.00    +0.000 C 
ATOM     17  C   UNL     1       7.416   4.382  15.972  0.00  0.00    +0.000 C 
ATOM     18  C   UNL     1       5.835   4.142  14.004  0.00  0.00    +0.000 C 
ENDBRANCH  11  16
ENDBRANCH   1  12
BRANCH   4  19
ATOM     19  C   UNL     1       8.591   9.082  18.216  0.00  0.00    +0.000 C 
BRANCH  19  20
ATOM     20  C   UNL     1       8.994  10.569  18.328  0.00  0.00    +0.000 C 
ATOM     21  C   UNL     1      10.269  10.893  17.535  0.00  0.00    +0.000 C 
ATOM     22  C   UNL     1      10.489  12.388  17.760  0.00  0.00    +0.000 C 
ATOM     23  C   UNL     1      10.125  12.453  19.217  0.00  0.00    +0.000 A 
ATOM     24  C   UNL     1      10.562  13.418  20.110  0.00  0.00    +0.000 A 
ATOM     25  C   UNL     1      10.179  13.281  21.440  0.00  0.00    +0.000 A 
ATOM     26  C   UNL     1       9.356  12.210  21.830  0.00  0.00    +0.000 A 
ATOM     27  C   UNL     1       8.900  11.252  20.897  0.00  0.00    +0.000 A 
ATOM     28  C   UNL     1       9.303  11.370  19.580  0.00  0.00    +0.000 A 
ENDBRANCH  19  20
ENDBRANCH   4  19
TORSDOF 5
ENDMDL
