MODEL 1
REMARK VINA RESULT:      -7.8      0.000      0.000
REMARK  Name = 
REMARK  11 active torsions:
REMARK  status: ('A' for Active; 'I' for Inactive)
REMARK    1  A    between atoms: C_2  and  C_4
REMARK    2  A    between atoms: N_11  and  N_12
REMARK    3  A    between atoms: N_12  and  C_13
REMARK    4  A    between atoms: C_16  and  S_17
REMARK    5  A    between atoms: S_17  and  N_20
REMARK    6  A    between atoms: N_20  and  C_21
REMARK    7  A    between atoms: C_21  and  C_22
REMARK    8  A    between atoms: C_22  and  O_23
REMARK    9  A    between atoms: O_23  and  C_24
REMARK   10  A    between atoms: C_24  and  C_25
REMARK   11  A    between atoms: C_25  and  O_26
REMARK                            x       y       z     vdW  Elec       q    Type
REMARK                         _______ _______ _______ _____ _____    ______ ____
ROOT
ATOM      1  N   UNL     1       1.672   9.009  19.569  0.00  0.00    +0.000 N 
ATOM      2  H   UNL     1       2.136   9.554  20.302  0.00  0.00    +0.000 HD
ENDROOT
BRANCH   1  10
ATOM      3  C   UNL     1      -3.399  11.319  17.887  0.00  0.00    +0.000 A 
ATOM      4  C   UNL     1      -3.801  12.250  18.876  0.00  0.00    +0.000 A 
ATOM      5  C   UNL     1      -3.011  12.498  20.006  0.00  0.00    +0.000 A 
ATOM      6  C   UNL     1      -1.826  11.803  20.111  0.00  0.00    +0.000 A 
ATOM      7  C   UNL     1      -1.423  10.898  19.128  0.00  0.00    +0.000 A 
ATOM      8  C   UNL     1      -2.181  10.632  18.004  0.00  0.00    +0.000 A 
ATOM      9  C   UNL     1      -0.149  10.338  19.577  0.00  0.00    +0.000 C 
ATOM     10  N   UNL     1       0.555   9.458  18.938  0.00  0.00    +0.000 NA
ATOM     11  C   UNL     1       0.144  10.999  20.932  0.00  0.00    +0.000 C 
ATOM     12  O   UNL     1       1.101  10.765  21.639  0.00  0.00    +0.000 OA
ATOM     13  N   UNL     1      -0.904  11.867  21.152  0.00  0.00    +0.000 N 
ATOM     14  H   UNL     1      -0.982  12.441  21.979  0.00  0.00    +0.000 HD
BRANCH   3  16
ATOM     15  N   UNL     1      -5.594  11.555  16.855  0.00  0.00    +0.000 N 
ATOM     16  C   UNL     1      -4.309  11.108  16.731  0.00  0.00    +0.000 C 
ATOM     17  O   UNL     1      -3.911  10.595  15.692  0.00  0.00    +0.000 OA
ATOM     18  H   UNL     1      -6.172  11.499  16.025  0.00  0.00    +0.000 HD
ATOM     19  H   UNL     1      -5.893  12.185  17.586  0.00  0.00    +0.000 HD
ENDBRANCH   3  16
ENDBRANCH   1  10
BRANCH   1  20
ATOM     20  C   UNL     1       2.148   7.711  19.327  0.00  0.00    +0.000 A 
ATOM     21  C   UNL     1       2.088   6.709  20.305  0.00  0.00    +0.000 A 
ATOM     22  C   UNL     1       2.597   5.429  20.063  0.00  0.00    +0.000 A 
ATOM     23  C   UNL     1       3.205   5.146  18.838  0.00  0.00    +0.000 A 
ATOM     24  C   UNL     1       3.309   6.137  17.860  0.00  0.00    +0.000 A 
ATOM     25  C   UNL     1       2.774   7.410  18.107  0.00  0.00    +0.000 A 
BRANCH  23  26
ATOM     26  S   UNL     1       3.935   3.552  18.567  0.00  0.00    +0.000 S 
ATOM     27  O   UNL     1       3.385   2.653  19.557  0.00  0.00    +0.000 OA
ATOM     28  O   UNL     1       3.882   3.249  17.154  0.00  0.00    +0.000 OA
BRANCH  26  29
ATOM     29  N   UNL     1       5.551   3.781  18.985  0.00  0.00    +0.000 NA
ATOM     30  H   UNL     1       6.130   3.013  18.636  0.00  0.00    +0.000 HD
BRANCH  29  31
ATOM     31  C   UNL     1       6.124   5.125  18.780  0.00  0.00    +0.000 C 
BRANCH  31  32
ATOM     32  C   UNL     1       7.592   5.008  18.355  0.00  0.00    +0.000 C 
BRANCH  32  33
ATOM     33  O   UNL     1       7.676   4.514  17.008  0.00  0.00    +0.000 OA
BRANCH  33  34
ATOM     34  C   UNL     1       6.958   5.371  16.105  0.00  0.00    +0.000 C 
BRANCH  34  35
ATOM     35  C   UNL     1       6.267   4.519  15.044  0.00  0.00    +0.000 C 
BRANCH  35  36
ATOM     36  O   UNL     1       6.192   3.162  15.471  0.00  0.00    +0.000 OA
ATOM     37  H   UNL     1       5.276   3.035  15.783  0.00  0.00    +0.000 HD
ENDBRANCH  35  36
ENDBRANCH  34  35
ENDBRANCH  33  34
ENDBRANCH  32  33
ENDBRANCH  31  32
ENDBRANCH  29  31
ENDBRANCH  26  29
ENDBRANCH  23  26
ENDBRANCH   1  20
TORSDOF 11
ENDMDL
MODEL 2
REMARK VINA RESULT:      -7.7      1.668      2.124
REMARK  Name = 
REMARK  11 active torsions:
REMARK  status: ('A' for Active; 'I' for Inactive)
REMARK    1  A    between atoms: C_2  and  C_4
REMARK    2  A    between atoms: N_11  and  N_12
REMARK    3  A    between atoms: N_12  and  C_13
REMARK    4  A    between atoms: C_16  and  S_17
REMARK    5  A    between atoms: S_17  and  N_20
REMARK    6  A    between atoms: N_20  and  C_21
REMARK    7  A    between atoms: C_21  and  C_22
REMARK    8  A    between atoms: C_22  and  O_23
REMARK    9  A    between atoms: O_23  and  C_24
REMARK   10  A    between atoms: C_24  and  C_25
REMARK   11  A    between atoms: C_25  and  O_26
REMARK                            x       y       z     vdW  Elec       q    Type
REMARK                         _______ _______ _______ _____ _____    ______ ____
ROOT
ATOM      1  N   UNL     1       1.796   8.584  19.730  0.00  0.00    +0.000 N 
ATOM      2  H   UNL     1       2.113   8.861  20.664  0.00  0.00    +0.000 HD
ENDROOT
BRANCH   1  10
ATOM      3  C   UNL     1      -3.021  11.462  18.186  0.00  0.00    +0.000 A 
ATOM      4  C   UNL     1      -3.350  12.354  19.237  0.00  0.00    +0.000 A 
ATOM      5  C   UNL     1      -2.556  12.447  20.387  0.00  0.00    +0.000 A 
ATOM      6  C   UNL     1      -1.440  11.641  20.449  0.00  0.00    +0.000 A 
ATOM      7  C   UNL     1      -1.108  10.775  19.406  0.00  0.00    +0.000 A 
ATOM      8  C   UNL     1      -1.873  10.660  18.261  0.00  0.00    +0.000 A 
ATOM      9  C   UNL     1       0.103  10.070  19.822  0.00  0.00    +0.000 C 
ATOM     10  N   UNL     1       0.732   9.177  19.126  0.00  0.00    +0.000 NA
ATOM     11  C   UNL     1       0.437  10.603  21.223  0.00  0.00    +0.000 C 
ATOM     12  O   UNL     1       1.360  10.233  21.918  0.00  0.00    +0.000 OA
ATOM     13  N   UNL     1      -0.531  11.546  21.498  0.00  0.00    +0.000 N 
ATOM     14  H   UNL     1      -0.567  12.064  22.364  0.00  0.00    +0.000 HD
BRANCH   3  16
ATOM     15  N   UNL     1      -3.358  11.433  15.772  0.00  0.00    +0.000 N 
ATOM     16  C   UNL     1      -3.932  11.419  17.011  0.00  0.00    +0.000 C 
ATOM     17  O   UNL     1      -5.146  11.327  17.149  0.00  0.00    +0.000 OA
ATOM     18  H   UNL     1      -3.982  11.299  14.985  0.00  0.00    +0.000 HD
ATOM     19  H   UNL     1      -2.373  11.269  15.615  0.00  0.00    +0.000 HD
ENDBRANCH   3  16
ENDBRANCH   1  10
BRANCH   1  20
ATOM     20  C   UNL     1       2.412   7.469  19.142  0.00  0.00    +0.000 A 
ATOM     21  C   UNL     1       2.430   6.217  19.772  0.00  0.00    +0.000 A 
ATOM     22  C   UNL     1       3.078   5.122  19.191  0.00  0.00    +0.000 A 
ATOM     23  C   UNL     1       3.747   5.279  17.976  0.00  0.00    +0.000 A 
ATOM     24  C   UNL     1       3.773   6.524  17.344  0.00  0.00    +0.000 A 
ATOM     25  C   UNL     1       3.101   7.608  17.926  0.00  0.00    +0.000 A 
BRANCH  23  26
ATOM     26  S   UNL     1       4.648   3.915  17.286  0.00  0.00    +0.000 S 
ATOM     27  O   UNL     1       3.943   2.706  17.649  0.00  0.00    +0.000 OA
ATOM     28  O   UNL     1       4.975   4.219  15.911  0.00  0.00    +0.000 OA
BRANCH  26  29
ATOM     29  N   UNL     1       6.085   3.904  18.167  0.00  0.00    +0.000 NA
ATOM     30  H   UNL     1       6.471   2.958  18.222  0.00  0.00    +0.000 HD
BRANCH  29  31
ATOM     31  C   UNL     1       7.074   4.957  17.868  0.00  0.00    +0.000 C 
BRANCH  31  32
ATOM     32  C   UNL     1       7.421   5.727  19.146  0.00  0.00    +0.000 C 
BRANCH  32  33
ATOM     33  O   UNL     1       8.315   6.811  18.840  0.00  0.00    +0.000 OA
BRANCH  33  34
ATOM     34  C   UNL     1       7.795   7.611  17.765  0.00  0.00    +0.000 C 
BRANCH  34  35
ATOM     35  C   UNL     1       8.155   9.074  18.007  0.00  0.00    +0.000 C 
BRANCH  35  36
ATOM     36  O   UNL     1       9.064   9.186  19.099  0.00  0.00    +0.000 OA
ATOM     37  H   UNL     1       8.526   9.476  19.859  0.00  0.00    +0.000 HD
ENDBRANCH  35  36
ENDBRANCH  34  35
ENDBRANCH  33  34
ENDBRANCH  32  33
ENDBRANCH  31  32
ENDBRANCH  29  31
ENDBRANCH  26  29
ENDBRANCH  23  26
ENDBRANCH   1  20
TORSDOF 11
ENDMDL
MODEL 3
REMARK VINA RESULT:      -7.6      0.814      1.689
REMARK  Name = 
REMARK  11 active torsions:
REMARK  status: ('A' for Active; 'I' for Inactive)
REMARK    1  A    between atoms: C_2  and  C_4
REMARK    2  A    between atoms: N_11  and  N_12
REMARK    3  A    between atoms: N_12  and  C_13
REMARK    4  A    between atoms: C_16  and  S_17
REMARK    5  A    between atoms: S_17  and  N_20
REMARK    6  A    between atoms: N_20  and  C_21
REMARK    7  A    between atoms: C_21  and  C_22
REMARK    8  A    between atoms: C_22  and  O_23
REMARK    9  A    between atoms: O_23  and  C_24
REMARK   10  A    between atoms: C_24  and  C_25
REMARK   11  A    between atoms: C_25  and  O_26
REMARK                            x       y       z     vdW  Elec       q    Type
REMARK                         _______ _______ _______ _____ _____    ______ ____
ROOT
ATOM      1  N   UNL     1       1.732   8.883  19.615  0.00  0.00    +0.000 N 
ATOM      2  H   UNL     1       2.163   9.382  20.400  0.00  0.00    +0.000 HD
ENDROOT
BRANCH   1  10
ATOM      3  C   UNL     1      -3.234  11.344  17.839  0.00  0.00    +0.000 A 
ATOM      4  C   UNL     1      -3.655  12.249  18.845  0.00  0.00    +0.000 A 
ATOM      5  C   UNL     1      -2.902  12.442  20.010  0.00  0.00    +0.000 A 
ATOM      6  C   UNL     1      -1.733  11.722  20.132  0.00  0.00    +0.000 A 
ATOM      7  C   UNL     1      -1.311  10.844  19.133  0.00  0.00    +0.000 A 
ATOM      8  C   UNL     1      -2.034  10.631  17.974  0.00  0.00    +0.000 A 
ATOM      9  C   UNL     1      -0.065  10.245  19.606  0.00  0.00    +0.000 C 
ATOM     10  N   UNL     1       0.646   9.374  18.962  0.00  0.00    +0.000 NA
ATOM     11  C   UNL     1       0.192  10.854  20.992  0.00  0.00    +0.000 C 
ATOM     12  O   UNL     1       1.119  10.578  21.724  0.00  0.00    +0.000 OA
ATOM     13  N   UNL     1      -0.848  11.734  21.206  0.00  0.00    +0.000 N 
ATOM     14  H   UNL     1      -0.945  12.280  22.050  0.00  0.00    +0.000 HD
BRANCH   3  16
ATOM     15  N   UNL     1      -5.436  11.460  16.801  0.00  0.00    +0.000 N 
ATOM     16  C   UNL     1      -4.107  11.190  16.645  0.00  0.00    +0.000 C 
ATOM     17  O   UNL     1      -3.645  10.877  15.554  0.00  0.00    +0.000 OA
ATOM     18  H   UNL     1      -6.000  11.452  15.959  0.00  0.00    +0.000 HD
ATOM     19  H   UNL     1      -5.813  11.942  17.605  0.00  0.00    +0.000 HD
ENDBRANCH   3  16
ENDBRANCH   1  10
BRANCH   1  20
ATOM     20  C   UNL     1       2.216   7.600  19.319  0.00  0.00    +0.000 A 
ATOM     21  C   UNL     1       2.909   7.328  18.132  0.00  0.00    +0.000 A 
ATOM     22  C   UNL     1       3.356   6.037  17.832  0.00  0.00    +0.000 A 
ATOM     23  C   UNL     1       3.083   4.989  18.714  0.00  0.00    +0.000 A 
ATOM     24  C   UNL     1       2.364   5.226  19.887  0.00  0.00    +0.000 A 
ATOM     25  C   UNL     1       1.941   6.529  20.186  0.00  0.00    +0.000 A 
BRANCH  23  26
ATOM     26  S   UNL     1       3.566   3.336  18.289  0.00  0.00    +0.000 S 
ATOM     27  O   UNL     1       3.683   2.591  19.523  0.00  0.00    +0.000 OA
ATOM     28  O   UNL     1       2.737   2.872  17.199  0.00  0.00    +0.000 OA
BRANCH  26  29
ATOM     29  N   UNL     1       5.135   3.520  17.701  0.00  0.00    +0.000 NA
ATOM     30  H   UNL     1       5.731   2.747  18.006  0.00  0.00    +0.000 HD
BRANCH  29  31
ATOM     31  C   UNL     1       5.290   3.893  16.282  0.00  0.00    +0.000 C 
BRANCH  31  32
ATOM     32  C   UNL     1       6.753   4.242  15.990  0.00  0.00    +0.000 C 
BRANCH  32  33
ATOM     33  O   UNL     1       7.462   4.459  17.221  0.00  0.00    +0.000 OA
BRANCH  33  34
ATOM     34  C   UNL     1       7.462   5.854  17.570  0.00  0.00    +0.000 C 
BRANCH  34  35
ATOM     35  C   UNL     1       7.601   5.995  19.083  0.00  0.00    +0.000 C 
BRANCH  35  36
ATOM     36  O   UNL     1       6.659   5.157  19.747  0.00  0.00    +0.000 OA
ATOM     37  H   UNL     1       6.614   5.488  20.664  0.00  0.00    +0.000 HD
ENDBRANCH  35  36
ENDBRANCH  34  35
ENDBRANCH  33  34
ENDBRANCH  32  33
ENDBRANCH  31  32
ENDBRANCH  29  31
ENDBRANCH  26  29
ENDBRANCH  23  26
ENDBRANCH   1  20
TORSDOF 11
ENDMDL
MODEL 4
REMARK VINA RESULT:      -7.6      2.973     10.003
REMARK  Name = 
REMARK  11 active torsions:
REMARK  status: ('A' for Active; 'I' for Inactive)
REMARK    1  A    between atoms: C_2  and  C_4
REMARK    2  A    between atoms: N_11  and  N_12
REMARK    3  A    between atoms: N_12  and  C_13
REMARK    4  A    between atoms: C_16  and  S_17
REMARK    5  A    between atoms: S_17  and  N_20
REMARK    6  A    between atoms: N_20  and  C_21
REMARK    7  A    between atoms: C_21  and  C_22
REMARK    8  A    between atoms: C_22  and  O_23
REMARK    9  A    between atoms: O_23  and  C_24
REMARK   10  A    between atoms: C_24  and  C_25
REMARK   11  A    between atoms: C_25  and  O_26
REMARK                            x       y       z     vdW  Elec       q    Type
REMARK                         _______ _______ _______ _____ _____    ______ ____
ROOT
ATOM      1  N   UNL     1       4.295   5.257  18.263  0.00  0.00    +0.000 N 
ATOM      2  H   UNL     1       4.865   4.973  19.065  0.00  0.00    +0.000 HD
ENDROOT
BRANCH   1  10
ATOM      3  C   UNL     1       5.768   3.665  12.862  0.00  0.00    +0.000 A 
ATOM      4  C   UNL     1       7.037   4.227  12.575  0.00  0.00    +0.000 A 
ATOM      5  C   UNL     1       7.724   4.996  13.523  0.00  0.00    +0.000 A 
ATOM      6  C   UNL     1       7.118   5.176  14.747  0.00  0.00    +0.000 A 
ATOM      7  C   UNL     1       5.876   4.607  15.035  0.00  0.00    +0.000 A 
ATOM      8  C   UNL     1       5.174   3.847  14.120  0.00  0.00    +0.000 A 
ATOM      9  C   UNL     1       5.535   5.023  16.394  0.00  0.00    +0.000 C 
ATOM     10  N   UNL     1       4.456   4.699  17.034  0.00  0.00    +0.000 NA
ATOM     11  C   UNL     1       6.700   5.905  16.867  0.00  0.00    +0.000 C 
ATOM     12  O   UNL     1       6.770   6.468  17.939  0.00  0.00    +0.000 OA
ATOM     13  N   UNL     1       7.598   5.919  15.821  0.00  0.00    +0.000 N 
ATOM     14  H   UNL     1       8.468   6.431  15.847  0.00  0.00    +0.000 HD
BRANCH   3  16
ATOM     15  N   UNL     1       5.669   1.680  11.451  0.00  0.00    +0.000 N 
ATOM     16  C   UNL     1       5.106   2.878  11.789  0.00  0.00    +0.000 C 
ATOM     17  O   UNL     1       4.072   3.267  11.259  0.00  0.00    +0.000 OA
ATOM     18  H   UNL     1       5.151   1.108  10.794  0.00  0.00    +0.000 HD
ATOM     19  H   UNL     1       6.369   1.218  12.015  0.00  0.00    +0.000 HD
ENDBRANCH   3  16
ENDBRANCH   1  10
BRANCH   1  20
ATOM     20  C   UNL     1       3.427   6.346  18.438  0.00  0.00    +0.000 A 
ATOM     21  C   UNL     1       3.291   7.346  17.466  0.00  0.00    +0.000 A 
ATOM     22  C   UNL     1       2.448   8.444  17.666  0.00  0.00    +0.000 A 
ATOM     23  C   UNL     1       1.750   8.568  18.869  0.00  0.00    +0.000 A 
ATOM     24  C   UNL     1       1.894   7.603  19.869  0.00  0.00    +0.000 A 
ATOM     25  C   UNL     1       2.724   6.496  19.645  0.00  0.00    +0.000 A 
BRANCH  23  26
ATOM     26  S   UNL     1       0.756  10.007  19.163  0.00  0.00    +0.000 S 
ATOM     27  O   UNL     1      -0.189   9.673  20.206  0.00  0.00    +0.000 OA
ATOM     28  O   UNL     1       1.623  11.161  19.266  0.00  0.00    +0.000 OA
BRANCH  26  29
ATOM     29  N   UNL     1      -0.143  10.164  17.746  0.00  0.00    +0.000 NA
ATOM     30  H   UNL     1       0.254   9.590  16.998  0.00  0.00    +0.000 HD
BRANCH  29  31
ATOM     31  C   UNL     1      -1.612  10.093  17.861  0.00  0.00    +0.000 C 
BRANCH  31  32
ATOM     32  C   UNL     1      -2.217  11.492  17.701  0.00  0.00    +0.000 C 
BRANCH  32  33
ATOM     33  O   UNL     1      -1.213  12.492  17.941  0.00  0.00    +0.000 OA
BRANCH  33  34
ATOM     34  C   UNL     1      -1.397  13.100  19.230  0.00  0.00    +0.000 C 
BRANCH  34  35
ATOM     35  C   UNL     1      -0.264  14.089  19.488  0.00  0.00    +0.000 C 
BRANCH  35  36
ATOM     36  O   UNL     1       0.818  13.845  18.593  0.00  0.00    +0.000 OA
ATOM     37  H   UNL     1       1.603  14.239  19.018  0.00  0.00    +0.000 HD
ENDBRANCH  35  36
ENDBRANCH  34  35
ENDBRANCH  33  34
ENDBRANCH  32  33
ENDBRANCH  31  32
ENDBRANCH  29  31
ENDBRANCH  26  29
ENDBRANCH  23  26
ENDBRANCH   1  20
TORSDOF 11
ENDMDL
MODEL 5
REMARK VINA RESULT:      -7.6      1.940      3.211
REMARK  Name = 
REMARK  11 active torsions:
REMARK  status: ('A' for Active; 'I' for Inactive)
REMARK    1  A    between atoms: C_2  and  C_4
REMARK    2  A    between atoms: N_11  and  N_12
REMARK    3  A    between atoms: N_12  and  C_13
REMARK    4  A    between atoms: C_16  and  S_17
REMARK    5  A    between atoms: S_17  and  N_20
REMARK    6  A    between atoms: N_20  and  C_21
REMARK    7  A    between atoms: C_21  and  C_22
REMARK    8  A    between atoms: C_22  and  O_23
REMARK    9  A    between atoms: O_23  and  C_24
REMARK   10  A    between atoms: C_24  and  C_25
REMARK   11  A    between atoms: C_25  and  O_26
REMARK                            x       y       z     vdW  Elec       q    Type
REMARK                         _______ _______ _______ _____ _____    ______ ____
ROOT
ATOM      1  N   UNL     1       1.458   9.013  18.835  0.00  0.00    +0.000 N 
ATOM      2  H   UNL     1       1.495   9.579  19.688  0.00  0.00    +0.000 HD
ENDROOT
BRANCH   1  10
ATOM      3  C   UNL     1      -3.094  10.325  15.454  0.00  0.00    +0.000 A 
ATOM      4  C   UNL     1      -3.998  11.098  16.224  0.00  0.00    +0.000 A 
ATOM      5  C   UNL     1      -3.715  11.439  17.553  0.00  0.00    +0.000 A 
ATOM      6  C   UNL     1      -2.519  10.997  18.076  0.00  0.00    +0.000 A 
ATOM      7  C   UNL     1      -1.622  10.250  17.312  0.00  0.00    +0.000 A 
ATOM      8  C   UNL     1      -1.875   9.896  16.000  0.00  0.00    +0.000 A 
ATOM      9  C   UNL     1      -0.492   9.938  18.185  0.00  0.00    +0.000 C 
ATOM     10  N   UNL     1       0.557   9.257  17.848  0.00  0.00    +0.000 NA
ATOM     11  C   UNL     1      -0.828  10.569  19.544  0.00  0.00    +0.000 C 
ATOM     12  O   UNL     1      -0.145  10.497  20.544  0.00  0.00    +0.000 OA
ATOM     13  N   UNL     1      -2.046  11.191  19.371  0.00  0.00    +0.000 N 
ATOM     14  H   UNL     1      -2.522  11.689  20.108  0.00  0.00    +0.000 HD
BRANCH   3  16
ATOM     15  N   UNL     1      -4.822   9.952  13.777  0.00  0.00    +0.000 N 
ATOM     16  C   UNL     1      -3.486   9.997  14.059  0.00  0.00    +0.000 C 
ATOM     17  O   UNL     1      -2.646   9.818  13.186  0.00  0.00    +0.000 OA
ATOM     18  H   UNL     1      -5.073   9.831  12.803  0.00  0.00    +0.000 HD
ATOM     19  H   UNL     1      -5.531  10.321  14.395  0.00  0.00    +0.000 HD
ENDBRANCH   3  16
ENDBRANCH   1  10
BRANCH   1  20
ATOM     20  C   UNL     1       2.284   7.880  18.775  0.00  0.00    +0.000 A 
ATOM     21  C   UNL     1       2.331   6.944  19.816  0.00  0.00    +0.000 A 
ATOM     22  C   UNL     1       3.184   5.836  19.759  0.00  0.00    +0.000 A 
ATOM     23  C   UNL     1       4.029   5.671  18.660  0.00  0.00    +0.000 A 
ATOM     24  C   UNL     1       4.027   6.608  17.624  0.00  0.00    +0.000 A 
ATOM     25  C   UNL     1       3.151   7.701  17.684  0.00  0.00    +0.000 A 
BRANCH  23  26
ATOM     26  S   UNL     1       5.178   4.319  18.631  0.00  0.00    +0.000 S 
ATOM     27  O   UNL     1       4.732   3.397  17.611  0.00  0.00    +0.000 OA
ATOM     28  O   UNL     1       6.523   4.850  18.638  0.00  0.00    +0.000 OA
BRANCH  26  29
ATOM     29  N   UNL     1       4.920   3.549  20.108  0.00  0.00    +0.000 NA
ATOM     30  H   UNL     1       4.711   4.231  20.842  0.00  0.00    +0.000 HD
BRANCH  29  31
ATOM     31  C   UNL     1       4.054   2.355  20.111  0.00  0.00    +0.000 C 
BRANCH  31  32
ATOM     32  C   UNL     1       2.969   2.500  21.183  0.00  0.00    +0.000 C 
BRANCH  32  33
ATOM     33  O   UNL     1       1.668   2.353  20.590  0.00  0.00    +0.000 OA
BRANCH  33  34
ATOM     34  C   UNL     1       1.778   2.064  19.186  0.00  0.00    +0.000 C 
BRANCH  34  35
ATOM     35  C   UNL     1       1.074   3.159  18.390  0.00  0.00    +0.000 C 
BRANCH  35  36
ATOM     36  O   UNL     1       1.794   3.442  17.193  0.00  0.00    +0.000 OA
ATOM     37  H   UNL     1       1.555   4.357  16.953  0.00  0.00    +0.000 HD
ENDBRANCH  35  36
ENDBRANCH  34  35
ENDBRANCH  33  34
ENDBRANCH  32  33
ENDBRANCH  31  32
ENDBRANCH  29  31
ENDBRANCH  26  29
ENDBRANCH  23  26
ENDBRANCH   1  20
TORSDOF 11
ENDMDL
MODEL 6
REMARK VINA RESULT:      -7.6      3.703     10.803
REMARK  Name = 
REMARK  11 active torsions:
REMARK  status: ('A' for Active; 'I' for Inactive)
REMARK    1  A    between atoms: C_2  and  C_4
REMARK    2  A    between atoms: N_11  and  N_12
REMARK    3  A    between atoms: N_12  and  C_13
REMARK    4  A    between atoms: C_16  and  S_17
REMARK    5  A    between atoms: S_17  and  N_20
REMARK    6  A    between atoms: N_20  and  C_21
REMARK    7  A    between atoms: C_21  and  C_22
REMARK    8  A    between atoms: C_22  and  O_23
REMARK    9  A    between atoms: O_23  and  C_24
REMARK   10  A    between atoms: C_24  and  C_25
REMARK   11  A    between atoms: C_25  and  O_26
REMARK                            x       y       z     vdW  Elec       q    Type
REMARK                         _______ _______ _______ _____ _____    ______ ____
ROOT
ATOM      1  N   UNL     1       1.565   7.183  20.957  0.00  0.00    +0.000 N 
ATOM      2  H   UNL     1       1.344   6.438  21.625  0.00  0.00    +0.000 HD
ENDROOT
BRANCH   1  10
ATOM      3  C   UNL     1       5.500   5.444  17.038  0.00  0.00    +0.000 A 
ATOM      4  C   UNL     1       5.220   4.093  16.712  0.00  0.00    +0.000 A 
ATOM      5  C   UNL     1       4.138   3.415  17.287  0.00  0.00    +0.000 A 
ATOM      6  C   UNL     1       3.355   4.118  18.177  0.00  0.00    +0.000 A 
ATOM      7  C   UNL     1       3.622   5.453  18.485  0.00  0.00    +0.000 A 
ATOM      8  C   UNL     1       4.683   6.147  17.935  0.00  0.00    +0.000 A 
ATOM      9  C   UNL     1       2.618   5.860  19.467  0.00  0.00    +0.000 C 
ATOM     10  N   UNL     1       2.523   7.035  20.005  0.00  0.00    +0.000 NA
ATOM     11  C   UNL     1       1.746   4.621  19.712  0.00  0.00    +0.000 C 
ATOM     12  O   UNL     1       0.821   4.552  20.493  0.00  0.00    +0.000 OA
ATOM     13  N   UNL     1       2.255   3.643  18.884  0.00  0.00    +0.000 N 
ATOM     14  H   UNL     1       1.878   2.707  18.838  0.00  0.00    +0.000 HD
BRANCH   3  16
ATOM     15  N   UNL     1       7.302   5.375  15.399  0.00  0.00    +0.000 N 
ATOM     16  C   UNL     1       6.680   6.076  16.392  0.00  0.00    +0.000 C 
ATOM     17  O   UNL     1       7.052   7.201  16.706  0.00  0.00    +0.000 OA
ATOM     18  H   UNL     1       8.038   5.859  14.898  0.00  0.00    +0.000 HD
ATOM     19  H   UNL     1       6.894   4.566  14.953  0.00  0.00    +0.000 HD
ENDBRANCH   3  16
ENDBRANCH   1  10
BRANCH   1  20
ATOM     20  C   UNL     1       0.939   8.425  21.143  0.00  0.00    +0.000 A 
ATOM     21  C   UNL     1       0.896   9.390  20.128  0.00  0.00    +0.000 A 
ATOM     22  C   UNL     1       0.299  10.637  20.336  0.00  0.00    +0.000 A 
ATOM     23  C   UNL     1      -0.240  10.945  21.588  0.00  0.00    +0.000 A 
ATOM     24  C   UNL     1      -0.180  10.014  22.627  0.00  0.00    +0.000 A 
ATOM     25  C   UNL     1       0.401   8.760  22.397  0.00  0.00    +0.000 A 
BRANCH  23  26
ATOM     26  S   UNL     1      -0.912  12.560  21.881  0.00  0.00    +0.000 S 
ATOM     27  O   UNL     1      -0.326  13.054  23.107  0.00  0.00    +0.000 OA
ATOM     28  O   UNL     1      -0.854  13.321  20.653  0.00  0.00    +0.000 OA
BRANCH  26  29
ATOM     29  N   UNL     1      -2.534  12.258  22.224  0.00  0.00    +0.000 NA
ATOM     30  H   UNL     1      -2.636  11.818  23.142  0.00  0.00    +0.000 HD
BRANCH  29  31
ATOM     31  C   UNL     1      -3.500  13.339  21.949  0.00  0.00    +0.000 C 
BRANCH  31  32
ATOM     32  C   UNL     1      -4.747  12.765  21.267  0.00  0.00    +0.000 C 
BRANCH  32  33
ATOM     33  O   UNL     1      -5.665  12.270  22.256  0.00  0.00    +0.000 OA
BRANCH  33  34
ATOM     34  C   UNL     1      -6.951  12.894  22.115  0.00  0.00    +0.000 C 
BRANCH  34  35
ATOM     35  C   UNL     1      -7.916  12.298  23.136  0.00  0.00    +0.000 C 
BRANCH  35  36
ATOM     36  O   UNL     1      -7.225  11.407  24.008  0.00  0.00    +0.000 OA
ATOM     37  H   UNL     1      -7.532  10.513  23.766  0.00  0.00    +0.000 HD
ENDBRANCH  35  36
ENDBRANCH  34  35
ENDBRANCH  33  34
ENDBRANCH  32  33
ENDBRANCH  31  32
ENDBRANCH  29  31
ENDBRANCH  26  29
ENDBRANCH  23  26
ENDBRANCH   1  20
TORSDOF 11
ENDMDL
MODEL 7
REMARK VINA RESULT:      -7.6      1.599      3.253
REMARK  Name = 
REMARK  11 active torsions:
REMARK  status: ('A' for Active; 'I' for Inactive)
REMARK    1  A    between atoms: C_2  and  C_4
REMARK    2  A    between atoms: N_11  and  N_12
REMARK    3  A    between atoms: N_12  and  C_13
REMARK    4  A    between atoms: C_16  and  S_17
REMARK    5  A    between atoms: S_17  and  N_20
REMARK    6  A    between atoms: N_20  and  C_21
REMARK    7  A    between atoms: C_21  and  C_22
REMARK    8  A    between atoms: C_22  and  O_23
REMARK    9  A    between atoms: O_23  and  C_24
REMARK   10  A    between atoms: C_24  and  C_25
REMARK   11  A    between atoms: C_25  and  O_26
REMARK                            x       y       z     vdW  Elec       q    Type
REMARK                         _______ _______ _______ _____ _____    ______ ____
ROOT
ATOM      1  N   UNL     1       1.733   8.606  19.887  0.00  0.00    +0.000 N 
ATOM      2  H   UNL     1       1.936   8.846  20.863  0.00  0.00    +0.000 HD
ENDROOT
BRANCH   1  10
ATOM      3  C   UNL     1      -2.973  11.439  17.964  0.00  0.00    +0.000 A 
ATOM      4  C   UNL     1      -3.388  12.333  18.983  0.00  0.00    +0.000 A 
ATOM      5  C   UNL     1      -2.685  12.437  20.190  0.00  0.00    +0.000 A 
ATOM      6  C   UNL     1      -1.571  11.640  20.342  0.00  0.00    +0.000 A 
ATOM      7  C   UNL     1      -1.154  10.773  19.331  0.00  0.00    +0.000 A 
ATOM      8  C   UNL     1      -1.828  10.647  18.131  0.00  0.00    +0.000 A 
ATOM      9  C   UNL     1       0.027  10.079  19.842  0.00  0.00    +0.000 C 
ATOM     10  N   UNL     1       0.715   9.188  19.201  0.00  0.00    +0.000 NA
ATOM     11  C   UNL     1       0.249  10.621  21.262  0.00  0.00    +0.000 C 
ATOM     12  O   UNL     1       1.119  10.262  22.027  0.00  0.00    +0.000 OA
ATOM     13  N   UNL     1      -0.744  11.557  21.457  0.00  0.00    +0.000 N 
ATOM     14  H   UNL     1      -0.850  12.079  22.316  0.00  0.00    +0.000 HD
BRANCH   3  16
ATOM     15  N   UNL     1      -3.123  11.299  15.536  0.00  0.00    +0.000 N 
ATOM     16  C   UNL     1      -3.791  11.383  16.724  0.00  0.00    +0.000 C 
ATOM     17  O   UNL     1      -5.015  11.367  16.768  0.00  0.00    +0.000 OA
ATOM     18  H   UNL     1      -3.690  11.157  14.709  0.00  0.00    +0.000 HD
ATOM     19  H   UNL     1      -2.140  11.072  15.467  0.00  0.00    +0.000 HD
ENDBRANCH   3  16
ENDBRANCH   1  10
BRANCH   1  20
ATOM     20  C   UNL     1       2.459   7.549  19.316  0.00  0.00    +0.000 A 
ATOM     21  C   UNL     1       2.708   6.361  20.016  0.00  0.00    +0.000 A 
ATOM     22  C   UNL     1       3.461   5.328  19.449  0.00  0.00    +0.000 A 
ATOM     23  C   UNL     1       4.005   5.490  18.172  0.00  0.00    +0.000 A 
ATOM     24  C   UNL     1       3.801   6.678  17.467  0.00  0.00    +0.000 A 
ATOM     25  C   UNL     1       3.024   7.696  18.039  0.00  0.00    +0.000 A 
BRANCH  23  26
ATOM     26  S   UNL     1       5.039   4.221  17.491  0.00  0.00    +0.000 S 
ATOM     27  O   UNL     1       4.676   4.070  16.099  0.00  0.00    +0.000 OA
ATOM     28  O   UNL     1       6.406   4.464  17.896  0.00  0.00    +0.000 OA
BRANCH  26  29
ATOM     29  N   UNL     1       4.513   2.821  18.268  0.00  0.00    +0.000 NA
ATOM     30  H   UNL     1       4.303   3.008  19.252  0.00  0.00    +0.000 HD
BRANCH  29  31
ATOM     31  C   UNL     1       3.509   1.993  17.572  0.00  0.00    +0.000 C 
BRANCH  31  32
ATOM     32  C   UNL     1       2.118   2.254  18.159  0.00  0.00    +0.000 C 
BRANCH  32  33
ATOM     33  O   UNL     1       2.127   2.007  19.575  0.00  0.00    +0.000 OA
BRANCH  33  34
ATOM     34  C   UNL     1       1.110   2.781  20.233  0.00  0.00    +0.000 C 
BRANCH  34  35
ATOM     35  C   UNL     1       1.464   2.924  21.711  0.00  0.00    +0.000 C 
BRANCH  35  36
ATOM     36  O   UNL     1       2.801   2.488  21.944  0.00  0.00    +0.000 OA
ATOM     37  H   UNL     1       2.893   2.434  22.914  0.00  0.00    +0.000 HD
ENDBRANCH  35  36
ENDBRANCH  34  35
ENDBRANCH  33  34
ENDBRANCH  32  33
ENDBRANCH  31  32
ENDBRANCH  29  31
ENDBRANCH  26  29
ENDBRANCH  23  26
ENDBRANCH   1  20
TORSDOF 11
ENDMDL
MODEL 8
REMARK VINA RESULT:      -7.5      3.677     10.703
REMARK  Name = 
REMARK  11 active torsions:
REMARK  status: ('A' for Active; 'I' for Inactive)
REMARK    1  A    between atoms: C_2  and  C_4
REMARK    2  A    between atoms: N_11  and  N_12
REMARK    3  A    between atoms: N_12  and  C_13
REMARK    4  A    between atoms: C_16  and  S_17
REMARK    5  A    between atoms: S_17  and  N_20
REMARK    6  A    between atoms: N_20  and  C_21
REMARK    7  A    between atoms: C_21  and  C_22
REMARK    8  A    between atoms: C_22  and  O_23
REMARK    9  A    between atoms: O_23  and  C_24
REMARK   10  A    between atoms: C_24  and  C_25
REMARK   11  A    between atoms: C_25  and  O_26
REMARK                            x       y       z     vdW  Elec       q    Type
REMARK                         _______ _______ _______ _____ _____    ______ ____
ROOT
ATOM      1  N   UNL     1       1.824   7.348  20.865  0.00  0.00    +0.000 N 
ATOM      2  H   UNL     1       1.796   6.772  21.711  0.00  0.00    +0.000 HD
ENDROOT
BRANCH   1  10
ATOM      3  C   UNL     1       5.376   5.210  16.780  0.00  0.00    +0.000 A 
ATOM      4  C   UNL     1       5.012   3.859  16.552  0.00  0.00    +0.000 A 
ATOM      5  C   UNL     1       3.946   3.267  17.241  0.00  0.00    +0.000 A 
ATOM      6  C   UNL     1       3.264   4.054  18.143  0.00  0.00    +0.000 A 
ATOM      7  C   UNL     1       3.612   5.388  18.354  0.00  0.00    +0.000 A 
ATOM      8  C   UNL     1       4.660   5.999  17.692  0.00  0.00    +0.000 A 
ATOM      9  C   UNL     1       2.704   5.897  19.381  0.00  0.00    +0.000 C 
ATOM     10  N   UNL     1       2.701   7.102  19.856  0.00  0.00    +0.000 NA
ATOM     11  C   UNL     1       1.797   4.716  19.758  0.00  0.00    +0.000 C 
ATOM     12  O   UNL     1       0.930   4.735  20.606  0.00  0.00    +0.000 OA
ATOM     13  N   UNL     1       2.198   3.672  18.953  0.00  0.00    +0.000 N 
ATOM     14  H   UNL     1       1.777   2.755  18.987  0.00  0.00    +0.000 HD
BRANCH   3  16
ATOM     15  N   UNL     1       6.612   5.427  14.691  0.00  0.00    +0.000 N 
ATOM     16  C   UNL     1       6.532   5.748  16.016  0.00  0.00    +0.000 C 
ATOM     17  O   UNL     1       7.356   6.487  16.543  0.00  0.00    +0.000 OA
ATOM     18  H   UNL     1       7.345   5.884  14.160  0.00  0.00    +0.000 HD
ATOM     19  H   UNL     1       5.844   5.028  14.171  0.00  0.00    +0.000 HD
ENDBRANCH   3  16
ENDBRANCH   1  10
BRANCH   1  20
ATOM     20  C   UNL     1       1.016   8.495  20.835  0.00  0.00    +0.000 A 
ATOM     21  C   UNL     1       0.980   9.344  19.721  0.00  0.00    +0.000 A 
ATOM     22  C   UNL     1       0.196  10.503  19.716  0.00  0.00    +0.000 A 
ATOM     23  C   UNL     1      -0.543  10.842  20.852  0.00  0.00    +0.000 A 
ATOM     24  C   UNL     1      -0.497  10.031  21.988  0.00  0.00    +0.000 A 
ATOM     25  C   UNL     1       0.275   8.861  21.971  0.00  0.00    +0.000 A 
BRANCH  23  26
ATOM     26  S   UNL     1      -1.461  12.359  20.882  0.00  0.00    +0.000 S 
ATOM     27  O   UNL     1      -0.514  13.439  20.710  0.00  0.00    +0.000 OA
ATOM     28  O   UNL     1      -2.618  12.222  20.025  0.00  0.00    +0.000 OA
BRANCH  26  29
ATOM     29  N   UNL     1      -2.006  12.461  22.473  0.00  0.00    +0.000 NA
ATOM     30  H   UNL     1      -1.445  13.128  23.008  0.00  0.00    +0.000 HD
BRANCH  29  31
ATOM     31  C   UNL     1      -3.462  12.570  22.687  0.00  0.00    +0.000 C 
BRANCH  31  32
ATOM     32  C   UNL     1      -3.782  12.433  24.179  0.00  0.00    +0.000 C 
BRANCH  32  33
ATOM     33  O   UNL     1      -5.150  12.026  24.354  0.00  0.00    +0.000 OA
BRANCH  33  34
ATOM     34  C   UNL     1      -6.049  13.073  23.953  0.00  0.00    +0.000 C 
BRANCH  34  35
ATOM     35  C   UNL     1      -7.299  12.455  23.335  0.00  0.00    +0.000 C 
BRANCH  35  36
ATOM     36  O   UNL     1      -6.954  11.676  22.192  0.00  0.00    +0.000 OA
ATOM     37  H   UNL     1      -6.722  12.320  21.497  0.00  0.00    +0.000 HD
ENDBRANCH  35  36
ENDBRANCH  34  35
ENDBRANCH  33  34
ENDBRANCH  32  33
ENDBRANCH  31  32
ENDBRANCH  29  31
ENDBRANCH  26  29
ENDBRANCH  23  26
ENDBRANCH   1  20
TORSDOF 11
ENDMDL
MODEL 9
REMARK VINA RESULT:      -7.5      2.887      9.673
REMARK  Name = 
REMARK  11 active torsions:
REMARK  status: ('A' for Active; 'I' for Inactive)
REMARK    1  A    between atoms: C_2  and  C_4
REMARK    2  A    between atoms: N_11  and  N_12
REMARK    3  A    between atoms: N_12  and  C_13
REMARK    4  A    between atoms: C_16  and  S_17
REMARK    5  A    between atoms: S_17  and  N_20
REMARK    6  A    between atoms: N_20  and  C_21
REMARK    7  A    between atoms: C_21  and  C_22
REMARK    8  A    between atoms: C_22  and  O_23
REMARK    9  A    between atoms: O_23  and  C_24
REMARK   10  A    between atoms: C_24  and  C_25
REMARK   11  A    between atoms: C_25  and  O_26
REMARK                            x       y       z     vdW  Elec       q    Type
REMARK                         _______ _______ _______ _____ _____    ______ ____
ROOT
ATOM      1  N   UNL     1       1.696   7.014  20.842  0.00  0.00    +0.000 N 
ATOM      2  H   UNL     1       1.503   6.275  21.526  0.00  0.00    +0.000 HD
ENDROOT
BRANCH   1  10
ATOM      3  C   UNL     1       5.606   5.334  16.873  0.00  0.00    +0.000 A 
ATOM      4  C   UNL     1       5.294   4.006  16.490  0.00  0.00    +0.000 A 
ATOM      5  C   UNL     1       4.191   3.333  17.032  0.00  0.00    +0.000 A 
ATOM      6  C   UNL     1       3.422   4.019  17.947  0.00  0.00    +0.000 A 
ATOM      7  C   UNL     1       3.721   5.333  18.310  0.00  0.00    +0.000 A 
ATOM      8  C   UNL     1       4.802   6.021  17.794  0.00  0.00    +0.000 A 
ATOM      9  C   UNL     1       2.723   5.726  19.304  0.00  0.00    +0.000 C 
ATOM     10  N   UNL     1       2.655   6.879  19.889  0.00  0.00    +0.000 NA
ATOM     11  C   UNL     1       1.817   4.500  19.494  0.00  0.00    +0.000 C 
ATOM     12  O   UNL     1       0.886   4.424  20.268  0.00  0.00    +0.000 OA
ATOM     13  N   UNL     1       2.305   3.544  18.629  0.00  0.00    +0.000 N 
ATOM     14  H   UNL     1       1.905   2.621  18.542  0.00  0.00    +0.000 HD
BRANCH   3  16
ATOM     15  N   UNL     1       7.318   7.069  16.873  0.00  0.00    +0.000 N 
ATOM     16  C   UNL     1       6.806   5.962  16.259  0.00  0.00    +0.000 C 
ATOM     17  O   UNL     1       7.340   5.480  15.268  0.00  0.00    +0.000 OA
ATOM     18  H   UNL     1       8.193   7.424  16.505  0.00  0.00    +0.000 HD
ATOM     19  H   UNL     1       7.059   7.354  17.807  0.00  0.00    +0.000 HD
ENDBRANCH   3  16
ENDBRANCH   1  10
BRANCH   1  20
ATOM     20  C   UNL     1       1.027   8.237  21.006  0.00  0.00    +0.000 A 
ATOM     21  C   UNL     1       1.069   9.238  20.027  0.00  0.00    +0.000 A 
ATOM     22  C   UNL     1       0.426  10.466  20.216  0.00  0.00    +0.000 A 
ATOM     23  C   UNL     1      -0.244  10.717  21.415  0.00  0.00    +0.000 A 
ATOM     24  C   UNL     1      -0.271   9.750  22.421  0.00  0.00    +0.000 A 
ATOM     25  C   UNL     1       0.357   8.515  22.209  0.00  0.00    +0.000 A 
BRANCH  23  26
ATOM     26  S   UNL     1      -0.977  12.308  21.694  0.00  0.00    +0.000 S 
ATOM     27  O   UNL     1      -2.257  12.087  22.331  0.00  0.00    +0.000 OA
ATOM     28  O   UNL     1       0.017  13.185  22.273  0.00  0.00    +0.000 OA
BRANCH  26  29
ATOM     29  N   UNL     1      -1.315  12.867  20.141  0.00  0.00    +0.000 NA
ATOM     30  H   UNL     1      -0.484  12.813  19.546  0.00  0.00    +0.000 HD
BRANCH  29  31
ATOM     31  C   UNL     1      -2.560  12.396  19.504  0.00  0.00    +0.000 C 
BRANCH  31  32
ATOM     32  C   UNL     1      -2.241  11.741  18.156  0.00  0.00    +0.000 C 
BRANCH  32  33
ATOM     33  O   UNL     1      -2.743  10.394  18.133  0.00  0.00    +0.000 OA
BRANCH  33  34
ATOM     34  C   UNL     1      -3.033   9.981  16.787  0.00  0.00    +0.000 C 
BRANCH  34  35
ATOM     35  C   UNL     1      -3.803  11.089  16.075  0.00  0.00    +0.000 C 
BRANCH  35  36
ATOM     36  O   UNL     1      -5.145  11.144  16.551  0.00  0.00    +0.000 OA
ATOM     37  H   UNL     1      -5.592  10.368  16.165  0.00  0.00    +0.000 HD
ENDBRANCH  35  36
ENDBRANCH  34  35
ENDBRANCH  33  34
ENDBRANCH  32  33
ENDBRANCH  31  32
ENDBRANCH  29  31
ENDBRANCH  26  29
ENDBRANCH  23  26
ENDBRANCH   1  20
TORSDOF 11
ENDMDL
