MODEL 1
REMARK VINA RESULT:      -8.3      0.000      0.000
REMARK  Name = 
REMARK  5 active torsions:
REMARK  status: ('A' for Active; 'I' for Inactive)
REMARK    1  A    between atoms: C_2  and  C_3
REMARK    2  A    between atoms: C_2  and  C_18
REMARK    3  A    between atoms: C_3  and  N_4
REMARK    4  A    between atoms: C_5  and  C_6
REMARK    5  A    between atoms: C_21  and  N_22
REMARK                            x       y       z     vdW  Elec       q    Type
REMARK                         _______ _______ _______ _____ _____    ______ ____
ROOT
ATOM      1  N   UNL     1       2.951   4.586  18.593  0.00  0.00    +0.000 N 
ATOM      2  C   UNL     1       4.193   3.934  18.207  0.00  0.00    +0.000 A 
ATOM      3  C   UNL     1       4.357   2.869  19.140  0.00  0.00    +0.000 A 
ATOM      4  N   UNL     1       3.329   2.997  20.038  0.00  0.00    +0.000 N 
ATOM      5  C   UNL     1       2.984   2.331  21.181  0.00  0.00    +0.000 A 
ATOM      6  C   UNL     1       1.855   2.919  21.739  0.00  0.00    +0.000 A 
ATOM      7  S   UNL     1       1.383   4.320  20.803  0.00  0.00    +0.000 S 
ATOM      8  C   UNL     1       2.578   3.986  19.701  0.00  0.00    +0.000 A 
ENDROOT
BRANCH   2   9
ATOM      9  C   UNL     1       5.212   4.288  17.156  0.00  0.00    +0.000 A 
ATOM     10  C   UNL     1       6.520   4.635  17.506  0.00  0.00    +0.000 A 
ATOM     11  C   UNL     1       7.476   4.856  16.510  0.00  0.00    +0.000 A 
ATOM     12  C   UNL     1       7.138   4.723  15.166  0.00  0.00    +0.000 A 
ATOM     13  C   UNL     1       5.837   4.379  14.810  0.00  0.00    +0.000 A 
ATOM     14  C   UNL     1       4.876   4.160  15.799  0.00  0.00    +0.000 A 
ENDBRANCH   2   9
BRANCH   1  15
ATOM     15  C   UNL     1       2.189   5.650  17.899  0.00  0.00    +0.000 C 
BRANCH  15  17
ATOM     16  O   UNL     1       3.785   7.426  17.772  0.00  0.00    +0.000 OA
ATOM     17  C   UNL     1       2.696   7.056  18.208  0.00  0.00    +0.000 C 
BRANCH  17  18
ATOM     18  C   UNL     1       1.929   8.021  19.049  0.00  0.00    +0.000 A 
ATOM     19  C   UNL     1       1.451   9.254  18.592  0.00  0.00    +0.000 A 
ATOM     20  C   UNL     1       0.913  10.174  19.505  0.00  0.00    +0.000 A 
ATOM     21  C   UNL     1       0.841   9.856  20.869  0.00  0.00    +0.000 A 
ATOM     22  C   UNL     1       1.233   8.594  21.320  0.00  0.00    +0.000 A 
ATOM     23  C   UNL     1       1.772   7.684  20.408  0.00  0.00    +0.000 A 
BRANCH  21  24
ATOM     24  N   UNL     1       0.417  10.874  21.841  0.00  0.00    +0.000 N 
ATOM     25  O   UNL     1       0.452  12.056  21.475  0.00  0.00    +0.000 OA
ATOM     26  O   UNL     1       0.075  10.485  22.965  0.00  0.00    +0.000 OA
ENDBRANCH  21  24
ENDBRANCH  17  18
ENDBRANCH  15  17
ENDBRANCH   1  15
TORSDOF 5
ENDMDL
MODEL 2
REMARK VINA RESULT:      -8.2      0.555      1.186
REMARK  Name = 
REMARK  5 active torsions:
REMARK  status: ('A' for Active; 'I' for Inactive)
REMARK    1  A    between atoms: C_2  and  C_3
REMARK    2  A    between atoms: C_2  and  C_18
REMARK    3  A    between atoms: C_3  and  N_4
REMARK    4  A    between atoms: C_5  and  C_6
REMARK    5  A    between atoms: C_21  and  N_22
REMARK                            x       y       z     vdW  Elec       q    Type
REMARK                         _______ _______ _______ _____ _____    ______ ____
ROOT
ATOM      1  N   UNL     1       2.886   4.528  18.627  0.00  0.00    +0.000 N 
ATOM      2  C   UNL     1       4.159   3.897  18.313  0.00  0.00    +0.000 A 
ATOM      3  C   UNL     1       4.295   2.846  19.266  0.00  0.00    +0.000 A 
ATOM      4  N   UNL     1       3.220   2.963  20.110  0.00  0.00    +0.000 N 
ATOM      5  C   UNL     1       2.830   2.303  21.242  0.00  0.00    +0.000 A 
ATOM      6  C   UNL     1       1.663   2.875  21.734  0.00  0.00    +0.000 A 
ATOM      7  S   UNL     1       1.212   4.255  20.758  0.00  0.00    +0.000 S 
ATOM      8  C   UNL     1       2.468   3.933  19.723  0.00  0.00    +0.000 A 
ENDROOT
BRANCH   2   9
ATOM      9  C   UNL     1       5.223   4.260  17.311  0.00  0.00    +0.000 A 
ATOM     10  C   UNL     1       6.518   4.589  17.721  0.00  0.00    +0.000 A 
ATOM     11  C   UNL     1       7.517   4.818  16.769  0.00  0.00    +0.000 A 
ATOM     12  C   UNL     1       7.233   4.712  15.410  0.00  0.00    +0.000 A 
ATOM     13  C   UNL     1       5.945   4.386  14.995  0.00  0.00    +0.000 A 
ATOM     14  C   UNL     1       4.942   4.158  15.940  0.00  0.00    +0.000 A 
ENDBRANCH   2   9
BRANCH   1  15
ATOM     15  C   UNL     1       2.139   5.568  17.882  0.00  0.00    +0.000 C 
BRANCH  15  17
ATOM     16  O   UNL     1       3.755   7.272  17.430  0.00  0.00    +0.000 OA
ATOM     17  C   UNL     1       2.731   6.966  18.040  0.00  0.00    +0.000 C 
BRANCH  17  18
ATOM     18  C   UNL     1       2.128   7.999  18.932  0.00  0.00    +0.000 A 
ATOM     19  C   UNL     1       1.848   7.801  20.288  0.00  0.00    +0.000 A 
ATOM     20  C   UNL     1       1.106   8.759  20.994  0.00  0.00    +0.000 A 
ATOM     21  C   UNL     1       0.655   9.920  20.348  0.00  0.00    +0.000 A 
ATOM     22  C   UNL     1       1.006  10.168  19.019  0.00  0.00    +0.000 A 
ATOM     23  C   UNL     1       1.741   9.208  18.320  0.00  0.00    +0.000 A 
BRANCH  21  24
ATOM     24  N   UNL     1      -0.246  10.848  21.046  0.00  0.00    +0.000 N 
ATOM     25  O   UNL     1      -0.001  11.088  22.235  0.00  0.00    +0.000 OA
ATOM     26  O   UNL     1      -1.199  11.310  20.406  0.00  0.00    +0.000 OA
ENDBRANCH  21  24
ENDBRANCH  17  18
ENDBRANCH  15  17
ENDBRANCH   1  15
TORSDOF 5
ENDMDL
MODEL 3
REMARK VINA RESULT:      -8.2      0.740      1.568
REMARK  Name = 
REMARK  5 active torsions:
REMARK  status: ('A' for Active; 'I' for Inactive)
REMARK    1  A    between atoms: C_2  and  C_3
REMARK    2  A    between atoms: C_2  and  C_18
REMARK    3  A    between atoms: C_3  and  N_4
REMARK    4  A    between atoms: C_5  and  C_6
REMARK    5  A    between atoms: C_21  and  N_22
REMARK                            x       y       z     vdW  Elec       q    Type
REMARK                         _______ _______ _______ _____ _____    ______ ____
ROOT
ATOM      1  N   UNL     1       2.993   4.486  18.596  0.00  0.00    +0.000 N 
ATOM      2  C   UNL     1       4.236   3.805  18.267  0.00  0.00    +0.000 A 
ATOM      3  C   UNL     1       4.368   2.781  19.250  0.00  0.00    +0.000 A 
ATOM      4  N   UNL     1       3.322   2.960  20.119  0.00  0.00    +0.000 N 
ATOM      5  C   UNL     1       2.946   2.350  21.283  0.00  0.00    +0.000 A 
ATOM      6  C   UNL     1       1.811   2.974  21.788  0.00  0.00    +0.000 A 
ATOM      7  S   UNL     1       1.374   4.334  20.780  0.00  0.00    +0.000 S 
ATOM      8  C   UNL     1       2.589   3.940  19.721  0.00  0.00    +0.000 A 
ENDROOT
BRANCH   2   9
ATOM      9  C   UNL     1       5.281   4.102  17.224  0.00  0.00    +0.000 A 
ATOM     10  C   UNL     1       4.976   4.049  15.861  0.00  0.00    +0.000 A 
ATOM     11  C   UNL     1       5.932   4.432  14.914  0.00  0.00    +0.000 A 
ATOM     12  C   UNL     1       7.188   4.875  15.320  0.00  0.00    +0.000 A 
ATOM     13  C   UNL     1       7.499   4.929  16.675  0.00  0.00    +0.000 A 
ATOM     14  C   UNL     1       6.551   4.545  17.627  0.00  0.00    +0.000 A 
ENDBRANCH   2   9
BRANCH   1  15
ATOM     15  C   UNL     1       2.257   5.524  17.838  0.00  0.00    +0.000 C 
BRANCH  15  17
ATOM     16  O   UNL     1       3.960   7.169  17.499  0.00  0.00    +0.000 OA
ATOM     17  C   UNL     1       2.857   6.919  17.985  0.00  0.00    +0.000 C 
BRANCH  17  18
ATOM     18  C   UNL     1       2.168   8.018  18.724  0.00  0.00    +0.000 A 
ATOM     19  C   UNL     1       1.831   7.962  20.081  0.00  0.00    +0.000 A 
ATOM     20  C   UNL     1       1.016   8.959  20.637  0.00  0.00    +0.000 A 
ATOM     21  C   UNL     1       0.549  10.016  19.841  0.00  0.00    +0.000 A 
ATOM     22  C   UNL     1       0.954  10.127  18.510  0.00  0.00    +0.000 A 
ATOM     23  C   UNL     1       1.762   9.130  17.960  0.00  0.00    +0.000 A 
BRANCH  21  24
ATOM     24  N   UNL     1      -0.423  10.974  20.387  0.00  0.00    +0.000 N 
ATOM     25  O   UNL     1      -1.436  11.200  19.713  0.00  0.00    +0.000 OA
ATOM     26  O   UNL     1      -0.155  11.505  21.472  0.00  0.00    +0.000 OA
ENDBRANCH  21  24
ENDBRANCH  17  18
ENDBRANCH  15  17
ENDBRANCH   1  15
TORSDOF 5
ENDMDL
MODEL 4
REMARK VINA RESULT:      -8.1      1.766      2.205
REMARK  Name = 
REMARK  5 active torsions:
REMARK  status: ('A' for Active; 'I' for Inactive)
REMARK    1  A    between atoms: C_2  and  C_3
REMARK    2  A    between atoms: C_2  and  C_18
REMARK    3  A    between atoms: C_3  and  N_4
REMARK    4  A    between atoms: C_5  and  C_6
REMARK    5  A    between atoms: C_21  and  N_22
REMARK                            x       y       z     vdW  Elec       q    Type
REMARK                         _______ _______ _______ _____ _____    ______ ____
ROOT
ATOM      1  N   UNL     1       3.198   5.197  19.175  0.00  0.00    +0.000 N 
ATOM      2  C   UNL     1       4.357   4.958  18.329  0.00  0.00    +0.000 A 
ATOM      3  C   UNL     1       4.068   3.743  17.641  0.00  0.00    +0.000 A 
ATOM      4  N   UNL     1       2.879   3.295  18.157  0.00  0.00    +0.000 N 
ATOM      5  C   UNL     1       2.125   2.172  17.957  0.00  0.00    +0.000 A 
ATOM      6  C   UNL     1       1.016   2.202  18.793  0.00  0.00    +0.000 A 
ATOM      7  S   UNL     1       1.074   3.618  19.818  0.00  0.00    +0.000 S 
ATOM      8  C   UNL     1       2.439   4.134  19.027  0.00  0.00    +0.000 A 
ENDROOT
BRANCH   2   9
ATOM      9  C   UNL     1       5.666   5.693  18.213  0.00  0.00    +0.000 A 
ATOM     10  C   UNL     1       5.823   6.750  17.313  0.00  0.00    +0.000 A 
ATOM     11  C   UNL     1       7.013   7.486  17.298  0.00  0.00    +0.000 A 
ATOM     12  C   UNL     1       8.043   7.179  18.183  0.00  0.00    +0.000 A 
ATOM     13  C   UNL     1       7.894   6.126  19.081  0.00  0.00    +0.000 A 
ATOM     14  C   UNL     1       6.711   5.384  19.099  0.00  0.00    +0.000 A 
ENDBRANCH   2   9
BRANCH   1  15
ATOM     15  C   UNL     1       2.855   6.383  19.993  0.00  0.00    +0.000 C 
BRANCH  15  17
ATOM     16  O   UNL     1       2.465   7.609  17.977  0.00  0.00    +0.000 OA
ATOM     17  C   UNL     1       2.235   7.518  19.183  0.00  0.00    +0.000 C 
BRANCH  17  18
ATOM     18  C   UNL     1       1.359   8.559  19.796  0.00  0.00    +0.000 A 
ATOM     19  C   UNL     1       0.992   9.750  19.162  0.00  0.00    +0.000 A 
ATOM     20  C   UNL     1       0.328  10.751  19.888  0.00  0.00    +0.000 A 
ATOM     21  C   UNL     1       0.021  10.554  21.243  0.00  0.00    +0.000 A 
ATOM     22  C   UNL     1       0.303   9.334  21.859  0.00  0.00    +0.000 A 
ATOM     23  C   UNL     1       0.968   8.343  21.133  0.00  0.00    +0.000 A 
BRANCH  21  24
ATOM     24  N   UNL     1      -0.538  11.657  22.037  0.00  0.00    +0.000 N 
ATOM     25  O   UNL     1      -0.869  12.683  21.429  0.00  0.00    +0.000 OA
ATOM     26  O   UNL     1      -0.620  11.495  23.262  0.00  0.00    +0.000 OA
ENDBRANCH  21  24
ENDBRANCH  17  18
ENDBRANCH  15  17
ENDBRANCH   1  15
TORSDOF 5
ENDMDL
MODEL 5
REMARK VINA RESULT:      -8.1      0.739      1.411
REMARK  Name = 
REMARK  5 active torsions:
REMARK  status: ('A' for Active; 'I' for Inactive)
REMARK    1  A    between atoms: C_2  and  C_3
REMARK    2  A    between atoms: C_2  and  C_18
REMARK    3  A    between atoms: C_3  and  N_4
REMARK    4  A    between atoms: C_5  and  C_6
REMARK    5  A    between atoms: C_21  and  N_22
REMARK                            x       y       z     vdW  Elec       q    Type
REMARK                         _______ _______ _______ _____ _____    ______ ____
ROOT
ATOM      1  N   UNL     1       2.990   4.688  18.855  0.00  0.00    +0.000 N 
ATOM      2  C   UNL     1       4.390   4.295  18.806  0.00  0.00    +0.000 A 
ATOM      3  C   UNL     1       4.503   3.219  19.735  0.00  0.00    +0.000 A 
ATOM      4  N   UNL     1       3.272   3.105  20.328  0.00  0.00    +0.000 N 
ATOM      5  C   UNL     1       2.774   2.318  21.329  0.00  0.00    +0.000 A 
ATOM      6  C   UNL     1       1.449   2.659  21.573  0.00  0.00    +0.000 A 
ATOM      7  S   UNL     1       0.980   4.007  20.562  0.00  0.00    +0.000 S 
ATOM      8  C   UNL     1       2.461   3.963  19.816  0.00  0.00    +0.000 A 
ENDROOT
BRANCH   2   9
ATOM      9  C   UNL     1       5.560   4.890  18.070  0.00  0.00    +0.000 A 
ATOM     10  C   UNL     1       5.676   4.773  16.683  0.00  0.00    +0.000 A 
ATOM     11  C   UNL     1       6.714   5.425  16.009  0.00  0.00    +0.000 A 
ATOM     12  C   UNL     1       7.633   6.200  16.711  0.00  0.00    +0.000 A 
ATOM     13  C   UNL     1       7.524   6.320  18.093  0.00  0.00    +0.000 A 
ATOM     14  C   UNL     1       6.492   5.669  18.774  0.00  0.00    +0.000 A 
ENDBRANCH   2   9
BRANCH   1  15
ATOM     15  C   UNL     1       2.247   5.640  17.996  0.00  0.00    +0.000 C 
BRANCH  15  17
ATOM     16  O   UNL     1       3.647   7.550  17.665  0.00  0.00    +0.000 OA
ATOM     17  C   UNL     1       2.647   7.095  18.220  0.00  0.00    +0.000 C 
BRANCH  17  18
ATOM     18  C   UNL     1       1.882   8.012  19.115  0.00  0.00    +0.000 A 
ATOM     19  C   UNL     1       1.368   9.250  18.717  0.00  0.00    +0.000 A 
ATOM     20  C   UNL     1       0.833  10.124  19.676  0.00  0.00    +0.000 A 
ATOM     21  C   UNL     1       0.802   9.753  21.029  0.00  0.00    +0.000 A 
ATOM     22  C   UNL     1       1.230   8.484  21.422  0.00  0.00    +0.000 A 
ATOM     23  C   UNL     1       1.765   7.621  20.463  0.00  0.00    +0.000 A 
BRANCH  21  24
ATOM     24  N   UNL     1       0.381  10.726  22.048  0.00  0.00    +0.000 N 
ATOM     25  O   UNL     1       0.018  10.278  23.143  0.00  0.00    +0.000 OA
ATOM     26  O   UNL     1       0.399  11.924  21.736  0.00  0.00    +0.000 OA
ENDBRANCH  21  24
ENDBRANCH  17  18
ENDBRANCH  15  17
ENDBRANCH   1  15
TORSDOF 5
ENDMDL
MODEL 6
REMARK VINA RESULT:      -8.0      0.997      1.482
REMARK  Name = 
REMARK  5 active torsions:
REMARK  status: ('A' for Active; 'I' for Inactive)
REMARK    1  A    between atoms: C_2  and  C_3
REMARK    2  A    between atoms: C_2  and  C_18
REMARK    3  A    between atoms: C_3  and  N_4
REMARK    4  A    between atoms: C_5  and  C_6
REMARK    5  A    between atoms: C_21  and  N_22
REMARK                            x       y       z     vdW  Elec       q    Type
REMARK                         _______ _______ _______ _____ _____    ______ ____
ROOT
ATOM      1  N   UNL     1       3.628   4.728  18.799  0.00  0.00    +0.000 N 
ATOM      2  C   UNL     1       4.033   3.918  17.661  0.00  0.00    +0.000 A 
ATOM      3  C   UNL     1       3.238   2.738  17.746  0.00  0.00    +0.000 A 
ATOM      4  N   UNL     1       2.524   2.851  18.911  0.00  0.00    +0.000 N 
ATOM      5  C   UNL     1       1.653   2.027  19.569  0.00  0.00    +0.000 A 
ATOM      6  C   UNL     1       1.254   2.628  20.757  0.00  0.00    +0.000 A 
ATOM      7  S   UNL     1       2.088   4.151  20.970  0.00  0.00    +0.000 S 
ATOM      8  C   UNL     1       2.790   3.975  19.477  0.00  0.00    +0.000 A 
ENDROOT
BRANCH   2   9
ATOM      9  C   UNL     1       5.114   4.126  16.633  0.00  0.00    +0.000 A 
ATOM     10  C   UNL     1       4.822   4.114  15.267  0.00  0.00    +0.000 A 
ATOM     11  C   UNL     1       5.821   4.414  14.335  0.00  0.00    +0.000 A 
ATOM     12  C   UNL     1       7.108   4.736  14.760  0.00  0.00    +0.000 A 
ATOM     13  C   UNL     1       7.405   4.748  16.119  0.00  0.00    +0.000 A 
ATOM     14  C   UNL     1       6.414   4.446  17.055  0.00  0.00    +0.000 A 
ENDBRANCH   2   9
BRANCH   1  15
ATOM     15  C   UNL     1       3.989   6.124  19.141  0.00  0.00    +0.000 C 
BRANCH  15  17
ATOM     16  O   UNL     1       3.540   7.301  17.108  0.00  0.00    +0.000 OA
ATOM     17  C   UNL     1       3.255   7.162  18.297  0.00  0.00    +0.000 C 
BRANCH  17  18
ATOM     18  C   UNL     1       2.197   8.052  18.858  0.00  0.00    +0.000 A 
ATOM     19  C   UNL     1       1.604   9.108  18.156  0.00  0.00    +0.000 A 
ATOM     20  C   UNL     1       0.763  10.006  18.829  0.00  0.00    +0.000 A 
ATOM     21  C   UNL     1       0.505   9.842  20.198  0.00  0.00    +0.000 A 
ATOM     22  C   UNL     1       1.019   8.741  20.885  0.00  0.00    +0.000 A 
ATOM     23  C   UNL     1       1.860   7.852  20.212  0.00  0.00    +0.000 A 
BRANCH  21  24
ATOM     24  N   UNL     1      -0.253  10.866  20.932  0.00  0.00    +0.000 N 
ATOM     25  O   UNL     1       0.040  11.046  22.121  0.00  0.00    +0.000 OA
ATOM     26  O   UNL     1      -1.146  11.464  20.318  0.00  0.00    +0.000 OA
ENDBRANCH  21  24
ENDBRANCH  17  18
ENDBRANCH  15  17
ENDBRANCH   1  15
TORSDOF 5
ENDMDL
MODEL 7
REMARK VINA RESULT:      -8.0      1.797      2.175
REMARK  Name = 
REMARK  5 active torsions:
REMARK  status: ('A' for Active; 'I' for Inactive)
REMARK    1  A    between atoms: C_2  and  C_3
REMARK    2  A    between atoms: C_2  and  C_18
REMARK    3  A    between atoms: C_3  and  N_4
REMARK    4  A    between atoms: C_5  and  C_6
REMARK    5  A    between atoms: C_21  and  N_22
REMARK                            x       y       z     vdW  Elec       q    Type
REMARK                         _______ _______ _______ _____ _____    ______ ____
ROOT
ATOM      1  N   UNL     1       3.111   5.161  19.291  0.00  0.00    +0.000 N 
ATOM      2  C   UNL     1       4.288   4.991  18.452  0.00  0.00    +0.000 A 
ATOM      3  C   UNL     1       4.043   3.798  17.711  0.00  0.00    +0.000 A 
ATOM      4  N   UNL     1       2.862   3.294  18.191  0.00  0.00    +0.000 N 
ATOM      5  C   UNL     1       2.145   2.159  17.934  0.00  0.00    +0.000 A 
ATOM      6  C   UNL     1       1.024   2.121  18.755  0.00  0.00    +0.000 A 
ATOM      7  S   UNL     1       1.027   3.495  19.839  0.00  0.00    +0.000 S 
ATOM      8  C   UNL     1       2.386   4.083  19.089  0.00  0.00    +0.000 A 
ENDROOT
BRANCH   2   9
ATOM      9  C   UNL     1       5.576   5.768  18.385  0.00  0.00    +0.000 A 
ATOM     10  C   UNL     1       6.661   5.437  19.201  0.00  0.00    +0.000 A 
ATOM     11  C   UNL     1       7.882   6.103  19.046  0.00  0.00    +0.000 A 
ATOM     12  C   UNL     1       8.028   7.091  18.076  0.00  0.00    +0.000 A 
ATOM     13  C   UNL     1       6.950   7.425  17.261  0.00  0.00    +0.000 A 
ATOM     14  C   UNL     1       5.728   6.767  17.412  0.00  0.00    +0.000 A 
ENDBRANCH   2   9
BRANCH   1  15
ATOM     15  C   UNL     1       2.723   6.302  20.153  0.00  0.00    +0.000 C 
BRANCH  15  17
ATOM     16  O   UNL     1       2.394   7.599  18.171  0.00  0.00    +0.000 OA
ATOM     17  C   UNL     1       2.153   7.482  19.372  0.00  0.00    +0.000 C 
BRANCH  17  18
ATOM     18  C   UNL     1       1.315   8.539  20.010  0.00  0.00    +0.000 A 
ATOM     19  C   UNL     1       0.948   9.736  19.385  0.00  0.00    +0.000 A 
ATOM     20  C   UNL     1       0.325  10.749  20.129  0.00  0.00    +0.000 A 
ATOM     21  C   UNL     1       0.058  10.560  21.494  0.00  0.00    +0.000 A 
ATOM     22  C   UNL     1       0.339   9.336  22.104  0.00  0.00    +0.000 A 
ATOM     23  C   UNL     1       0.963   8.333  21.359  0.00  0.00    +0.000 A 
BRANCH  21  24
ATOM     24  N   UNL     1      -0.456  11.674  22.303  0.00  0.00    +0.000 N 
ATOM     25  O   UNL     1      -1.034  11.388  23.359  0.00  0.00    +0.000 OA
ATOM     26  O   UNL     1      -0.296  12.821  21.865  0.00  0.00    +0.000 OA
ENDBRANCH  21  24
ENDBRANCH  17  18
ENDBRANCH  15  17
ENDBRANCH   1  15
TORSDOF 5
ENDMDL
MODEL 8
REMARK VINA RESULT:      -8.0      0.792      1.597
REMARK  Name = 
REMARK  5 active torsions:
REMARK  status: ('A' for Active; 'I' for Inactive)
REMARK    1  A    between atoms: C_2  and  C_3
REMARK    2  A    between atoms: C_2  and  C_18
REMARK    3  A    between atoms: C_3  and  N_4
REMARK    4  A    between atoms: C_5  and  C_6
REMARK    5  A    between atoms: C_21  and  N_22
REMARK                            x       y       z     vdW  Elec       q    Type
REMARK                         _______ _______ _______ _____ _____    ______ ____
ROOT
ATOM      1  N   UNL     1       2.916   4.636  18.853  0.00  0.00    +0.000 N 
ATOM      2  C   UNL     1       4.313   4.241  18.756  0.00  0.00    +0.000 A 
ATOM      3  C   UNL     1       4.459   3.169  19.684  0.00  0.00    +0.000 A 
ATOM      4  N   UNL     1       3.249   3.059  20.322  0.00  0.00    +0.000 N 
ATOM      5  C   UNL     1       2.787   2.276  21.343  0.00  0.00    +0.000 A 
ATOM      6  C   UNL     1       1.472   2.620  21.633  0.00  0.00    +0.000 A 
ATOM      7  S   UNL     1       0.968   3.965  20.634  0.00  0.00    +0.000 S 
ATOM      8  C   UNL     1       2.422   3.916  19.835  0.00  0.00    +0.000 A 
ENDROOT
BRANCH   2   9
ATOM      9  C   UNL     1       5.457   4.832  17.976  0.00  0.00    +0.000 A 
ATOM     10  C   UNL     1       5.506   4.736  16.582  0.00  0.00    +0.000 A 
ATOM     11  C   UNL     1       6.522   5.384  15.871  0.00  0.00    +0.000 A 
ATOM     12  C   UNL     1       7.483   6.135  16.542  0.00  0.00    +0.000 A 
ATOM     13  C   UNL     1       7.441   6.233  17.930  0.00  0.00    +0.000 A 
ATOM     14  C   UNL     1       6.432   5.587  18.647  0.00  0.00    +0.000 A 
ENDBRANCH   2   9
BRANCH   1  15
ATOM     15  C   UNL     1       2.143   5.585  18.018  0.00  0.00    +0.000 C 
BRANCH  15  17
ATOM     16  O   UNL     1       3.474   7.481  17.422  0.00  0.00    +0.000 OA
ATOM     17  C   UNL     1       2.602   7.033  18.167  0.00  0.00    +0.000 C 
BRANCH  17  18
ATOM     18  C   UNL     1       2.050   7.949  19.207  0.00  0.00    +0.000 A 
ATOM     19  C   UNL     1       1.905   7.611  20.556  0.00  0.00    +0.000 A 
ATOM     20  C   UNL     1       1.200   8.465  21.417  0.00  0.00    +0.000 A 
ATOM     21  C   UNL     1       0.650   9.661  20.931  0.00  0.00    +0.000 A 
ATOM     22  C   UNL     1       0.866  10.049  19.608  0.00  0.00    +0.000 A 
ATOM     23  C   UNL     1       1.566   9.193  18.754  0.00  0.00    +0.000 A 
BRANCH  21  24
ATOM     24  N   UNL     1      -0.214  10.478  21.796  0.00  0.00    +0.000 N 
ATOM     25  O   UNL     1      -1.078  11.169  21.243  0.00  0.00    +0.000 OA
ATOM     26  O   UNL     1      -0.005  10.437  23.015  0.00  0.00    +0.000 OA
ENDBRANCH  21  24
ENDBRANCH  17  18
ENDBRANCH  15  17
ENDBRANCH   1  15
TORSDOF 5
ENDMDL
MODEL 9
REMARK VINA RESULT:      -7.9      1.886      2.412
REMARK  Name = 
REMARK  5 active torsions:
REMARK  status: ('A' for Active; 'I' for Inactive)
REMARK    1  A    between atoms: C_2  and  C_3
REMARK    2  A    between atoms: C_2  and  C_18
REMARK    3  A    between atoms: C_3  and  N_4
REMARK    4  A    between atoms: C_5  and  C_6
REMARK    5  A    between atoms: C_21  and  N_22
REMARK                            x       y       z     vdW  Elec       q    Type
REMARK                         _______ _______ _______ _____ _____    ______ ____
ROOT
ATOM      1  N   UNL     1       3.043   5.106  19.397  0.00  0.00    +0.000 N 
ATOM      2  C   UNL     1       4.189   4.956  18.513  0.00  0.00    +0.000 A 
ATOM      3  C   UNL     1       3.906   3.793  17.738  0.00  0.00    +0.000 A 
ATOM      4  N   UNL     1       2.737   3.283  18.241  0.00  0.00    +0.000 N 
ATOM      5  C   UNL     1       1.999   2.164  17.969  0.00  0.00    +0.000 A 
ATOM      6  C   UNL     1       0.907   2.107  18.827  0.00  0.00    +0.000 A 
ATOM      7  S   UNL     1       0.963   3.440  19.958  0.00  0.00    +0.000 S 
ATOM      8  C   UNL     1       2.300   4.043  19.183  0.00  0.00    +0.000 A 
ENDROOT
BRANCH   2   9
ATOM      9  C   UNL     1       5.482   5.722  18.428  0.00  0.00    +0.000 A 
ATOM     10  C   UNL     1       6.573   5.389  19.235  0.00  0.00    +0.000 A 
ATOM     11  C   UNL     1       7.797   6.045  19.065  0.00  0.00    +0.000 A 
ATOM     12  C   UNL     1       7.940   7.025  18.087  0.00  0.00    +0.000 A 
ATOM     13  C   UNL     1       6.857   7.363  17.281  0.00  0.00    +0.000 A 
ATOM     14  C   UNL     1       5.632   6.715  17.448  0.00  0.00    +0.000 A 
ENDBRANCH   2   9
BRANCH   1  15
ATOM     15  C   UNL     1       2.698   6.218  20.313  0.00  0.00    +0.000 C 
BRANCH  15  17
ATOM     16  O   UNL     1       2.225   7.531  18.371  0.00  0.00    +0.000 OA
ATOM     17  C   UNL     1       2.127   7.437  19.594  0.00  0.00    +0.000 C 
BRANCH  17  18
ATOM     18  C   UNL     1       1.457   8.557  20.317  0.00  0.00    +0.000 A 
ATOM     19  C   UNL     1       1.301   8.615  21.706  0.00  0.00    +0.000 A 
ATOM     20  C   UNL     1       0.490   9.608  22.276  0.00  0.00    +0.000 A 
ATOM     21  C   UNL     1      -0.153  10.549  21.459  0.00  0.00    +0.000 A 
ATOM     22  C   UNL     1       0.068  10.554  20.080  0.00  0.00    +0.000 A 
ATOM     23  C   UNL     1       0.873   9.560  19.518  0.00  0.00    +0.000 A 
BRANCH  21  24
ATOM     24  N   UNL     1      -1.118  11.493  22.043  0.00  0.00    +0.000 N 
ATOM     25  O   UNL     1      -1.063  11.674  23.266  0.00  0.00    +0.000 OA
ATOM     26  O   UNL     1      -1.931  12.025  21.277  0.00  0.00    +0.000 OA
ENDBRANCH  21  24
ENDBRANCH  17  18
ENDBRANCH  15  17
ENDBRANCH   1  15
TORSDOF 5
ENDMDL
