MODEL 1
REMARK VINA RESULT:      -7.8      0.000      0.000
REMARK  Name = 
REMARK  3 active torsions:
REMARK  status: ('A' for Active; 'I' for Inactive)
REMARK    1  A    between atoms: C_1  and  C_2
REMARK    2  A    between atoms: N_4  and  C_5
REMARK    3  A    between atoms: C_6  and  C_7
REMARK                            x       y       z     vdW  Elec       q    Type
REMARK                         _______ _______ _______ _____ _____    ______ ____
ROOT
ATOM      1  C   UNL     1       2.219   6.913  20.068  0.00  0.00    +0.000 C 
ATOM      2  C   UNL     1       2.629   7.229  18.823  0.00  0.00    +0.000 C 
ATOM      3  C   UNL     1       2.173   8.500  18.176  0.00  0.00    +0.000 C 
ATOM      4  O   UNL     1       2.545   8.821  17.051  0.00  0.00    +0.000 OA
ATOM      5  C   UNL     1       1.239   9.372  18.903  0.00  0.00    +0.000 A 
ATOM      6  C   UNL     1       0.781  10.551  18.297  0.00  0.00    +0.000 A 
ATOM      7  C   UNL     1      -0.114  11.383  18.969  0.00  0.00    +0.000 A 
ATOM      8  C   UNL     1      -0.549  11.045  20.249  0.00  0.00    +0.000 A 
ATOM      9  C   UNL     1      -0.097   9.870  20.853  0.00  0.00    +0.000 A 
ATOM     10  C   UNL     1       0.794   9.028  20.174  0.00  0.00    +0.000 A 
ATOM     11  C   UNL     1       1.237   7.773  20.797  0.00  0.00    +0.000 C 
ATOM     12  O   UNL     1       0.803   7.417  21.890  0.00  0.00    +0.000 OA
ENDROOT
BRANCH   2  13
ATOM     13  C   UNL     1       3.411   6.298  17.977  0.00  0.00    +0.000 A 
ATOM     14  C   UNL     1       4.699   6.662  17.554  0.00  0.00    +0.000 A 
ATOM     15  C   UNL     1       5.472   5.774  16.801  0.00  0.00    +0.000 A 
ATOM     16  C   UNL     1       4.957   4.525  16.461  0.00  0.00    +0.000 A 
ATOM     17 CL   UNL     1       5.908   3.433  15.532  0.00  0.00    +0.000 Cl
ATOM     18  C   UNL     1       3.681   4.152  16.874  0.00  0.00    +0.000 A 
ATOM     19  C   UNL     1       2.917   5.031  17.645  0.00  0.00    +0.000 A 
ENDBRANCH   2  13
BRANCH   1  23
ATOM     20  C   UNL     1       2.362   3.541  21.672  0.00  0.00    +0.000 C 
ATOM     21  C   UNL     1       1.771   4.640  20.832  0.00  0.00    +0.000 C 
ATOM     22  O   UNL     1       0.725   4.488  20.211  0.00  0.00    +0.000 OA
ATOM     23  N   UNL     1       2.573   5.767  20.775  0.00  0.00    +0.000 N 
ATOM     24  H   UNL     1       3.563   5.533  20.686  0.00  0.00    +0.000 HD
ENDBRANCH   1  23
TORSDOF 2
ENDMDL
MODEL 2
REMARK VINA RESULT:      -7.8      0.093      1.011
REMARK  Name = 
REMARK  3 active torsions:
REMARK  status: ('A' for Active; 'I' for Inactive)
REMARK    1  A    between atoms: C_1  and  C_2
REMARK    2  A    between atoms: N_4  and  C_5
REMARK    3  A    between atoms: C_6  and  C_7
REMARK                            x       y       z     vdW  Elec       q    Type
REMARK                         _______ _______ _______ _____ _____    ______ ____
ROOT
ATOM      1  C   UNL     1       2.228   6.896  20.072  0.00  0.00    +0.000 C 
ATOM      2  C   UNL     1       2.686   7.199  18.840  0.00  0.00    +0.000 C 
ATOM      3  C   UNL     1       2.253   8.461  18.161  0.00  0.00    +0.000 C 
ATOM      4  O   UNL     1       2.667   8.771  17.048  0.00  0.00    +0.000 OA
ATOM      5  C   UNL     1       1.288   9.338  18.842  0.00  0.00    +0.000 A 
ATOM      6  C   UNL     1       0.851  10.508  18.205  0.00  0.00    +0.000 A 
ATOM      7  C   UNL     1      -0.073  11.345  18.832  0.00  0.00    +0.000 A 
ATOM      8  C   UNL     1      -0.556  11.020  20.097  0.00  0.00    +0.000 A 
ATOM      9  C   UNL     1      -0.125   9.853  20.732  0.00  0.00    +0.000 A 
ATOM     10  C   UNL     1       0.794   9.007  20.098  0.00  0.00    +0.000 A 
ATOM     11  C   UNL     1       1.216   7.761  20.752  0.00  0.00    +0.000 C 
ATOM     12  O   UNL     1       0.741   7.415  21.832  0.00  0.00    +0.000 OA
ENDROOT
BRANCH   2  13
ATOM     13  C   UNL     1       3.504   6.261  18.037  0.00  0.00    +0.000 A 
ATOM     14  C   UNL     1       2.948   5.044  17.616  0.00  0.00    +0.000 A 
ATOM     15  C   UNL     1       3.686   4.171  16.811  0.00  0.00    +0.000 A 
ATOM     16  C   UNL     1       4.984   4.508  16.434  0.00  0.00    +0.000 A 
ATOM     17 CL   UNL     1       5.894   3.433  15.445  0.00  0.00    +0.000 Cl
ATOM     18  C   UNL     1       5.547   5.713  16.846  0.00  0.00    +0.000 A 
ATOM     19  C   UNL     1       4.801   6.595  17.632  0.00  0.00    +0.000 A 
ENDBRANCH   2  13
BRANCH   1  23
ATOM     20  C   UNL     1       2.321   3.539  21.713  0.00  0.00    +0.000 C 
ATOM     21  C   UNL     1       1.761   4.626  20.836  0.00  0.00    +0.000 C 
ATOM     22  O   UNL     1       0.745   4.461  20.171  0.00  0.00    +0.000 OA
ATOM     23  N   UNL     1       2.558   5.759  20.805  0.00  0.00    +0.000 N 
ATOM     24  H   UNL     1       3.552   5.531  20.763  0.00  0.00    +0.000 HD
ENDBRANCH   1  23
TORSDOF 2
ENDMDL
MODEL 3
REMARK VINA RESULT:      -7.4      2.746      6.116
REMARK  Name = 
REMARK  3 active torsions:
REMARK  status: ('A' for Active; 'I' for Inactive)
REMARK    1  A    between atoms: C_1  and  C_2
REMARK    2  A    between atoms: N_4  and  C_5
REMARK    3  A    between atoms: C_6  and  C_7
REMARK                            x       y       z     vdW  Elec       q    Type
REMARK                         _______ _______ _______ _____ _____    ______ ____
ROOT
ATOM      1  C   UNL     1       2.754   4.915  17.978  0.00  0.00    +0.000 C 
ATOM      2  C   UNL     1       3.071   6.226  17.941  0.00  0.00    +0.000 C 
ATOM      3  C   UNL     1       4.249   6.696  17.145  0.00  0.00    +0.000 C 
ATOM      4  O   UNL     1       4.551   7.884  17.078  0.00  0.00    +0.000 OA
ATOM      5  C   UNL     1       5.076   5.701  16.443  0.00  0.00    +0.000 A 
ATOM      6  C   UNL     1       6.199   6.126  15.718  0.00  0.00    +0.000 A 
ATOM      7  C   UNL     1       7.000   5.194  15.057  0.00  0.00    +0.000 A 
ATOM      8  C   UNL     1       6.678   3.840  15.112  0.00  0.00    +0.000 A 
ATOM      9  C   UNL     1       5.562   3.414  15.836  0.00  0.00    +0.000 A 
ATOM     10  C   UNL     1       4.764   4.350  16.509  0.00  0.00    +0.000 A 
ATOM     11  C   UNL     1       3.613   3.895  17.302  0.00  0.00    +0.000 C 
ATOM     12  O   UNL     1       3.359   2.699  17.429  0.00  0.00    +0.000 OA
ENDROOT
BRANCH   2  13
ATOM     13  C   UNL     1       2.391   7.239  18.779  0.00  0.00    +0.000 A 
ATOM     14  C   UNL     1       1.853   8.387  18.178  0.00  0.00    +0.000 A 
ATOM     15  C   UNL     1       1.160   9.327  18.946  0.00  0.00    +0.000 A 
ATOM     16  C   UNL     1       1.012   9.127  20.317  0.00  0.00    +0.000 A 
ATOM     17 CL   UNL     1       0.161  10.285  21.263  0.00  0.00    +0.000 Cl
ATOM     18  C   UNL     1       1.542   7.992  20.925  0.00  0.00    +0.000 A 
ATOM     19  C   UNL     1       2.215   7.042  20.154  0.00  0.00    +0.000 A 
ENDBRANCH   2  13
BRANCH   1  23
ATOM     20  C   UNL     1       0.540   3.193  20.447  0.00  0.00    +0.000 C 
ATOM     21  C   UNL     1       1.835   3.731  19.903  0.00  0.00    +0.000 C 
ATOM     22  O   UNL     1       2.879   3.675  20.543  0.00  0.00    +0.000 OA
ATOM     23  N   UNL     1       1.687   4.357  18.676  0.00  0.00    +0.000 N 
ATOM     24  H   UNL     1       0.839   4.925  18.632  0.00  0.00    +0.000 HD
ENDBRANCH   1  23
TORSDOF 2
ENDMDL
MODEL 4
REMARK VINA RESULT:      -7.3      2.749      6.132
REMARK  Name = 
REMARK  3 active torsions:
REMARK  status: ('A' for Active; 'I' for Inactive)
REMARK    1  A    between atoms: C_1  and  C_2
REMARK    2  A    between atoms: N_4  and  C_5
REMARK    3  A    between atoms: C_6  and  C_7
REMARK                            x       y       z     vdW  Elec       q    Type
REMARK                         _______ _______ _______ _____ _____    ______ ____
ROOT
ATOM      1  C   UNL     1       2.728   4.892  17.985  0.00  0.00    +0.000 C 
ATOM      2  C   UNL     1       3.027   6.207  17.952  0.00  0.00    +0.000 C 
ATOM      3  C   UNL     1       4.214   6.694  17.181  0.00  0.00    +0.000 C 
ATOM      4  O   UNL     1       4.499   7.886  17.118  0.00  0.00    +0.000 OA
ATOM      5  C   UNL     1       5.071   5.710  16.500  0.00  0.00    +0.000 A 
ATOM      6  C   UNL     1       6.203   6.150  15.799  0.00  0.00    +0.000 A 
ATOM      7  C   UNL     1       7.032   5.230  15.158  0.00  0.00    +0.000 A 
ATOM      8  C   UNL     1       6.730   3.871  15.208  0.00  0.00    +0.000 A 
ATOM      9  C   UNL     1       5.605   3.430  15.909  0.00  0.00    +0.000 A 
ATOM     10  C   UNL     1       4.778   4.354  16.562  0.00  0.00    +0.000 A 
ATOM     11  C   UNL     1       3.618   3.883  17.331  0.00  0.00    +0.000 C 
ATOM     12  O   UNL     1       3.379   2.684  17.455  0.00  0.00    +0.000 OA
ENDROOT
BRANCH   2  13
ATOM     13  C   UNL     1       2.313   7.211  18.773  0.00  0.00    +0.000 A 
ATOM     14  C   UNL     1       2.190   7.013  20.157  0.00  0.00    +0.000 A 
ATOM     15  C   UNL     1       1.567   7.977  20.955  0.00  0.00    +0.000 A 
ATOM     16  C   UNL     1       1.057   9.135  20.371  0.00  0.00    +0.000 A 
ATOM     17 CL   UNL     1       0.288  10.320  21.354  0.00  0.00    +0.000 Cl
ATOM     18  C   UNL     1       1.172   9.342  18.999  0.00  0.00    +0.000 A 
ATOM     19  C   UNL     1       1.814   8.389  18.205  0.00  0.00    +0.000 A 
ENDBRANCH   2  13
BRANCH   1  23
ATOM     20  C   UNL     1       0.488   3.137  20.407  0.00  0.00    +0.000 C 
ATOM     21  C   UNL     1       1.787   3.692  19.890  0.00  0.00    +0.000 C 
ATOM     22  O   UNL     1       2.818   3.649  20.550  0.00  0.00    +0.000 OA
ATOM     23  N   UNL     1       1.655   4.319  18.661  0.00  0.00    +0.000 N 
ATOM     24  H   UNL     1       0.801   4.876  18.601  0.00  0.00    +0.000 HD
ENDBRANCH   1  23
TORSDOF 2
ENDMDL
MODEL 5
REMARK VINA RESULT:      -7.2      1.615      2.359
REMARK  Name = 
REMARK  3 active torsions:
REMARK  status: ('A' for Active; 'I' for Inactive)
REMARK    1  A    between atoms: C_1  and  C_2
REMARK    2  A    between atoms: N_4  and  C_5
REMARK    3  A    between atoms: C_6  and  C_7
REMARK                            x       y       z     vdW  Elec       q    Type
REMARK                         _______ _______ _______ _____ _____    ______ ____
ROOT
ATOM      1  C   UNL     1       3.619   5.510  19.398  0.00  0.00    +0.000 C 
ATOM      2  C   UNL     1       3.883   6.234  18.291  0.00  0.00    +0.000 C 
ATOM      3  C   UNL     1       3.183   7.536  18.054  0.00  0.00    +0.000 C 
ATOM      4  O   UNL     1       3.416   8.223  17.065  0.00  0.00    +0.000 OA
ATOM      5  C   UNL     1       2.173   7.987  19.025  0.00  0.00    +0.000 A 
ATOM      6  C   UNL     1       1.489   9.189  18.800  0.00  0.00    +0.000 A 
ATOM      7  C   UNL     1       0.521   9.625  19.705  0.00  0.00    +0.000 A 
ATOM      8  C   UNL     1       0.239   8.867  20.838  0.00  0.00    +0.000 A 
ATOM      9  C   UNL     1       0.917   7.666  21.063  0.00  0.00    +0.000 A 
ATOM     10  C   UNL     1       1.882   7.223  20.148  0.00  0.00    +0.000 A 
ATOM     11  C   UNL     1       2.565   5.941  20.368  0.00  0.00    +0.000 C 
ATOM     12  O   UNL     1       2.275   5.218  21.318  0.00  0.00    +0.000 OA
ENDROOT
BRANCH   2  13
ATOM     13  C   UNL     1       4.743   5.735  17.194  0.00  0.00    +0.000 A 
ATOM     14  C   UNL     1       4.236   4.785  16.294  0.00  0.00    +0.000 A 
ATOM     15  C   UNL     1       5.015   4.343  15.221  0.00  0.00    +0.000 A 
ATOM     16  C   UNL     1       6.305   4.841  15.050  0.00  0.00    +0.000 A 
ATOM     17 CL   UNL     1       7.265   4.295  13.731  0.00  0.00    +0.000 Cl
ATOM     18  C   UNL     1       6.820   5.783  15.937  0.00  0.00    +0.000 A 
ATOM     19  C   UNL     1       6.033   6.241  16.997  0.00  0.00    +0.000 A 
ENDBRANCH   2  13
BRANCH   1  23
ATOM     20  C   UNL     1       4.440   1.899  19.904  0.00  0.00    +0.000 C 
ATOM     21  C   UNL     1       3.626   3.070  19.424  0.00  0.00    +0.000 C 
ATOM     22  O   UNL     1       2.606   2.921  18.762  0.00  0.00    +0.000 OA
ATOM     23  N   UNL     1       4.204   4.291  19.731  0.00  0.00    +0.000 N 
ATOM     24  H   UNL     1       5.216   4.284  19.599  0.00  0.00    +0.000 HD
ENDBRANCH   1  23
TORSDOF 2
ENDMDL
MODEL 6
REMARK VINA RESULT:      -7.2      1.590      2.089
REMARK  Name = 
REMARK  3 active torsions:
REMARK  status: ('A' for Active; 'I' for Inactive)
REMARK    1  A    between atoms: C_1  and  C_2
REMARK    2  A    between atoms: N_4  and  C_5
REMARK    3  A    between atoms: C_6  and  C_7
REMARK                            x       y       z     vdW  Elec       q    Type
REMARK                         _______ _______ _______ _____ _____    ______ ____
ROOT
ATOM      1  C   UNL     1       3.560   5.572  19.406  0.00  0.00    +0.000 C 
ATOM      2  C   UNL     1       3.800   6.317  18.307  0.00  0.00    +0.000 C 
ATOM      3  C   UNL     1       3.084   7.616  18.103  0.00  0.00    +0.000 C 
ATOM      4  O   UNL     1       3.295   8.322  17.121  0.00  0.00    +0.000 OA
ATOM      5  C   UNL     1       2.086   8.041  19.097  0.00  0.00    +0.000 A 
ATOM      6  C   UNL     1       1.388   9.241  18.902  0.00  0.00    +0.000 A 
ATOM      7  C   UNL     1       0.430   9.653  19.830  0.00  0.00    +0.000 A 
ATOM      8  C   UNL     1       0.173   8.873  20.955  0.00  0.00    +0.000 A 
ATOM      9  C   UNL     1       0.865   7.675  21.149  0.00  0.00    +0.000 A 
ATOM     10  C   UNL     1       1.820   7.256  20.211  0.00  0.00    +0.000 A 
ATOM     11  C   UNL     1       2.518   5.977  20.399  0.00  0.00    +0.000 C 
ATOM     12  O   UNL     1       2.249   5.236  21.341  0.00  0.00    +0.000 OA
ENDROOT
BRANCH   2  13
ATOM     13  C   UNL     1       4.647   5.844  17.188  0.00  0.00    +0.000 A 
ATOM     14  C   UNL     1       5.941   6.363  17.032  0.00  0.00    +0.000 A 
ATOM     15  C   UNL     1       6.774   5.889  16.015  0.00  0.00    +0.000 A 
ATOM     16  C   UNL     1       6.312   4.903  15.145  0.00  0.00    +0.000 A 
ATOM     17 CL   UNL     1       7.337   4.321  13.891  0.00  0.00    +0.000 Cl
ATOM     18  C   UNL     1       5.030   4.380  15.290  0.00  0.00    +0.000 A 
ATOM     19  C   UNL     1       4.206   4.838  16.320  0.00  0.00    +0.000 A 
ENDBRANCH   2  13
BRANCH   1  23
ATOM     20  C   UNL     1       4.414   1.961  19.853  0.00  0.00    +0.000 C 
ATOM     21  C   UNL     1       3.580   3.132  19.410  0.00  0.00    +0.000 C 
ATOM     22  O   UNL     1       2.539   2.984  18.779  0.00  0.00    +0.000 OA
ATOM     23  N   UNL     1       4.161   4.354  19.709  0.00  0.00    +0.000 N 
ATOM     24  H   UNL     1       5.169   4.353  19.544  0.00  0.00    +0.000 HD
ENDBRANCH   1  23
TORSDOF 2
ENDMDL
MODEL 7
REMARK VINA RESULT:      -7.2      3.297      6.290
REMARK  Name = 
REMARK  3 active torsions:
REMARK  status: ('A' for Active; 'I' for Inactive)
REMARK    1  A    between atoms: C_1  and  C_2
REMARK    2  A    between atoms: N_4  and  C_5
REMARK    3  A    between atoms: C_6  and  C_7
REMARK                            x       y       z     vdW  Elec       q    Type
REMARK                         _______ _______ _______ _____ _____    ______ ____
ROOT
ATOM      1  C   UNL     1       0.975   8.557  20.197  0.00  0.00    +0.000 C 
ATOM      2  C   UNL     1       1.258   9.395  19.179  0.00  0.00    +0.000 C 
ATOM      3  C   UNL     1       2.194   8.973  18.090  0.00  0.00    +0.000 C 
ATOM      4  O   UNL     1       2.456   9.709  17.142  0.00  0.00    +0.000 OA
ATOM      5  C   UNL     1       2.831   7.649  18.173  0.00  0.00    +0.000 A 
ATOM      6  C   UNL     1       3.732   7.254  17.174  0.00  0.00    +0.000 A 
ATOM      7  C   UNL     1       4.353   6.006  17.245  0.00  0.00    +0.000 A 
ATOM      8  C   UNL     1       4.071   5.150  18.306  0.00  0.00    +0.000 A 
ATOM      9  C   UNL     1       3.176   5.543  19.304  0.00  0.00    +0.000 A 
ATOM     10  C   UNL     1       2.561   6.801  19.239  0.00  0.00    +0.000 A 
ATOM     11  C   UNL     1       1.650   7.227  20.310  0.00  0.00    +0.000 C 
ATOM     12  O   UNL     1       1.450   6.520  21.296  0.00  0.00    +0.000 OA
ENDROOT
BRANCH   2  13
ATOM     13  C   UNL     1       0.797  10.802  19.149  0.00  0.00    +0.000 A 
ATOM     14  C   UNL     1       1.603  11.807  19.704  0.00  0.00    +0.000 A 
ATOM     15  C   UNL     1       1.210  13.147  19.636  0.00  0.00    +0.000 A 
ATOM     16  C   UNL     1       0.005  13.483  19.022  0.00  0.00    +0.000 A 
ATOM     17 CL   UNL     1      -0.482  15.132  18.941  0.00  0.00    +0.000 Cl
ATOM     18  C   UNL     1      -0.805  12.495  18.469  0.00  0.00    +0.000 A 
ATOM     19  C   UNL     1      -0.400  11.159  18.517  0.00  0.00    +0.000 A 
ENDBRANCH   2  13
BRANCH   1  23
ATOM     20  C   UNL     1      -0.541   9.550  23.465  0.00  0.00    +0.000 C 
ATOM     21  C   UNL     1       0.565   9.361  22.464  0.00  0.00    +0.000 C 
ATOM     22  O   UNL     1       1.713   9.726  22.692  0.00  0.00    +0.000 OA
ATOM     23  N   UNL     1       0.123   8.831  21.263  0.00  0.00    +0.000 N 
ATOM     24  H   UNL     1      -0.769   9.231  20.969  0.00  0.00    +0.000 HD
ENDBRANCH   1  23
TORSDOF 2
ENDMDL
MODEL 8
REMARK VINA RESULT:      -7.1      3.313      6.375
REMARK  Name = 
REMARK  3 active torsions:
REMARK  status: ('A' for Active; 'I' for Inactive)
REMARK    1  A    between atoms: C_1  and  C_2
REMARK    2  A    between atoms: N_4  and  C_5
REMARK    3  A    between atoms: C_6  and  C_7
REMARK                            x       y       z     vdW  Elec       q    Type
REMARK                         _______ _______ _______ _____ _____    ______ ____
ROOT
ATOM      1  C   UNL     1       0.984   8.561  20.193  0.00  0.00    +0.000 C 
ATOM      2  C   UNL     1       1.276   9.401  19.180  0.00  0.00    +0.000 C 
ATOM      3  C   UNL     1       2.208   8.975  18.089  0.00  0.00    +0.000 C 
ATOM      4  O   UNL     1       2.478   9.712  17.145  0.00  0.00    +0.000 OA
ATOM      5  C   UNL     1       2.833   7.645  18.166  0.00  0.00    +0.000 A 
ATOM      6  C   UNL     1       3.730   7.245  17.166  0.00  0.00    +0.000 A 
ATOM      7  C   UNL     1       4.339   5.992  17.232  0.00  0.00    +0.000 A 
ATOM      8  C   UNL     1       4.048   5.133  18.289  0.00  0.00    +0.000 A 
ATOM      9  C   UNL     1       3.157   5.531  19.288  0.00  0.00    +0.000 A 
ATOM     10  C   UNL     1       2.554   6.794  19.228  0.00  0.00    +0.000 A 
ATOM     11  C   UNL     1       1.646   7.224  20.301  0.00  0.00    +0.000 C 
ATOM     12  O   UNL     1       1.439   6.515  21.283  0.00  0.00    +0.000 OA
ENDROOT
BRANCH   2  13
ATOM     13  C   UNL     1       0.828  10.812  19.155  0.00  0.00    +0.000 A 
ATOM     14  C   UNL     1      -0.403  11.138  18.567  0.00  0.00    +0.000 A 
ATOM     15  C   UNL     1      -0.867  12.457  18.583  0.00  0.00    +0.000 A 
ATOM     16  C   UNL     1      -0.096  13.454  19.178  0.00  0.00    +0.000 A 
ATOM     17 CL   UNL     1      -0.665  15.078  19.195  0.00  0.00    +0.000 Cl
ATOM     18  C   UNL     1       1.128  13.143  19.764  0.00  0.00    +0.000 A 
ATOM     19  C   UNL     1       1.580  11.822  19.767  0.00  0.00    +0.000 A 
ENDBRANCH   2  13
BRANCH   1  23
ATOM     20  C   UNL     1      -0.525   9.557  23.464  0.00  0.00    +0.000 C 
ATOM     21  C   UNL     1       0.580   9.363  22.462  0.00  0.00    +0.000 C 
ATOM     22  O   UNL     1       1.731   9.719  22.691  0.00  0.00    +0.000 OA
ATOM     23  N   UNL     1       0.134   8.838  21.260  0.00  0.00    +0.000 N 
ATOM     24  H   UNL     1      -0.755   9.246  20.967  0.00  0.00    +0.000 HD
ENDBRANCH   1  23
TORSDOF 2
ENDMDL
MODEL 9
REMARK VINA RESULT:      -7.1      2.049      3.309
REMARK  Name = 
REMARK  3 active torsions:
REMARK  status: ('A' for Active; 'I' for Inactive)
REMARK    1  A    between atoms: C_1  and  C_2
REMARK    2  A    between atoms: N_4  and  C_5
REMARK    3  A    between atoms: C_6  and  C_7
REMARK                            x       y       z     vdW  Elec       q    Type
REMARK                         _______ _______ _______ _____ _____    ______ ____
ROOT
ATOM      1  C   UNL     1       3.912   4.507  18.722  0.00  0.00    +0.000 C 
ATOM      2  C   UNL     1       4.247   5.388  17.758  0.00  0.00    +0.000 C 
ATOM      3  C   UNL     1       3.702   6.783  17.786  0.00  0.00    +0.000 C 
ATOM      4  O   UNL     1       4.003   7.611  16.932  0.00  0.00    +0.000 OA
ATOM      5  C   UNL     1       2.763   7.157  18.855  0.00  0.00    +0.000 A 
ATOM      6  C   UNL     1       2.223   8.451  18.877  0.00  0.00    +0.000 A 
ATOM      7  C   UNL     1       1.322   8.818  19.877  0.00  0.00    +0.000 A 
ATOM      8  C   UNL     1       0.966   7.899  20.861  0.00  0.00    +0.000 A 
ATOM      9  C   UNL     1       1.501   6.609  20.841  0.00  0.00    +0.000 A 
ATOM     10  C   UNL     1       2.397   6.237  19.829  0.00  0.00    +0.000 A 
ATOM     11  C   UNL     1       2.927   4.867  19.788  0.00  0.00    +0.000 C 
ATOM     12  O   UNL     1       2.564   4.018  20.599  0.00  0.00    +0.000 OA
ENDROOT
BRANCH   2  13
ATOM     13  C   UNL     1       5.030   5.007  16.560  0.00  0.00    +0.000 A 
ATOM     14  C   UNL     1       4.379   4.416  15.467  0.00  0.00    +0.000 A 
ATOM     15  C   UNL     1       5.092   4.100  14.307  0.00  0.00    +0.000 A 
ATOM     16  C   UNL     1       6.459   4.364  14.242  0.00  0.00    +0.000 A 
ATOM     17 CL   UNL     1       7.338   3.972  12.816  0.00  0.00    +0.000 Cl
ATOM     18  C   UNL     1       7.116   4.949  15.321  0.00  0.00    +0.000 A 
ATOM     19  C   UNL     1       6.399   5.285  16.471  0.00  0.00    +0.000 A 
ENDBRANCH   2  13
BRANCH   1  23
ATOM     20  C   UNL     1       4.310   0.796  18.527  0.00  0.00    +0.000 C 
ATOM     21  C   UNL     1       3.636   2.120  18.295  0.00  0.00    +0.000 C 
ATOM     22  O   UNL     1       2.600   2.214  17.645  0.00  0.00    +0.000 OA
ATOM     23  N   UNL     1       4.353   3.189  18.807  0.00  0.00    +0.000 N 
ATOM     24  H   UNL     1       5.357   3.093  18.647  0.00  0.00    +0.000 HD
ENDBRANCH   1  23
TORSDOF 2
ENDMDL
