MODEL 1
REMARK VINA RESULT:      -7.7      0.000      0.000
REMARK  Name = 
REMARK  6 active torsions:
REMARK  status: ('A' for Active; 'I' for Inactive)
REMARK    1  A    between atoms: C_1  and  C_2
REMARK    2  A    between atoms: C_3  and  N_4
REMARK    3  A    between atoms: N_4  and  C_5
REMARK    4  A    between atoms: C_10  and  C_11
REMARK    5  A    between atoms: C_11  and  O_13
REMARK    6  A    between atoms: C_17  and  C_18
REMARK                            x       y       z     vdW  Elec       q    Type
REMARK                         _______ _______ _______ _____ _____    ______ ____
ROOT
ATOM      1  N   UNL     1       5.969   4.153  18.486  0.00  0.00    +0.000 N 
ATOM      2  H   UNL     1       6.329   3.227  18.725  0.00  0.00    +0.000 HD
ENDROOT
BRANCH   1   5
ATOM      3  C   UNL     1       4.425   2.113  20.206  0.00  0.00    +0.000 C 
ATOM      4  C   UNL     1       3.886   3.427  19.717  0.00  0.00    +0.000 A 
ATOM      5  C   UNL     1       4.711   4.426  19.129  0.00  0.00    +0.000 A 
ATOM      6  C   UNL     1       4.239   5.744  19.236  0.00  0.00    +0.000 A 
ATOM      7  C   UNL     1       2.937   6.043  19.631  0.00  0.00    +0.000 A 
ATOM      8  C   UNL     1       2.055   5.018  19.924  0.00  0.00    +0.000 A 
ATOM      9  C   UNL     1       2.504   3.692  19.955  0.00  0.00    +0.000 A 
BRANCH   9  10
ATOM     10  C   UNL     1       1.432   2.640  20.205  0.00  0.00    +0.000 C 
ATOM     11  F   UNL     1       1.505   1.526  19.428  0.00  0.00    +0.000 F 
ATOM     12  F   UNL     1       1.410   2.197  21.491  0.00  0.00    +0.000 F 
ATOM     13  F   UNL     1       0.182   3.142  19.971  0.00  0.00    +0.000 F 
ENDBRANCH   9  10
ENDBRANCH   1   5
BRANCH   1  14
ATOM     14  C   UNL     1       6.275   4.399  17.091  0.00  0.00    +0.000 A 
ATOM     15  N   UNL     1       5.873   3.493  16.164  0.00  0.00    +0.000 NA
ATOM     16  C   UNL     1       6.036   3.716  14.837  0.00  0.00    +0.000 A 
ATOM     17  C   UNL     1       6.629   4.868  14.321  0.00  0.00    +0.000 A 
ATOM     18  C   UNL     1       7.088   5.782  15.240  0.00  0.00    +0.000 A 
ATOM     19  C   UNL     1       6.899   5.578  16.632  0.00  0.00    +0.000 A 
BRANCH  19  20
ATOM     20  C   UNL     1       7.500   6.563  17.554  0.00  0.00    +0.000 C 
ATOM     21  O   UNL     1       7.895   6.259  18.664  0.00  0.00    +0.000 OA
BRANCH  20  22
ATOM     22  O   UNL     1       7.612   7.819  17.068  0.00  0.00    +0.000 OA
ATOM     23  H   UNL     1       7.830   8.517  17.714  0.00  0.00    +0.000 HD
ENDBRANCH  20  22
ENDBRANCH  19  20
ENDBRANCH   1  14
TORSDOF 5
ENDMDL
MODEL 2
REMARK VINA RESULT:      -7.7      1.877      3.108
REMARK  Name = 
REMARK  6 active torsions:
REMARK  status: ('A' for Active; 'I' for Inactive)
REMARK    1  A    between atoms: C_1  and  C_2
REMARK    2  A    between atoms: C_3  and  N_4
REMARK    3  A    between atoms: N_4  and  C_5
REMARK    4  A    between atoms: C_10  and  C_11
REMARK    5  A    between atoms: C_11  and  O_13
REMARK    6  A    between atoms: C_17  and  C_18
REMARK                            x       y       z     vdW  Elec       q    Type
REMARK                         _______ _______ _______ _____ _____    ______ ____
ROOT
ATOM      1  N   UNL     1       5.513   3.571  17.689  0.00  0.00    +0.000 N 
ATOM      2  H   UNL     1       5.722   3.244  16.744  0.00  0.00    +0.000 HD
ENDROOT
BRANCH   1   5
ATOM      3  C   UNL     1       3.917   5.473  19.515  0.00  0.00    +0.000 C 
ATOM      4  C   UNL     1       3.459   4.120  19.051  0.00  0.00    +0.000 A 
ATOM      5  C   UNL     1       4.126   3.389  18.030  0.00  0.00    +0.000 A 
ATOM      6  C   UNL     1       3.335   2.471  17.323  0.00  0.00    +0.000 A 
ATOM      7  C   UNL     1       2.068   2.086  17.755  0.00  0.00    +0.000 A 
ATOM      8  C   UNL     1       1.554   2.608  18.929  0.00  0.00    +0.000 A 
ATOM      9  C   UNL     1       2.244   3.619  19.609  0.00  0.00    +0.000 A 
BRANCH   9  10
ATOM     10  C   UNL     1       1.631   4.059  20.932  0.00  0.00    +0.000 C 
ATOM     11  F   UNL     1       2.507   4.249  21.955  0.00  0.00    +0.000 F 
ATOM     12  F   UNL     1       0.919   5.213  20.831  0.00  0.00    +0.000 F 
ATOM     13  F   UNL     1       0.749   3.127  21.403  0.00  0.00    +0.000 F 
ENDBRANCH   9  10
ENDBRANCH   1   5
BRANCH   1  14
ATOM     14  C   UNL     1       6.289   4.773  17.923  0.00  0.00    +0.000 A 
ATOM     15  N   UNL     1       6.989   4.883  19.081  0.00  0.00    +0.000 NA
ATOM     16  C   UNL     1       7.816   5.931  19.313  0.00  0.00    +0.000 A 
ATOM     17  C   UNL     1       8.005   6.972  18.405  0.00  0.00    +0.000 A 
ATOM     18  C   UNL     1       7.273   6.910  17.244  0.00  0.00    +0.000 A 
ATOM     19  C   UNL     1       6.426   5.804  16.971  0.00  0.00    +0.000 A 
BRANCH  19  20
ATOM     20  C   UNL     1       5.607   5.858  15.743  0.00  0.00    +0.000 C 
ATOM     21  O   UNL     1       5.019   6.866  15.397  0.00  0.00    +0.000 OA
BRANCH  20  22
ATOM     22  O   UNL     1       5.582   4.722  15.012  0.00  0.00    +0.000 OA
ATOM     23  H   UNL     1       6.444   4.373  14.719  0.00  0.00    +0.000 HD
ENDBRANCH  20  22
ENDBRANCH  19  20
ENDBRANCH   1  14
TORSDOF 5
ENDMDL
MODEL 3
REMARK VINA RESULT:      -7.5      1.894      3.146
REMARK  Name = 
REMARK  6 active torsions:
REMARK  status: ('A' for Active; 'I' for Inactive)
REMARK    1  A    between atoms: C_1  and  C_2
REMARK    2  A    between atoms: C_3  and  N_4
REMARK    3  A    between atoms: N_4  and  C_5
REMARK    4  A    between atoms: C_10  and  C_11
REMARK    5  A    between atoms: C_11  and  O_13
REMARK    6  A    between atoms: C_17  and  C_18
REMARK                            x       y       z     vdW  Elec       q    Type
REMARK                         _______ _______ _______ _____ _____    ______ ____
ROOT
ATOM      1  N   UNL     1       5.133   3.601  17.271  0.00  0.00    +0.000 N 
ATOM      2  H   UNL     1       4.994   3.688  16.263  0.00  0.00    +0.000 HD
ENDROOT
BRANCH   1   5
ATOM      3  C   UNL     1       3.101   5.522  18.568  0.00  0.00    +0.000 C 
ATOM      4  C   UNL     1       3.129   4.031  18.747  0.00  0.00    +0.000 A 
ATOM      5  C   UNL     1       3.936   3.175  17.947  0.00  0.00    +0.000 A 
ATOM      6  C   UNL     1       3.479   1.854  17.819  0.00  0.00    +0.000 A 
ATOM      7  C   UNL     1       2.473   1.328  18.626  0.00  0.00    +0.000 A 
ATOM      8  C   UNL     1       1.897   2.115  19.607  0.00  0.00    +0.000 A 
ATOM      9  C   UNL     1       2.224   3.473  19.700  0.00  0.00    +0.000 A 
BRANCH   9  10
ATOM     10  C   UNL     1       1.597   4.224  20.867  0.00  0.00    +0.000 C 
ATOM     11  F   UNL     1       0.622   5.115  20.541  0.00  0.00    +0.000 F 
ATOM     12  F   UNL     1       1.050   3.397  21.800  0.00  0.00    +0.000 F 
ATOM     13  F   UNL     1       2.529   4.963  21.539  0.00  0.00    +0.000 F 
ENDBRANCH   9  10
ENDBRANCH   1   5
BRANCH   1  14
ATOM     14  C   UNL     1       6.002   4.682  17.693  0.00  0.00    +0.000 A 
ATOM     15  N   UNL     1       6.492   4.670  18.959  0.00  0.00    +0.000 NA
ATOM     16  C   UNL     1       7.390   5.593  19.380  0.00  0.00    +0.000 A 
ATOM     17  C   UNL     1       7.869   6.621  18.569  0.00  0.00    +0.000 A 
ATOM     18  C   UNL     1       7.354   6.685  17.296  0.00  0.00    +0.000 A 
ATOM     19  C   UNL     1       6.435   5.709  16.829  0.00  0.00    +0.000 A 
BRANCH  19  20
ATOM     20  C   UNL     1       5.862   5.901  15.481  0.00  0.00    +0.000 C 
ATOM     21  O   UNL     1       6.073   5.124  14.568  0.00  0.00    +0.000 OA
BRANCH  20  22
ATOM     22  O   UNL     1       5.061   6.979  15.340  0.00  0.00    +0.000 OA
ATOM     23  H   UNL     1       4.180   6.925  15.756  0.00  0.00    +0.000 HD
ENDBRANCH  20  22
ENDBRANCH  19  20
ENDBRANCH   1  14
TORSDOF 5
ENDMDL
MODEL 4
REMARK VINA RESULT:      -7.5      1.289      1.545
REMARK  Name = 
REMARK  6 active torsions:
REMARK  status: ('A' for Active; 'I' for Inactive)
REMARK    1  A    between atoms: C_1  and  C_2
REMARK    2  A    between atoms: C_3  and  N_4
REMARK    3  A    between atoms: N_4  and  C_5
REMARK    4  A    between atoms: C_10  and  C_11
REMARK    5  A    between atoms: C_11  and  O_13
REMARK    6  A    between atoms: C_17  and  C_18
REMARK                            x       y       z     vdW  Elec       q    Type
REMARK                         _______ _______ _______ _____ _____    ______ ____
ROOT
ATOM      1  N   UNL     1       5.141   3.271  16.978  0.00  0.00    +0.000 N 
ATOM      2  H   UNL     1       4.744   2.365  16.725  0.00  0.00    +0.000 HD
ENDROOT
BRANCH   1   5
ATOM      3  C   UNL     1       4.369   2.505  19.862  0.00  0.00    +0.000 C 
ATOM      4  C   UNL     1       3.708   3.571  19.036  0.00  0.00    +0.000 A 
ATOM      5  C   UNL     1       4.251   4.040  17.807  0.00  0.00    +0.000 A 
ATOM      6  C   UNL     1       3.889   5.346  17.442  0.00  0.00    +0.000 A 
ATOM      7  C   UNL     1       2.861   6.042  18.072  0.00  0.00    +0.000 A 
ATOM      8  C   UNL     1       2.148   5.439  19.093  0.00  0.00    +0.000 A 
ATOM      9  C   UNL     1       2.542   4.188  19.583  0.00  0.00    +0.000 A 
BRANCH   9  10
ATOM     10  C   UNL     1       1.637   3.581  20.645  0.00  0.00    +0.000 C 
ATOM     11  F   UNL     1       1.349   2.261  20.493  0.00  0.00    +0.000 F 
ATOM     12  F   UNL     1       2.134   3.711  21.906  0.00  0.00    +0.000 F 
ATOM     13  F   UNL     1       0.419   4.200  20.670  0.00  0.00    +0.000 F 
ENDBRANCH   9  10
ENDBRANCH   1   5
BRANCH   1  14
ATOM     14  C   UNL     1       5.867   3.772  15.828  0.00  0.00    +0.000 A 
ATOM     15  N   UNL     1       5.443   3.425  14.586  0.00  0.00    +0.000 NA
ATOM     16  C   UNL     1       6.013   3.945  13.471  0.00  0.00    +0.000 A 
ATOM     17  C   UNL     1       7.071   4.851  13.504  0.00  0.00    +0.000 A 
ATOM     18  C   UNL     1       7.552   5.184  14.748  0.00  0.00    +0.000 A 
ATOM     19  C   UNL     1       6.947   4.674  15.927  0.00  0.00    +0.000 A 
BRANCH  19  20
ATOM     20  C   UNL     1       7.579   5.010  17.218  0.00  0.00    +0.000 C 
ATOM     21  O   UNL     1       7.453   6.102  17.740  0.00  0.00    +0.000 OA
BRANCH  20  22
ATOM     22  O   UNL     1       8.281   4.011  17.798  0.00  0.00    +0.000 OA
ATOM     23  H   UNL     1       8.759   4.234  18.618  0.00  0.00    +0.000 HD
ENDBRANCH  20  22
ENDBRANCH  19  20
ENDBRANCH   1  14
TORSDOF 5
ENDMDL
MODEL 5
REMARK VINA RESULT:      -7.4      1.201      1.940
REMARK  Name = 
REMARK  6 active torsions:
REMARK  status: ('A' for Active; 'I' for Inactive)
REMARK    1  A    between atoms: C_1  and  C_2
REMARK    2  A    between atoms: C_3  and  N_4
REMARK    3  A    between atoms: N_4  and  C_5
REMARK    4  A    between atoms: C_10  and  C_11
REMARK    5  A    between atoms: C_11  and  O_13
REMARK    6  A    between atoms: C_17  and  C_18
REMARK                            x       y       z     vdW  Elec       q    Type
REMARK                         _______ _______ _______ _____ _____    ______ ____
ROOT
ATOM      1  N   UNL     1       4.524   5.237  17.401  0.00  0.00    +0.000 N 
ATOM      2  H   UNL     1       4.836   6.080  17.886  0.00  0.00    +0.000 HD
ENDROOT
BRANCH   1   5
ATOM      3  C   UNL     1       1.577   4.369  17.654  0.00  0.00    +0.000 C 
ATOM      4  C   UNL     1       2.680   3.999  18.604  0.00  0.00    +0.000 A 
ATOM      5  C   UNL     1       4.054   4.230  18.316  0.00  0.00    +0.000 A 
ATOM      6  C   UNL     1       4.963   3.380  18.965  0.00  0.00    +0.000 A 
ATOM      7  C   UNL     1       4.591   2.555  20.024  0.00  0.00    +0.000 A 
ATOM      8  C   UNL     1       3.284   2.566  20.478  0.00  0.00    +0.000 A 
ATOM      9  C   UNL     1       2.308   3.299  19.792  0.00  0.00    +0.000 A 
BRANCH   9  10
ATOM     10  C   UNL     1       0.924   3.309  20.426  0.00  0.00    +0.000 C 
ATOM     11  F   UNL     1       0.829   2.716  21.646  0.00  0.00    +0.000 F 
ATOM     12  F   UNL     1       0.417   4.563  20.580  0.00  0.00    +0.000 F 
ATOM     13  F   UNL     1       0.018   2.644  19.647  0.00  0.00    +0.000 F 
ENDBRANCH   9  10
ENDBRANCH   1   5
BRANCH   1  14
ATOM     14  C   UNL     1       5.421   5.011  16.285  0.00  0.00    +0.000 A 
ATOM     15  N   UNL     1       5.000   4.230  15.257  0.00  0.00    +0.000 NA
ATOM     16  C   UNL     1       5.748   4.067  14.139  0.00  0.00    +0.000 A 
ATOM     17  C   UNL     1       6.994   4.664  13.957  0.00  0.00    +0.000 A 
ATOM     18  C   UNL     1       7.466   5.423  15.002  0.00  0.00    +0.000 A 
ATOM     19  C   UNL     1       6.682   5.630  16.167  0.00  0.00    +0.000 A 
BRANCH  19  20
ATOM     20  C   UNL     1       7.298   6.383  17.279  0.00  0.00    +0.000 C 
ATOM     21  O   UNL     1       7.449   5.901  18.386  0.00  0.00    +0.000 OA
BRANCH  20  22
ATOM     22  O   UNL     1       7.712   7.632  16.974  0.00  0.00    +0.000 OA
ATOM     23  H   UNL     1       7.823   7.835  16.026  0.00  0.00    +0.000 HD
ENDBRANCH  20  22
ENDBRANCH  19  20
ENDBRANCH   1  14
TORSDOF 5
ENDMDL
MODEL 6
REMARK VINA RESULT:      -7.4      1.094      2.082
REMARK  Name = 
REMARK  6 active torsions:
REMARK  status: ('A' for Active; 'I' for Inactive)
REMARK    1  A    between atoms: C_1  and  C_2
REMARK    2  A    between atoms: C_3  and  N_4
REMARK    3  A    between atoms: N_4  and  C_5
REMARK    4  A    between atoms: C_10  and  C_11
REMARK    5  A    between atoms: C_11  and  O_13
REMARK    6  A    between atoms: C_17  and  C_18
REMARK                            x       y       z     vdW  Elec       q    Type
REMARK                         _______ _______ _______ _____ _____    ______ ____
ROOT
ATOM      1  N   UNL     1       4.784   5.228  17.802  0.00  0.00    +0.000 N 
ATOM      2  H   UNL     1       5.279   5.923  18.362  0.00  0.00    +0.000 HD
ENDROOT
BRANCH   1   5
ATOM      3  C   UNL     1       1.795   4.475  17.748  0.00  0.00    +0.000 C 
ATOM      4  C   UNL     1       2.794   4.011  18.769  0.00  0.00    +0.000 A 
ATOM      5  C   UNL     1       4.196   4.197  18.616  0.00  0.00    +0.000 A 
ATOM      6  C   UNL     1       5.010   3.277  19.295  0.00  0.00    +0.000 A 
ATOM      7  C   UNL     1       4.513   2.416  20.271  0.00  0.00    +0.000 A 
ATOM      8  C   UNL     1       3.172   2.460  20.608  0.00  0.00    +0.000 A 
ATOM      9  C   UNL     1       2.290   3.268  19.880  0.00  0.00    +0.000 A 
BRANCH   9  10
ATOM     10  C   UNL     1       0.857   3.305  20.391  0.00  0.00    +0.000 C 
ATOM     11  F   UNL     1       0.321   4.544  20.562  0.00  0.00    +0.000 F 
ATOM     12  F   UNL     1      -0.012   2.631  19.589  0.00  0.00    +0.000 F 
ATOM     13  F   UNL     1       0.753   2.712  21.618  0.00  0.00    +0.000 F 
ENDBRANCH   9  10
ENDBRANCH   1   5
BRANCH   1  14
ATOM     14  C   UNL     1       5.546   5.013  16.588  0.00  0.00    +0.000 A 
ATOM     15  N   UNL     1       5.066   4.147  15.659  0.00  0.00    +0.000 NA
ATOM     16  C   UNL     1       5.676   3.982  14.460  0.00  0.00    +0.000 A 
ATOM     17  C   UNL     1       6.834   4.665  14.090  0.00  0.00    +0.000 A 
ATOM     18  C   UNL     1       7.369   5.514  15.030  0.00  0.00    +0.000 A 
ATOM     19  C   UNL     1       6.726   5.722  16.279  0.00  0.00    +0.000 A 
BRANCH  19  20
ATOM     20  C   UNL     1       7.412   6.580  17.265  0.00  0.00    +0.000 C 
ATOM     21  O   UNL     1       7.712   7.735  17.026  0.00  0.00    +0.000 OA
BRANCH  20  22
ATOM     22  O   UNL     1       7.656   6.005  18.463  0.00  0.00    +0.000 OA
ATOM     23  H   UNL     1       8.577   6.040  18.784  0.00  0.00    +0.000 HD
ENDBRANCH  20  22
ENDBRANCH  19  20
ENDBRANCH   1  14
TORSDOF 5
ENDMDL
MODEL 7
REMARK VINA RESULT:      -7.3      1.235      2.064
REMARK  Name = 
REMARK  6 active torsions:
REMARK  status: ('A' for Active; 'I' for Inactive)
REMARK    1  A    between atoms: C_1  and  C_2
REMARK    2  A    between atoms: C_3  and  N_4
REMARK    3  A    between atoms: N_4  and  C_5
REMARK    4  A    between atoms: C_10  and  C_11
REMARK    5  A    between atoms: C_11  and  O_13
REMARK    6  A    between atoms: C_17  and  C_18
REMARK                            x       y       z     vdW  Elec       q    Type
REMARK                         _______ _______ _______ _____ _____    ______ ____
ROOT
ATOM      1  N   UNL     1       5.674   3.953  17.923  0.00  0.00    +0.000 N 
ATOM      2  H   UNL     1       6.376   3.373  18.384  0.00  0.00    +0.000 HD
ENDROOT
BRANCH   1   5
ATOM      3  C   UNL     1       3.651   5.637  19.525  0.00  0.00    +0.000 C 
ATOM      4  C   UNL     1       3.487   4.189  19.163  0.00  0.00    +0.000 A 
ATOM      5  C   UNL     1       4.334   3.528  18.231  0.00  0.00    +0.000 A 
ATOM      6  C   UNL     1       3.772   2.420  17.578  0.00  0.00    +0.000 A 
ATOM      7  C   UNL     1       2.583   1.827  17.998  0.00  0.00    +0.000 A 
ATOM      8  C   UNL     1       1.920   2.326  19.105  0.00  0.00    +0.000 A 
ATOM      9  C   UNL     1       2.366   3.502  19.720  0.00  0.00    +0.000 A 
BRANCH   9  10
ATOM     10  C   UNL     1       1.615   3.913  20.979  0.00  0.00    +0.000 C 
ATOM     11  F   UNL     1       2.388   4.228  22.053  0.00  0.00    +0.000 F 
ATOM     12  F   UNL     1       0.793   4.980  20.785  0.00  0.00    +0.000 F 
ATOM     13  F   UNL     1       0.804   2.905  21.422  0.00  0.00    +0.000 F 
ENDBRANCH   9  10
ENDBRANCH   1   5
BRANCH   1  14
ATOM     14  C   UNL     1       6.173   4.283  16.602  0.00  0.00    +0.000 A 
ATOM     15  N   UNL     1       5.877   3.455  15.567  0.00  0.00    +0.000 NA
ATOM     16  C   UNL     1       6.223   3.763  14.293  0.00  0.00    +0.000 A 
ATOM     17  C   UNL     1       6.910   4.925  13.945  0.00  0.00    +0.000 A 
ATOM     18  C   UNL     1       7.263   5.758  14.979  0.00  0.00    +0.000 A 
ATOM     19  C   UNL     1       6.882   5.468  16.316  0.00  0.00    +0.000 A 
BRANCH  19  20
ATOM     20  C   UNL     1       7.377   6.366  17.377  0.00  0.00    +0.000 C 
ATOM     21  O   UNL     1       7.696   5.958  18.479  0.00  0.00    +0.000 OA
BRANCH  20  22
ATOM     22  O   UNL     1       7.484   7.668  17.033  0.00  0.00    +0.000 OA
ATOM     23  H   UNL     1       7.353   8.320  17.747  0.00  0.00    +0.000 HD
ENDBRANCH  20  22
ENDBRANCH  19  20
ENDBRANCH   1  14
TORSDOF 5
ENDMDL
MODEL 8
REMARK VINA RESULT:      -7.3      1.211      1.530
REMARK  Name = 
REMARK  6 active torsions:
REMARK  status: ('A' for Active; 'I' for Inactive)
REMARK    1  A    between atoms: C_1  and  C_2
REMARK    2  A    between atoms: C_3  and  N_4
REMARK    3  A    between atoms: N_4  and  C_5
REMARK    4  A    between atoms: C_10  and  C_11
REMARK    5  A    between atoms: C_11  and  O_13
REMARK    6  A    between atoms: C_17  and  C_18
REMARK                            x       y       z     vdW  Elec       q    Type
REMARK                         _______ _______ _______ _____ _____    ______ ____
ROOT
ATOM      1  N   UNL     1       5.163   3.251  17.040  0.00  0.00    +0.000 N 
ATOM      2  H   UNL     1       4.788   2.343  16.760  0.00  0.00    +0.000 HD
ENDROOT
BRANCH   1   5
ATOM      3  C   UNL     1       4.426   2.503  19.938  0.00  0.00    +0.000 C 
ATOM      4  C   UNL     1       3.715   3.520  19.092  0.00  0.00    +0.000 A 
ATOM      5  C   UNL     1       4.235   3.991  17.854  0.00  0.00    +0.000 A 
ATOM      6  C   UNL     1       3.811   5.270  17.463  0.00  0.00    +0.000 A 
ATOM      7  C   UNL     1       2.749   5.928  18.080  0.00  0.00    +0.000 A 
ATOM      8  C   UNL     1       2.065   5.311  19.113  0.00  0.00    +0.000 A 
ATOM      9  C   UNL     1       2.520   4.090  19.626  0.00  0.00    +0.000 A 
BRANCH   9  10
ATOM     10  C   UNL     1       1.645   3.460  20.701  0.00  0.00    +0.000 C 
ATOM     11  F   UNL     1       2.129   3.523  21.970  0.00  0.00    +0.000 F 
ATOM     12  F   UNL     1       0.395   3.997  20.752  0.00  0.00    +0.000 F 
ATOM     13  F   UNL     1       1.458   2.126  20.468  0.00  0.00    +0.000 F 
ENDBRANCH   9  10
ENDBRANCH   1   5
BRANCH   1  14
ATOM     14  C   UNL     1       5.915   3.783  15.921  0.00  0.00    +0.000 A 
ATOM     15  N   UNL     1       5.580   3.393  14.664  0.00  0.00    +0.000 NA
ATOM     16  C   UNL     1       6.174   3.934  13.572  0.00  0.00    +0.000 A 
ATOM     17  C   UNL     1       7.169   4.907  13.645  0.00  0.00    +0.000 A 
ATOM     18  C   UNL     1       7.561   5.287  14.907  0.00  0.00    +0.000 A 
ATOM     19  C   UNL     1       6.928   4.754  16.061  0.00  0.00    +0.000 A 
BRANCH  19  20
ATOM     20  C   UNL     1       7.469   5.146  17.378  0.00  0.00    +0.000 C 
ATOM     21  O   UNL     1       7.881   4.330  18.181  0.00  0.00    +0.000 OA
BRANCH  20  22
ATOM     22  O   UNL     1       7.505   6.475  17.618  0.00  0.00    +0.000 OA
ATOM     23  H   UNL     1       8.026   6.764  18.390  0.00  0.00    +0.000 HD
ENDBRANCH  20  22
ENDBRANCH  19  20
ENDBRANCH   1  14
TORSDOF 5
ENDMDL
MODEL 9
REMARK VINA RESULT:      -7.3      1.850      2.699
REMARK  Name = 
REMARK  6 active torsions:
REMARK  status: ('A' for Active; 'I' for Inactive)
REMARK    1  A    between atoms: C_1  and  C_2
REMARK    2  A    between atoms: C_3  and  N_4
REMARK    3  A    between atoms: N_4  and  C_5
REMARK    4  A    between atoms: C_10  and  C_11
REMARK    5  A    between atoms: C_11  and  O_13
REMARK    6  A    between atoms: C_17  and  C_18
REMARK                            x       y       z     vdW  Elec       q    Type
REMARK                         _______ _______ _______ _____ _____    ______ ____
ROOT
ATOM      1  N   UNL     1       3.693   5.370  17.409  0.00  0.00    +0.000 N 
ATOM      2  H   UNL     1       3.792   6.204  17.989  0.00  0.00    +0.000 HD
ENDROOT
BRANCH   1   5
ATOM      3  C   UNL     1       2.395   5.689  20.187  0.00  0.00    +0.000 C 
ATOM      4  C   UNL     1       2.491   4.407  19.411  0.00  0.00    +0.000 A 
ATOM      5  C   UNL     1       2.887   4.361  18.046  0.00  0.00    +0.000 A 
ATOM      6  C   UNL     1       2.414   3.262  17.312  0.00  0.00    +0.000 A 
ATOM      7  C   UNL     1       1.837   2.149  17.919  0.00  0.00    +0.000 A 
ATOM      8  C   UNL     1       1.726   2.098  19.298  0.00  0.00    +0.000 A 
ATOM      9  C   UNL     1       2.066   3.214  20.071  0.00  0.00    +0.000 A 
BRANCH   9  10
ATOM     10  C   UNL     1       1.986   3.019  21.579  0.00  0.00    +0.000 C 
ATOM     11  F   UNL     1       0.768   2.660  22.065  0.00  0.00    +0.000 F 
ATOM     12  F   UNL     1       2.862   2.087  22.043  0.00  0.00    +0.000 F 
ATOM     13  F   UNL     1       2.297   4.172  22.244  0.00  0.00    +0.000 F 
ENDBRANCH   9  10
ENDBRANCH   1   5
BRANCH   1  14
ATOM     14  C   UNL     1       4.959   5.142  16.742  0.00  0.00    +0.000 A 
ATOM     15  N   UNL     1       5.017   5.266  15.391  0.00  0.00    +0.000 NA
ATOM     16  C   UNL     1       6.191   5.169  14.720  0.00  0.00    +0.000 A 
ATOM     17  C   UNL     1       7.413   4.927  15.346  0.00  0.00    +0.000 A 
ATOM     18  C   UNL     1       7.377   4.750  16.709  0.00  0.00    +0.000 A 
ATOM     19  C   UNL     1       6.161   4.878  17.431  0.00  0.00    +0.000 A 
BRANCH  19  20
ATOM     20  C   UNL     1       6.193   4.586  18.878  0.00  0.00    +0.000 C 
ATOM     21  O   UNL     1       6.653   5.367  19.690  0.00  0.00    +0.000 OA
BRANCH  20  22
ATOM     22  O   UNL     1       5.647   3.406  19.244  0.00  0.00    +0.000 OA
ATOM     23  H   UNL     1       4.752   3.216  18.904  0.00  0.00    +0.000 HD
ENDBRANCH  20  22
ENDBRANCH  19  20
ENDBRANCH   1  14
TORSDOF 5
ENDMDL
