MODEL 1
REMARK VINA RESULT:      -8.2      0.000      0.000
REMARK  Name = 
REMARK  8 active torsions:
REMARK  status: ('A' for Active; 'I' for Inactive)
REMARK    1  A    between atoms: C_1  and  C_2
REMARK    2  A    between atoms: C_2  and  C_3
REMARK    3  A    between atoms: C_2  and  C_4
REMARK    4  A    between atoms: C_4  and  C_5
REMARK    5  A    between atoms: C_5  and  N_6
REMARK    6  A    between atoms: C_10  and  C_11
REMARK    7  A    between atoms: N_13  and  C_14
REMARK    8  A    between atoms: C_14  and  C_15
REMARK                            x       y       z     vdW  Elec       q    Type
REMARK                         _______ _______ _______ _____ _____    ______ ____
ROOT
ATOM      1  N   UNL     1       4.537   3.267  18.632  0.00  0.00    +0.000 NA
ATOM      2  C   UNL     1       3.958   3.688  17.342  0.00  0.00    +0.000 C 
ATOM      3  C   UNL     1       2.433   3.435  17.127  0.00  0.00    +0.000 C 
ATOM      4  C   UNL     1       1.500   4.327  17.925  0.00  0.00    +0.000 C 
ATOM      5  C   UNL     1       1.538   3.742  19.345  0.00  0.00    +0.000 C 
ATOM      6  C   UNL     1       2.204   2.368  19.092  0.00  0.00    +0.000 C 
ATOM      7  C   UNL     1       3.722   2.294  19.370  0.00  0.00    +0.000 C 
ATOM      8  O   UNL     1       2.073   2.150  17.658  0.00  0.00    +0.000 OA
ENDROOT
BRANCH   5   9
ATOM      9  C   UNL     1       2.110   4.415  20.622  0.00  0.00    +0.000 C 
ATOM     10  O   UNL     1       2.234   3.753  21.660  0.00  0.00    +0.000 OA
ATOM     11  N   UNL     1       2.427   5.736  20.671  0.00  0.00    +0.000 N 
ATOM     12  H   UNL     1       2.855   6.025  21.548  0.00  0.00    +0.000 HD
BRANCH  11  13
ATOM     13  C   UNL     1       2.517   6.589  19.531  0.00  0.00    +0.000 C 
BRANCH  13  14
ATOM     14  C   UNL     1       1.913   7.950  19.589  0.00  0.00    +0.000 A 
ATOM     15  C   UNL     1       1.823   8.707  18.403  0.00  0.00    +0.000 A 
ATOM     16  C   UNL     1       1.064   9.871  18.364  0.00  0.00    +0.000 A 
ATOM     17  C   UNL     1       0.397  10.289  19.509  0.00  0.00    +0.000 A 
ATOM     18  C   UNL     1       0.499   9.555  20.693  0.00  0.00    +0.000 A 
ATOM     19  C   UNL     1       1.262   8.390  20.740  0.00  0.00    +0.000 A 
ENDBRANCH  13  14
ENDBRANCH  11  13
ENDBRANCH   5   9
BRANCH   1  20
ATOM     20  C   UNL     1       5.275   4.274  19.384  0.00  0.00    +0.000 C 
BRANCH  20  21
ATOM     21  C   UNL     1       5.678   5.560  18.648  0.00  0.00    +0.000 C 
BRANCH  21  23
ATOM     22  C   UNL     1       7.690   4.529  17.522  0.00  0.00    +0.000 C 
ATOM     23  C   UNL     1       7.181   5.692  18.373  0.00  0.00    +0.000 C 
ATOM     24  C   UNL     1       7.455   7.019  17.664  0.00  0.00    +0.000 C 
ENDBRANCH  21  23
ENDBRANCH  20  21
ENDBRANCH   1  20
TORSDOF 6
ENDMDL
MODEL 2
REMARK VINA RESULT:      -8.0      0.327      1.059
REMARK  Name = 
REMARK  8 active torsions:
REMARK  status: ('A' for Active; 'I' for Inactive)
REMARK    1  A    between atoms: C_1  and  C_2
REMARK    2  A    between atoms: C_2  and  C_3
REMARK    3  A    between atoms: C_2  and  C_4
REMARK    4  A    between atoms: C_4  and  C_5
REMARK    5  A    between atoms: C_5  and  N_6
REMARK    6  A    between atoms: C_10  and  C_11
REMARK    7  A    between atoms: N_13  and  C_14
REMARK    8  A    between atoms: C_14  and  C_15
REMARK                            x       y       z     vdW  Elec       q    Type
REMARK                         _______ _______ _______ _____ _____    ______ ____
ROOT
ATOM      1  N   UNL     1       4.486   3.255  18.679  0.00  0.00    +0.000 NA
ATOM      2  C   UNL     1       3.956   3.601  17.346  0.00  0.00    +0.000 C 
ATOM      3  C   UNL     1       2.425   3.404  17.113  0.00  0.00    +0.000 C 
ATOM      4  C   UNL     1       1.520   4.401  17.816  0.00  0.00    +0.000 C 
ATOM      5  C   UNL     1       1.501   3.928  19.278  0.00  0.00    +0.000 C 
ATOM      6  C   UNL     1       2.103   2.508  19.149  0.00  0.00    +0.000 C 
ATOM      7  C   UNL     1       3.609   2.385  19.470  0.00  0.00    +0.000 C 
ATOM      8  O   UNL     1       1.991   2.184  17.735  0.00  0.00    +0.000 OA
ENDROOT
BRANCH   5   9
ATOM      9  C   UNL     1       2.078   4.672  20.513  0.00  0.00    +0.000 C 
ATOM     10  O   UNL     1       2.181   4.078  21.593  0.00  0.00    +0.000 OA
ATOM     11  N   UNL     1       2.424   5.987  20.477  0.00  0.00    +0.000 N 
ATOM     12  H   UNL     1       2.851   6.324  21.336  0.00  0.00    +0.000 HD
BRANCH  11  13
ATOM     13  C   UNL     1       2.539   6.760  19.284  0.00  0.00    +0.000 C 
BRANCH  13  14
ATOM     14  C   UNL     1       1.865   8.087  19.206  0.00  0.00    +0.000 A 
ATOM     15  C   UNL     1       1.234   8.600  20.359  0.00  0.00    +0.000 A 
ATOM     16  C   UNL     1       0.803   9.920  20.399  0.00  0.00    +0.000 A 
ATOM     17  C   UNL     1       0.993  10.734  19.288  0.00  0.00    +0.000 A 
ATOM     18  C   UNL     1       1.599  10.227  18.137  0.00  0.00    +0.000 A 
ATOM     19  C   UNL     1       2.029   8.903  18.089  0.00  0.00    +0.000 A 
ENDBRANCH  13  14
ENDBRANCH  11  13
ENDBRANCH   5   9
BRANCH   1  20
ATOM     20  C   UNL     1       5.257   4.283  19.367  0.00  0.00    +0.000 C 
BRANCH  20  21
ATOM     21  C   UNL     1       5.656   5.531  18.568  0.00  0.00    +0.000 C 
BRANCH  21  23
ATOM     22  C   UNL     1       7.713   4.520  17.508  0.00  0.00    +0.000 C 
ATOM     23  C   UNL     1       7.164   5.683  18.334  0.00  0.00    +0.000 C 
ATOM     24  C   UNL     1       7.439   7.008  17.621  0.00  0.00    +0.000 C 
ENDBRANCH  21  23
ENDBRANCH  20  21
ENDBRANCH   1  20
TORSDOF 6
ENDMDL
MODEL 3
REMARK VINA RESULT:      -7.9      2.479      5.433
REMARK  Name = 
REMARK  8 active torsions:
REMARK  status: ('A' for Active; 'I' for Inactive)
REMARK    1  A    between atoms: C_1  and  C_2
REMARK    2  A    between atoms: C_2  and  C_3
REMARK    3  A    between atoms: C_2  and  C_4
REMARK    4  A    between atoms: C_4  and  C_5
REMARK    5  A    between atoms: C_5  and  N_6
REMARK    6  A    between atoms: C_10  and  C_11
REMARK    7  A    between atoms: N_13  and  C_14
REMARK    8  A    between atoms: C_14  and  C_15
REMARK                            x       y       z     vdW  Elec       q    Type
REMARK                         _______ _______ _______ _____ _____    ______ ____
ROOT
ATOM      1  N   UNL     1       5.206   7.088  17.031  0.00  0.00    +0.000 NA
ATOM      2  C   UNL     1       4.974   6.206  15.871  0.00  0.00    +0.000 C 
ATOM      3  C   UNL     1       6.144   5.265  15.444  0.00  0.00    +0.000 C 
ATOM      4  C   UNL     1       6.421   4.097  16.373  0.00  0.00    +0.000 C 
ATOM      5  C   UNL     1       7.173   4.725  17.557  0.00  0.00    +0.000 C 
ATOM      6  C   UNL     1       7.552   6.110  16.979  0.00  0.00    +0.000 C 
ATOM      7  C   UNL     1       6.621   7.280  17.370  0.00  0.00    +0.000 C 
ATOM      8  O   UNL     1       7.394   5.968  15.539  0.00  0.00    +0.000 OA
ENDROOT
BRANCH   5   9
ATOM      9  C   UNL     1       6.680   4.846  19.024  0.00  0.00    +0.000 C 
ATOM     10  O   UNL     1       7.319   5.533  19.831  0.00  0.00    +0.000 OA
ATOM     11  N   UNL     1       5.595   4.170  19.487  0.00  0.00    +0.000 N 
ATOM     12  H   UNL     1       5.347   4.397  20.447  0.00  0.00    +0.000 HD
BRANCH  11  13
ATOM     13  C   UNL     1       4.653   3.490  18.661  0.00  0.00    +0.000 C 
BRANCH  13  14
ATOM     14  C   UNL     1       3.207   3.527  19.018  0.00  0.00    +0.000 A 
ATOM     15  C   UNL     1       2.291   2.798  18.233  0.00  0.00    +0.000 A 
ATOM     16  C   UNL     1       0.982   2.614  18.661  0.00  0.00    +0.000 A 
ATOM     17  C   UNL     1       0.578   3.163  19.873  0.00  0.00    +0.000 A 
ATOM     18  C   UNL     1       1.474   3.903  20.647  0.00  0.00    +0.000 A 
ATOM     19  C   UNL     1       2.787   4.095  20.219  0.00  0.00    +0.000 A 
ENDBRANCH  13  14
ENDBRANCH  11  13
ENDBRANCH   5   9
BRANCH   1  20
ATOM     20  C   UNL     1       4.231   7.023  18.113  0.00  0.00    +0.000 C 
BRANCH  20  21
ATOM     21  C   UNL     1       2.754   6.843  17.732  0.00  0.00    +0.000 C 
BRANCH  21  23
ATOM     22  C   UNL     1       1.929   7.776  19.929  0.00  0.00    +0.000 C 
ATOM     23  C   UNL     1       1.797   7.833  18.407  0.00  0.00    +0.000 C 
ATOM     24  C   UNL     1       2.091   9.249  17.908  0.00  0.00    +0.000 C 
ENDBRANCH  21  23
ENDBRANCH  20  21
ENDBRANCH   1  20
TORSDOF 6
ENDMDL
MODEL 4
REMARK VINA RESULT:      -7.9      2.580      5.536
REMARK  Name = 
REMARK  8 active torsions:
REMARK  status: ('A' for Active; 'I' for Inactive)
REMARK    1  A    between atoms: C_1  and  C_2
REMARK    2  A    between atoms: C_2  and  C_3
REMARK    3  A    between atoms: C_2  and  C_4
REMARK    4  A    between atoms: C_4  and  C_5
REMARK    5  A    between atoms: C_5  and  N_6
REMARK    6  A    between atoms: C_10  and  C_11
REMARK    7  A    between atoms: N_13  and  C_14
REMARK    8  A    between atoms: C_14  and  C_15
REMARK                            x       y       z     vdW  Elec       q    Type
REMARK                         _______ _______ _______ _____ _____    ______ ____
ROOT
ATOM      1  N   UNL     1       5.564   7.060  16.628  0.00  0.00    +0.000 NA
ATOM      2  C   UNL     1       5.119   6.244  15.482  0.00  0.00    +0.000 C 
ATOM      3  C   UNL     1       6.049   5.073  15.035  0.00  0.00    +0.000 C 
ATOM      4  C   UNL     1       6.094   3.877  15.968  0.00  0.00    +0.000 C 
ATOM      5  C   UNL     1       6.994   4.334  17.127  0.00  0.00    +0.000 C 
ATOM      6  C   UNL     1       7.645   5.604  16.527  0.00  0.00    +0.000 C 
ATOM      7  C   UNL     1       6.995   6.947  16.930  0.00  0.00    +0.000 C 
ATOM      8  O   UNL     1       7.422   5.493  15.092  0.00  0.00    +0.000 OA
ENDROOT
BRANCH   5   9
ATOM      9  C   UNL     1       6.576   4.563  18.605  0.00  0.00    +0.000 C 
ATOM     10  O   UNL     1       7.211   5.362  19.304  0.00  0.00    +0.000 OA
ATOM     11  N   UNL     1       5.567   3.868  19.194  0.00  0.00    +0.000 N 
ATOM     12  H   UNL     1       5.358   4.169  20.143  0.00  0.00    +0.000 HD
BRANCH  11  13
ATOM     13  C   UNL     1       4.629   3.054  18.493  0.00  0.00    +0.000 C 
BRANCH  13  14
ATOM     14  C   UNL     1       3.244   2.912  19.025  0.00  0.00    +0.000 A 
ATOM     15  C   UNL     1       3.026   3.069  20.409  0.00  0.00    +0.000 A 
ATOM     16  C   UNL     1       1.736   3.179  20.912  0.00  0.00    +0.000 A 
ATOM     17  C   UNL     1       0.656   3.126  20.039  0.00  0.00    +0.000 A 
ATOM     18  C   UNL     1       0.864   2.950  18.669  0.00  0.00    +0.000 A 
ATOM     19  C   UNL     1       2.155   2.834  18.159  0.00  0.00    +0.000 A 
ENDBRANCH  13  14
ENDBRANCH  11  13
ENDBRANCH   5   9
BRANCH   1  20
ATOM     20  C   UNL     1       4.626   7.210  17.733  0.00  0.00    +0.000 C 
BRANCH  20  21
ATOM     21  C   UNL     1       3.379   6.313  17.738  0.00  0.00    +0.000 C 
BRANCH  21  23
ATOM     22  C   UNL     1       2.159   6.769  19.901  0.00  0.00    +0.000 C 
ATOM     23  C   UNL     1       2.141   6.947  18.383  0.00  0.00    +0.000 C 
ATOM     24  C   UNL     1       2.086   8.434  18.030  0.00  0.00    +0.000 C 
ENDBRANCH  21  23
ENDBRANCH  20  21
ENDBRANCH   1  20
TORSDOF 6
ENDMDL
MODEL 5
REMARK VINA RESULT:      -7.8      2.451      5.613
REMARK  Name = 
REMARK  8 active torsions:
REMARK  status: ('A' for Active; 'I' for Inactive)
REMARK    1  A    between atoms: C_1  and  C_2
REMARK    2  A    between atoms: C_2  and  C_3
REMARK    3  A    between atoms: C_2  and  C_4
REMARK    4  A    between atoms: C_4  and  C_5
REMARK    5  A    between atoms: C_5  and  N_6
REMARK    6  A    between atoms: C_10  and  C_11
REMARK    7  A    between atoms: N_13  and  C_14
REMARK    8  A    between atoms: C_14  and  C_15
REMARK                            x       y       z     vdW  Elec       q    Type
REMARK                         _______ _______ _______ _____ _____    ______ ____
ROOT
ATOM      1  N   UNL     1       5.169   7.030  16.993  0.00  0.00    +0.000 NA
ATOM      2  C   UNL     1       5.020   6.136  15.829  0.00  0.00    +0.000 C 
ATOM      3  C   UNL     1       6.243   5.242  15.452  0.00  0.00    +0.000 C 
ATOM      4  C   UNL     1       6.531   4.090  16.398  0.00  0.00    +0.000 C 
ATOM      5  C   UNL     1       7.209   4.752  17.607  0.00  0.00    +0.000 C 
ATOM      6  C   UNL     1       7.554   6.150  17.037  0.00  0.00    +0.000 C 
ATOM      7  C   UNL     1       6.561   7.282  17.385  0.00  0.00    +0.000 C 
ATOM      8  O   UNL     1       7.458   5.996  15.593  0.00  0.00    +0.000 OA
ENDROOT
BRANCH   5   9
ATOM      9  C   UNL     1       6.654   4.858  19.054  0.00  0.00    +0.000 C 
ATOM     10  O   UNL     1       7.272   5.517  19.899  0.00  0.00    +0.000 OA
ATOM     11  N   UNL     1       5.536   4.198  19.456  0.00  0.00    +0.000 N 
ATOM     12  H   UNL     1       5.250   4.413  20.408  0.00  0.00    +0.000 HD
BRANCH  11  13
ATOM     13  C   UNL     1       4.617   3.553  18.576  0.00  0.00    +0.000 C 
BRANCH  13  14
ATOM     14  C   UNL     1       3.228   3.283  19.042  0.00  0.00    +0.000 A 
ATOM     15  C   UNL     1       2.670   4.108  20.041  0.00  0.00    +0.000 A 
ATOM     16  C   UNL     1       1.314   4.043  20.334  0.00  0.00    +0.000 A 
ATOM     17  C   UNL     1       0.507   3.150  19.638  0.00  0.00    +0.000 A 
ATOM     18  C   UNL     1       1.056   2.315  18.662  0.00  0.00    +0.000 A 
ATOM     19  C   UNL     1       2.417   2.373  18.367  0.00  0.00    +0.000 A 
ENDBRANCH  13  14
ENDBRANCH  11  13
ENDBRANCH   5   9
BRANCH   1  20
ATOM     20  C   UNL     1       4.156   6.930  18.035  0.00  0.00    +0.000 C 
BRANCH  20  21
ATOM     21  C   UNL     1       2.743   7.433  17.708  0.00  0.00    +0.000 C 
BRANCH  21  23
ATOM     22  C   UNL     1       1.093   9.326  17.978  0.00  0.00    +0.000 C 
ATOM     23  C   UNL     1       2.231   8.543  18.633  0.00  0.00    +0.000 C 
ATOM     24  C   UNL     1       1.755   7.930  19.951  0.00  0.00    +0.000 C 
ENDBRANCH  21  23
ENDBRANCH  20  21
ENDBRANCH   1  20
TORSDOF 6
ENDMDL
MODEL 6
REMARK VINA RESULT:      -7.8      3.393      5.600
REMARK  Name = 
REMARK  8 active torsions:
REMARK  status: ('A' for Active; 'I' for Inactive)
REMARK    1  A    between atoms: C_1  and  C_2
REMARK    2  A    between atoms: C_2  and  C_3
REMARK    3  A    between atoms: C_2  and  C_4
REMARK    4  A    between atoms: C_4  and  C_5
REMARK    5  A    between atoms: C_5  and  N_6
REMARK    6  A    between atoms: C_10  and  C_11
REMARK    7  A    between atoms: N_13  and  C_14
REMARK    8  A    between atoms: C_14  and  C_15
REMARK                            x       y       z     vdW  Elec       q    Type
REMARK                         _______ _______ _______ _____ _____    ______ ____
ROOT
ATOM      1  N   UNL     1       7.416   4.824  16.260  0.00  0.00    +0.000 NA
ATOM      2  C   UNL     1       7.850   4.338  17.583  0.00  0.00    +0.000 C 
ATOM      3  C   UNL     1       7.631   5.290  18.801  0.00  0.00    +0.000 C 
ATOM      4  C   UNL     1       6.192   5.460  19.251  0.00  0.00    +0.000 C 
ATOM      5  C   UNL     1       5.581   6.417  18.215  0.00  0.00    +0.000 C 
ATOM      6  C   UNL     1       6.851   6.960  17.515  0.00  0.00    +0.000 C 
ATOM      7  C   UNL     1       7.228   6.277  16.182  0.00  0.00    +0.000 C 
ATOM      8  O   UNL     1       7.942   6.641  18.425  0.00  0.00    +0.000 OA
ENDROOT
BRANCH   5   9
ATOM      9  C   UNL     1       4.466   6.095  17.183  0.00  0.00    +0.000 C 
ATOM     10  O   UNL     1       4.227   6.896  16.271  0.00  0.00    +0.000 OA
ATOM     11  N   UNL     1       3.686   4.986  17.274  0.00  0.00    +0.000 N 
ATOM     12  H   UNL     1       3.044   4.868  16.494  0.00  0.00    +0.000 HD
BRANCH  11  13
ATOM     13  C   UNL     1       3.943   3.886  18.144  0.00  0.00    +0.000 C 
BRANCH  13  14
ATOM     14  C   UNL     1       3.082   3.688  19.345  0.00  0.00    +0.000 A 
ATOM     15  C   UNL     1       1.739   4.116  19.300  0.00  0.00    +0.000 A 
ATOM     16  C   UNL     1       0.846   3.744  20.296  0.00  0.00    +0.000 A 
ATOM     17  C   UNL     1       1.288   2.948  21.347  0.00  0.00    +0.000 A 
ATOM     18  C   UNL     1       2.622   2.538  21.409  0.00  0.00    +0.000 A 
ATOM     19  C   UNL     1       3.523   2.912  20.415  0.00  0.00    +0.000 A 
ENDBRANCH  13  14
ENDBRANCH  11  13
ENDBRANCH   5   9
BRANCH   1  20
ATOM     20  C   UNL     1       6.515   3.961  15.505  0.00  0.00    +0.000 C 
BRANCH  20  21
ATOM     21  C   UNL     1       5.943   4.505  14.188  0.00  0.00    +0.000 C 
BRANCH  21  23
ATOM     22  C   UNL     1       4.885   3.377  12.192  0.00  0.00    +0.000 C 
ATOM     23  C   UNL     1       6.181   3.605  12.970  0.00  0.00    +0.000 C 
ATOM     24  C   UNL     1       7.232   4.243  12.061  0.00  0.00    +0.000 C 
ENDBRANCH  21  23
ENDBRANCH  20  21
ENDBRANCH   1  20
TORSDOF 6
ENDMDL
MODEL 7
REMARK VINA RESULT:      -7.7      0.747      1.037
REMARK  Name = 
REMARK  8 active torsions:
REMARK  status: ('A' for Active; 'I' for Inactive)
REMARK    1  A    between atoms: C_1  and  C_2
REMARK    2  A    between atoms: C_2  and  C_3
REMARK    3  A    between atoms: C_2  and  C_4
REMARK    4  A    between atoms: C_4  and  C_5
REMARK    5  A    between atoms: C_5  and  N_6
REMARK    6  A    between atoms: C_10  and  C_11
REMARK    7  A    between atoms: N_13  and  C_14
REMARK    8  A    between atoms: C_14  and  C_15
REMARK                            x       y       z     vdW  Elec       q    Type
REMARK                         _______ _______ _______ _____ _____    ______ ____
ROOT
ATOM      1  N   UNL     1       4.757   3.884  18.347  0.00  0.00    +0.000 NA
ATOM      2  C   UNL     1       3.963   3.976  17.107  0.00  0.00    +0.000 C 
ATOM      3  C   UNL     1       2.557   3.297  17.106  0.00  0.00    +0.000 C 
ATOM      4  C   UNL     1       1.491   3.994  17.932  0.00  0.00    +0.000 C 
ATOM      5  C   UNL     1       1.828   3.616  19.383  0.00  0.00    +0.000 C 
ATOM      6  C   UNL     1       2.826   2.451  19.171  0.00  0.00    +0.000 C 
ATOM      7  C   UNL     1       4.322   2.823  19.264  0.00  0.00    +0.000 C 
ATOM      8  O   UNL     1       2.625   2.036  17.791  0.00  0.00    +0.000 OA
ENDROOT
BRANCH   5   9
ATOM      9  C   UNL     1       2.306   4.566  20.514  0.00  0.00    +0.000 C 
ATOM     10  O   UNL     1       2.597   4.100  21.622  0.00  0.00    +0.000 OA
ATOM     11  N   UNL     1       2.362   5.915  20.358  0.00  0.00    +0.000 N 
ATOM     12  H   UNL     1       2.758   6.407  21.156  0.00  0.00    +0.000 HD
BRANCH  11  13
ATOM     13  C   UNL     1       2.238   6.591  19.109  0.00  0.00    +0.000 C 
BRANCH  13  14
ATOM     14  C   UNL     1       2.021   8.065  19.094  0.00  0.00    +0.000 A 
ATOM     15  C   UNL     1       2.314   8.786  17.917  0.00  0.00    +0.000 A 
ATOM     16  C   UNL     1       1.910  10.108  17.781  0.00  0.00    +0.000 A 
ATOM     17  C   UNL     1       1.218  10.721  18.819  0.00  0.00    +0.000 A 
ATOM     18  C   UNL     1       0.943  10.020  19.995  0.00  0.00    +0.000 A 
ATOM     19  C   UNL     1       1.350   8.695  20.139  0.00  0.00    +0.000 A 
ENDBRANCH  13  14
ENDBRANCH  11  13
ENDBRANCH   5   9
BRANCH   1  20
ATOM     20  C   UNL     1       5.250   5.135  18.908  0.00  0.00    +0.000 C 
BRANCH  20  21
ATOM     21  C   UNL     1       5.763   6.202  17.930  0.00  0.00    +0.000 C 
BRANCH  21  23
ATOM     22  C   UNL     1       7.708   7.789  17.653  0.00  0.00    +0.000 C 
ATOM     23  C   UNL     1       7.289   6.336  17.876  0.00  0.00    +0.000 C 
ATOM     24  C   UNL     1       7.894   5.810  19.179  0.00  0.00    +0.000 C 
ENDBRANCH  21  23
ENDBRANCH  20  21
ENDBRANCH   1  20
TORSDOF 6
ENDMDL
MODEL 8
REMARK VINA RESULT:      -7.6      1.427      4.966
REMARK  Name = 
REMARK  8 active torsions:
REMARK  status: ('A' for Active; 'I' for Inactive)
REMARK    1  A    between atoms: C_1  and  C_2
REMARK    2  A    between atoms: C_2  and  C_3
REMARK    3  A    between atoms: C_2  and  C_4
REMARK    4  A    between atoms: C_4  and  C_5
REMARK    5  A    between atoms: C_5  and  N_6
REMARK    6  A    between atoms: C_10  and  C_11
REMARK    7  A    between atoms: N_13  and  C_14
REMARK    8  A    between atoms: C_14  and  C_15
REMARK                            x       y       z     vdW  Elec       q    Type
REMARK                         _______ _______ _______ _____ _____    ______ ____
ROOT
ATOM      1  N   UNL     1       2.163   5.130  20.691  0.00  0.00    +0.000 NA
ATOM      2  C   UNL     1       2.956   4.084  21.363  0.00  0.00    +0.000 C 
ATOM      3  C   UNL     1       2.546   2.600  21.105  0.00  0.00    +0.000 C 
ATOM      4  C   UNL     1       2.865   2.061  19.722  0.00  0.00    +0.000 C 
ATOM      5  C   UNL     1       1.777   2.665  18.821  0.00  0.00    +0.000 C 
ATOM      6  C   UNL     1       0.760   3.176  19.869  0.00  0.00    +0.000 C 
ATOM      7  C   UNL     1       0.850   4.680  20.215  0.00  0.00    +0.000 C 
ATOM      8  O   UNL     1       1.114   2.484  21.100  0.00  0.00    +0.000 OA
ENDROOT
BRANCH   5   9
ATOM      9  C   UNL     1       1.972   3.697  17.677  0.00  0.00    +0.000 C 
ATOM     10  O   UNL     1       0.996   4.319  17.241  0.00  0.00    +0.000 OA
ATOM     11  N   UNL     1       3.176   3.907  17.082  0.00  0.00    +0.000 N 
ATOM     12  H   UNL     1       3.171   4.660  16.397  0.00  0.00    +0.000 HD
BRANCH  11  13
ATOM     13  C   UNL     1       4.420   3.416  17.577  0.00  0.00    +0.000 C 
BRANCH  13  14
ATOM     14  C   UNL     1       5.589   4.337  17.656  0.00  0.00    +0.000 A 
ATOM     15  C   UNL     1       6.084   4.914  16.468  0.00  0.00    +0.000 A 
ATOM     16  C   UNL     1       7.010   5.949  16.518  0.00  0.00    +0.000 A 
ATOM     17  C   UNL     1       7.453   6.408  17.753  0.00  0.00    +0.000 A 
ATOM     18  C   UNL     1       6.982   5.827  18.933  0.00  0.00    +0.000 A 
ATOM     19  C   UNL     1       6.057   4.786  18.888  0.00  0.00    +0.000 A 
ENDBRANCH  13  14
ENDBRANCH  11  13
ENDBRANCH   5   9
BRANCH   1  20
ATOM     20  C   UNL     1       2.898   6.105  19.895  0.00  0.00    +0.000 C 
BRANCH  20  21
ATOM     21  C   UNL     1       2.186   7.417  19.537  0.00  0.00    +0.000 C 
BRANCH  21  23
ATOM     22  C   UNL     1       1.895   9.263  17.838  0.00  0.00    +0.000 C 
ATOM     23  C   UNL     1       2.245   7.790  18.051  0.00  0.00    +0.000 C 
ATOM     24  C   UNL     1       3.644   7.499  17.506  0.00  0.00    +0.000 C 
ENDBRANCH  21  23
ENDBRANCH  20  21
ENDBRANCH   1  20
TORSDOF 6
ENDMDL
MODEL 9
REMARK VINA RESULT:      -7.5      3.964      6.331
REMARK  Name = 
REMARK  8 active torsions:
REMARK  status: ('A' for Active; 'I' for Inactive)
REMARK    1  A    between atoms: C_1  and  C_2
REMARK    2  A    between atoms: C_2  and  C_3
REMARK    3  A    between atoms: C_2  and  C_4
REMARK    4  A    between atoms: C_4  and  C_5
REMARK    5  A    between atoms: C_5  and  N_6
REMARK    6  A    between atoms: C_10  and  C_11
REMARK    7  A    between atoms: N_13  and  C_14
REMARK    8  A    between atoms: C_14  and  C_15
REMARK                            x       y       z     vdW  Elec       q    Type
REMARK                         _______ _______ _______ _____ _____    ______ ____
ROOT
ATOM      1  N   UNL     1       6.586   3.989  16.307  0.00  0.00    +0.000 NA
ATOM      2  C   UNL     1       5.276   3.626  16.881  0.00  0.00    +0.000 C 
ATOM      3  C   UNL     1       4.903   4.250  18.262  0.00  0.00    +0.000 C 
ATOM      4  C   UNL     1       4.571   5.731  18.245  0.00  0.00    +0.000 C 
ATOM      5  C   UNL     1       5.938   6.425  18.143  0.00  0.00    +0.000 C 
ATOM      6  C   UNL     1       6.899   5.260  18.486  0.00  0.00    +0.000 C 
ATOM      7  C   UNL     1       7.539   4.539  17.278  0.00  0.00    +0.000 C 
ATOM      8  O   UNL     1       6.055   4.258  19.120  0.00  0.00    +0.000 OA
ENDROOT
BRANCH   5   9
ATOM      9  C   UNL     1       6.478   7.266  16.955  0.00  0.00    +0.000 C 
ATOM     10  O   UNL     1       5.910   7.210  15.857  0.00  0.00    +0.000 OA
ATOM     11  N   UNL     1       7.601   8.026  17.049  0.00  0.00    +0.000 N 
ATOM     12  H   UNL     1       7.798   8.576  16.216  0.00  0.00    +0.000 HD
BRANCH  11  13
ATOM     13  C   UNL     1       8.263   8.343  18.272  0.00  0.00    +0.000 C 
BRANCH  13  14
ATOM     14  C   UNL     1       8.621   9.760  18.563  0.00  0.00    +0.000 A 
ATOM     15  C   UNL     1       9.440  10.042  19.676  0.00  0.00    +0.000 A 
ATOM     16  C   UNL     1       9.987  11.307  19.847  0.00  0.00    +0.000 A 
ATOM     17  C   UNL     1       9.715  12.300  18.914  0.00  0.00    +0.000 A 
ATOM     18  C   UNL     1       8.889  12.034  17.820  0.00  0.00    +0.000 A 
ATOM     19  C   UNL     1       8.333  10.768  17.645  0.00  0.00    +0.000 A 
ENDBRANCH  13  14
ENDBRANCH  11  13
ENDBRANCH   5   9
BRANCH   1  20
ATOM     20  C   UNL     1       6.586   4.520  14.950  0.00  0.00    +0.000 C 
BRANCH  20  21
ATOM     21  C   UNL     1       5.435   4.105  14.021  0.00  0.00    +0.000 C 
BRANCH  21  23
ATOM     22  C   UNL     1       4.720   3.310  11.734  0.00  0.00    +0.000 C 
ATOM     23  C   UNL     1       5.879   3.418  12.725  0.00  0.00    +0.000 C 
ATOM     24  C   UNL     1       7.033   4.203  12.099  0.00  0.00    +0.000 C 
ENDBRANCH  21  23
ENDBRANCH  20  21
ENDBRANCH   1  20
TORSDOF 6
ENDMDL
