MODEL 1
REMARK VINA RESULT:      -6.8      0.000      0.000
REMARK  Name = 
REMARK  10 active torsions:
REMARK  status: ('A' for Active; 'I' for Inactive)
REMARK    1  A    between atoms: C_1  and  O_2
REMARK    2  A    between atoms: O_2  and  C_3
REMARK    3  A    between atoms: C_6  and  C_7
REMARK    4  A    between atoms: C_8  and  C_9
REMARK    5  A    between atoms: C_10  and  O_11
REMARK    6  A    between atoms: O_11  and  C_12
REMARK    7  A    between atoms: C_16  and  O_17
REMARK    8  A    between atoms: O_17  and  C_18
REMARK    9  A    between atoms: C_19  and  O_20
REMARK   10  A    between atoms: O_20  and  C_21
REMARK                            x       y       z     vdW  Elec       q    Type
REMARK                         _______ _______ _______ _____ _____    ______ ____
ROOT
ATOM      1  C   UNL     1       2.851   6.806  17.894  0.00  0.00    +0.000 C 
ATOM      2  C   UNL     1       4.158   6.514  18.009  0.00  0.00    +0.000 C 
ENDROOT
BRANCH   1   6
ATOM      3  C   UNL     1       0.767   9.225  20.741  0.00  0.00    +0.000 A 
ATOM      4  C   UNL     1       1.034   9.696  19.455  0.00  0.00    +0.000 A 
ATOM      5  C   UNL     1       1.721   8.899  18.536  0.00  0.00    +0.000 A 
ATOM      6  C   UNL     1       2.146   7.617  18.894  0.00  0.00    +0.000 A 
ATOM      7  C   UNL     1       1.881   7.130  20.192  0.00  0.00    +0.000 A 
ATOM      8  C   UNL     1       1.196   7.945  21.105  0.00  0.00    +0.000 A 
BRANCH   3  10
ATOM      9  C   UNL     1      -0.124   9.708  22.895  0.00  0.00    +0.000 C 
ATOM     10  O   UNL     1       0.089  10.102  21.547  0.00  0.00    +0.000 OA
ENDBRANCH   3  10
BRANCH   7  11
ATOM     11  O   UNL     1       2.328   5.861  20.470  0.00  0.00    +0.000 OA
ATOM     12  C   UNL     1       1.355   4.828  20.559  0.00  0.00    +0.000 C 
ENDBRANCH   7  11
ENDBRANCH   1   6
BRANCH   2  13
ATOM     13  C   UNL     1       4.938   5.721  17.031  0.00  0.00    +0.000 A 
ATOM     14  C   UNL     1       6.155   6.220  16.493  0.00  0.00    +0.000 A 
ATOM     15  C   UNL     1       6.955   5.417  15.667  0.00  0.00    +0.000 A 
ATOM     16  C   UNL     1       6.564   4.122  15.348  0.00  0.00    +0.000 A 
ATOM     17  C   UNL     1       5.379   3.617  15.866  0.00  0.00    +0.000 A 
ATOM     18  C   UNL     1       4.565   4.397  16.702  0.00  0.00    +0.000 A 
BRANCH  14  19
ATOM     19  O   UNL     1       6.563   7.478  16.885  0.00  0.00    +0.000 OA
ATOM     20  C   UNL     1       7.752   7.547  17.664  0.00  0.00    +0.000 C 
ENDBRANCH  14  19
BRANCH  18  21
ATOM     21  O   UNL     1       3.506   3.686  17.215  0.00  0.00    +0.000 OA
ATOM     22  C   UNL     1       3.784   2.801  18.294  0.00  0.00    +0.000 C 
ENDBRANCH  18  21
ENDBRANCH   2  13
TORSDOF 6
ENDMDL
MODEL 2
REMARK VINA RESULT:      -6.7      1.152      3.397
REMARK  Name = 
REMARK  10 active torsions:
REMARK  status: ('A' for Active; 'I' for Inactive)
REMARK    1  A    between atoms: C_1  and  O_2
REMARK    2  A    between atoms: O_2  and  C_3
REMARK    3  A    between atoms: C_6  and  C_7
REMARK    4  A    between atoms: C_8  and  C_9
REMARK    5  A    between atoms: C_10  and  O_11
REMARK    6  A    between atoms: O_11  and  C_12
REMARK    7  A    between atoms: C_16  and  O_17
REMARK    8  A    between atoms: O_17  and  C_18
REMARK    9  A    between atoms: C_19  and  O_20
REMARK   10  A    between atoms: O_20  and  C_21
REMARK                            x       y       z     vdW  Elec       q    Type
REMARK                         _______ _______ _______ _____ _____    ______ ____
ROOT
ATOM      1  C   UNL     1       3.158   7.305  18.008  0.00  0.00    +0.000 C 
ATOM      2  C   UNL     1       3.873   6.199  18.278  0.00  0.00    +0.000 C 
ENDROOT
BRANCH   1   6
ATOM      3  C   UNL     1       0.453   8.918  20.904  0.00  0.00    +0.000 A 
ATOM      4  C   UNL     1       1.037   7.664  21.085  0.00  0.00    +0.000 A 
ATOM      5  C   UNL     1       1.914   7.145  20.129  0.00  0.00    +0.000 A 
ATOM      6  C   UNL     1       2.220   7.880  18.981  0.00  0.00    +0.000 A 
ATOM      7  C   UNL     1       1.636   9.149  18.787  0.00  0.00    +0.000 A 
ATOM      8  C   UNL     1       0.753   9.654  19.753  0.00  0.00    +0.000 A 
BRANCH   3  10
ATOM      9  C   UNL     1       0.182   9.473  23.203  0.00  0.00    +0.000 C 
ATOM     10  O   UNL     1      -0.388   9.313  21.911  0.00  0.00    +0.000 OA
ENDBRANCH   3  10
BRANCH   7  11
ATOM     11  O   UNL     1       1.985   9.813  17.636  0.00  0.00    +0.000 OA
ATOM     12  C   UNL     1       2.314  11.191  17.747  0.00  0.00    +0.000 C 
ENDBRANCH   7  11
ENDBRANCH   1   6
BRANCH   2  13
ATOM     13  C   UNL     1       4.850   5.576  17.355  0.00  0.00    +0.000 A 
ATOM     14  C   UNL     1       4.569   4.332  16.728  0.00  0.00    +0.000 A 
ATOM     15  C   UNL     1       5.438   3.806  15.760  0.00  0.00    +0.000 A 
ATOM     16  C   UNL     1       6.598   4.487  15.408  0.00  0.00    +0.000 A 
ATOM     17  C   UNL     1       6.887   5.705  16.009  0.00  0.00    +0.000 A 
ATOM     18  C   UNL     1       6.030   6.257  16.974  0.00  0.00    +0.000 A 
BRANCH  14  19
ATOM     19  O   UNL     1       3.376   3.712  17.035  0.00  0.00    +0.000 OA
ATOM     20  C   UNL     1       3.455   2.553  17.857  0.00  0.00    +0.000 C 
ENDBRANCH  14  19
BRANCH  18  21
ATOM     21  O   UNL     1       6.415   7.518  17.359  0.00  0.00    +0.000 OA
ATOM     22  C   UNL     1       7.794   7.709  17.657  0.00  0.00    +0.000 C 
ENDBRANCH  18  21
ENDBRANCH   2  13
TORSDOF 6
ENDMDL
MODEL 3
REMARK VINA RESULT:      -6.6      2.219      7.509
REMARK  Name = 
REMARK  10 active torsions:
REMARK  status: ('A' for Active; 'I' for Inactive)
REMARK    1  A    between atoms: C_1  and  O_2
REMARK    2  A    between atoms: O_2  and  C_3
REMARK    3  A    between atoms: C_6  and  C_7
REMARK    4  A    between atoms: C_8  and  C_9
REMARK    5  A    between atoms: C_10  and  O_11
REMARK    6  A    between atoms: O_11  and  C_12
REMARK    7  A    between atoms: C_16  and  O_17
REMARK    8  A    between atoms: O_17  and  C_18
REMARK    9  A    between atoms: C_19  and  O_20
REMARK   10  A    between atoms: O_20  and  C_21
REMARK                            x       y       z     vdW  Elec       q    Type
REMARK                         _______ _______ _______ _____ _____    ______ ____
ROOT
ATOM      1  C   UNL     1       4.849   4.335  17.418  0.00  0.00    +0.000 C 
ATOM      2  C   UNL     1       3.515   4.492  17.409  0.00  0.00    +0.000 C 
ENDROOT
BRANCH   1   6
ATOM      3  C   UNL     1       7.148   4.857  13.848  0.00  0.00    +0.000 A 
ATOM      4  C   UNL     1       5.961   4.124  13.839  0.00  0.00    +0.000 A 
ATOM      5  C   UNL     1       5.222   3.956  15.013  0.00  0.00    +0.000 A 
ATOM      6  C   UNL     1       5.662   4.524  16.211  0.00  0.00    +0.000 A 
ATOM      7  C   UNL     1       6.861   5.268  16.232  0.00  0.00    +0.000 A 
ATOM      8  C   UNL     1       7.595   5.423  15.046  0.00  0.00    +0.000 A 
BRANCH   3  10
ATOM      9  C   UNL     1       7.266   4.145  11.580  0.00  0.00    +0.000 C 
ATOM     10  O   UNL     1       7.778   4.948  12.635  0.00  0.00    +0.000 OA
ENDBRANCH   3  10
BRANCH   7  11
ATOM     11  O   UNL     1       7.230   5.797  17.445  0.00  0.00    +0.000 OA
ATOM     12  C   UNL     1       7.463   7.199  17.505  0.00  0.00    +0.000 C 
ENDBRANCH   7  11
ENDBRANCH   1   6
BRANCH   2  13
ATOM     13  C   UNL     1       2.634   4.339  18.591  0.00  0.00    +0.000 A 
ATOM     14  C   UNL     1       2.087   3.073  18.932  0.00  0.00    +0.000 A 
ATOM     15  C   UNL     1       1.359   2.904  20.119  0.00  0.00    +0.000 A 
ATOM     16  C   UNL     1       1.148   3.978  20.976  0.00  0.00    +0.000 A 
ATOM     17  C   UNL     1       1.677   5.222  20.659  0.00  0.00    +0.000 A 
ATOM     18  C   UNL     1       2.417   5.415  19.482  0.00  0.00    +0.000 A 
BRANCH  14  19
ATOM     19  O   UNL     1       2.375   2.004  18.108  0.00  0.00    +0.000 OA
ATOM     20  C   UNL     1       3.502   1.212  18.465  0.00  0.00    +0.000 C 
ENDBRANCH  14  19
BRANCH  18  21
ATOM     21  O   UNL     1       2.962   6.674  19.406  0.00  0.00    +0.000 OA
ATOM     22  C   UNL     1       2.266   7.633  18.618  0.00  0.00    +0.000 C 
ENDBRANCH  18  21
ENDBRANCH   2  13
TORSDOF 6
ENDMDL
MODEL 4
REMARK VINA RESULT:      -6.5      2.336      7.290
REMARK  Name = 
REMARK  10 active torsions:
REMARK  status: ('A' for Active; 'I' for Inactive)
REMARK    1  A    between atoms: C_1  and  O_2
REMARK    2  A    between atoms: O_2  and  C_3
REMARK    3  A    between atoms: C_6  and  C_7
REMARK    4  A    between atoms: C_8  and  C_9
REMARK    5  A    between atoms: C_10  and  O_11
REMARK    6  A    between atoms: O_11  and  C_12
REMARK    7  A    between atoms: C_16  and  O_17
REMARK    8  A    between atoms: O_17  and  C_18
REMARK    9  A    between atoms: C_19  and  O_20
REMARK   10  A    between atoms: O_20  and  C_21
REMARK                            x       y       z     vdW  Elec       q    Type
REMARK                         _______ _______ _______ _____ _____    ______ ____
ROOT
ATOM      1  C   UNL     1       5.312   4.338  17.876  0.00  0.00    +0.000 C 
ATOM      2  C   UNL     1       4.023   3.986  18.014  0.00  0.00    +0.000 C 
ENDROOT
BRANCH   1   6
ATOM      3  C   UNL     1       7.069   4.738  13.996  0.00  0.00    +0.000 A 
ATOM      4  C   UNL     1       5.960   3.917  14.203  0.00  0.00    +0.000 A 
ATOM      5  C   UNL     1       5.399   3.790  15.476  0.00  0.00    +0.000 A 
ATOM      6  C   UNL     1       5.941   4.489  16.558  0.00  0.00    +0.000 A 
ATOM      7  C   UNL     1       7.061   5.322  16.361  0.00  0.00    +0.000 A 
ATOM      8  C   UNL     1       7.617   5.435  15.078  0.00  0.00    +0.000 A 
BRANCH   3  10
ATOM      9  C   UNL     1       6.986   3.821  11.802  0.00  0.00    +0.000 C 
ATOM     10  O   UNL     1       7.525   4.777  12.705  0.00  0.00    +0.000 OA
ENDBRANCH   3  10
BRANCH   7  11
ATOM     11  O   UNL     1       7.537   5.978  17.470  0.00  0.00    +0.000 OA
ATOM     12  C   UNL     1       7.465   7.398  17.475  0.00  0.00    +0.000 C 
ENDBRANCH   7  11
ENDBRANCH   1   6
BRANCH   2  13
ATOM     13  C   UNL     1       3.318   3.836  19.308  0.00  0.00    +0.000 A 
ATOM     14  C   UNL     1       2.300   4.750  19.694  0.00  0.00    +0.000 A 
ATOM     15  C   UNL     1       1.549   4.534  20.858  0.00  0.00    +0.000 A 
ATOM     16  C   UNL     1       1.795   3.427  21.663  0.00  0.00    +0.000 A 
ATOM     17  C   UNL     1       2.784   2.522  21.300  0.00  0.00    +0.000 A 
ATOM     18  C   UNL     1       3.544   2.711  20.135  0.00  0.00    +0.000 A 
BRANCH  14  19
ATOM     19  O   UNL     1       2.020   5.797  18.842  0.00  0.00    +0.000 OA
ATOM     20  C   UNL     1       2.484   7.082  19.241  0.00  0.00    +0.000 C 
ENDBRANCH  14  19
BRANCH  18  21
ATOM     21  O   UNL     1       4.381   1.652  19.877  0.00  0.00    +0.000 OA
ATOM     22  C   UNL     1       5.267   1.260  20.919  0.00  0.00    +0.000 C 
ENDBRANCH  18  21
ENDBRANCH   2  13
TORSDOF 6
ENDMDL
MODEL 5
REMARK VINA RESULT:      -6.5      1.757      6.883
REMARK  Name = 
REMARK  10 active torsions:
REMARK  status: ('A' for Active; 'I' for Inactive)
REMARK    1  A    between atoms: C_1  and  O_2
REMARK    2  A    between atoms: O_2  and  C_3
REMARK    3  A    between atoms: C_6  and  C_7
REMARK    4  A    between atoms: C_8  and  C_9
REMARK    5  A    between atoms: C_10  and  O_11
REMARK    6  A    between atoms: O_11  and  C_12
REMARK    7  A    between atoms: C_16  and  O_17
REMARK    8  A    between atoms: O_17  and  C_18
REMARK    9  A    between atoms: C_19  and  O_20
REMARK   10  A    between atoms: O_20  and  C_21
REMARK                            x       y       z     vdW  Elec       q    Type
REMARK                         _______ _______ _______ _____ _____    ______ ____
ROOT
ATOM      1  C   UNL     1       4.251   6.197  18.044  0.00  0.00    +0.000 C 
ATOM      2  C   UNL     1       2.938   6.478  18.095  0.00  0.00    +0.000 C 
ENDROOT
BRANCH   1   6
ATOM      3  C   UNL     1       6.033   4.242  14.682  0.00  0.00    +0.000 A 
ATOM      4  C   UNL     1       5.812   5.620  14.679  0.00  0.00    +0.000 A 
ATOM      5  C   UNL     1       5.224   6.246  15.781  0.00  0.00    +0.000 A 
ATOM      6  C   UNL     1       4.853   5.498  16.902  0.00  0.00    +0.000 A 
ATOM      7  C   UNL     1       5.072   4.104  16.916  0.00  0.00    +0.000 A 
ATOM      8  C   UNL     1       5.658   3.489  15.799  0.00  0.00    +0.000 A 
BRANCH   3  10
ATOM      9  C   UNL     1       5.744   3.373  12.485  0.00  0.00    +0.000 C 
ATOM     10  O   UNL     1       6.615   3.750  13.543  0.00  0.00    +0.000 OA
ENDBRANCH   3  10
BRANCH   7  11
ATOM     11  O   UNL     1       4.683   3.437  18.051  0.00  0.00    +0.000 OA
ATOM     12  C   UNL     1       3.614   2.507  17.932  0.00  0.00    +0.000 C 
ENDBRANCH   7  11
ENDBRANCH   1   6
BRANCH   2  13
ATOM     13  C   UNL     1       2.266   7.196  19.203  0.00  0.00    +0.000 A 
ATOM     14  C   UNL     1       1.839   8.542  19.045  0.00  0.00    +0.000 A 
ATOM     15  C   UNL     1       1.093   9.178  20.048  0.00  0.00    +0.000 A 
ATOM     16  C   UNL     1       0.769   8.506  21.221  0.00  0.00    +0.000 A 
ATOM     17  C   UNL     1       1.177   7.189  21.391  0.00  0.00    +0.000 A 
ATOM     18  C   UNL     1       1.917   6.528  20.399  0.00  0.00    +0.000 A 
BRANCH  14  19
ATOM     19  O   UNL     1       2.103   9.165  17.843  0.00  0.00    +0.000 OA
ATOM     20  C   UNL     1       2.056  10.587  17.840  0.00  0.00    +0.000 C 
ENDBRANCH  14  19
BRANCH  18  21
ATOM     21  O   UNL     1       2.118   5.200  20.691  0.00  0.00    +0.000 OA
ATOM     22  C   UNL     1       1.057   4.303  20.381  0.00  0.00    +0.000 C 
ENDBRANCH  18  21
ENDBRANCH   2  13
TORSDOF 6
ENDMDL
MODEL 6
REMARK VINA RESULT:      -6.5      1.813      3.374
REMARK  Name = 
REMARK  10 active torsions:
REMARK  status: ('A' for Active; 'I' for Inactive)
REMARK    1  A    between atoms: C_1  and  O_2
REMARK    2  A    between atoms: O_2  and  C_3
REMARK    3  A    between atoms: C_6  and  C_7
REMARK    4  A    between atoms: C_8  and  C_9
REMARK    5  A    between atoms: C_10  and  O_11
REMARK    6  A    between atoms: O_11  and  C_12
REMARK    7  A    between atoms: C_16  and  O_17
REMARK    8  A    between atoms: O_17  and  C_18
REMARK    9  A    between atoms: C_19  and  O_20
REMARK   10  A    between atoms: O_20  and  C_21
REMARK                            x       y       z     vdW  Elec       q    Type
REMARK                         _______ _______ _______ _____ _____    ______ ____
ROOT
ATOM      1  C   UNL     1       2.488   6.674  19.096  0.00  0.00    +0.000 C 
ATOM      2  C   UNL     1       2.179   5.787  18.135  0.00  0.00    +0.000 C 
ENDROOT
BRANCH   1   6
ATOM      3  C   UNL     1       1.235  10.754  18.820  0.00  0.00    +0.000 A 
ATOM      4  C   UNL     1       1.986  10.163  17.805  0.00  0.00    +0.000 A 
ATOM      5  C   UNL     1       2.395   8.830  17.909  0.00  0.00    +0.000 A 
ATOM      6  C   UNL     1       2.052   8.074  19.033  0.00  0.00    +0.000 A 
ATOM      7  C   UNL     1       1.292   8.662  20.066  0.00  0.00    +0.000 A 
ATOM      8  C   UNL     1       0.894  10.002  19.949  0.00  0.00    +0.000 A 
BRANCH   3  10
ATOM      9  C   UNL     1       1.966  12.979  18.394  0.00  0.00    +0.000 C 
ATOM     10  O   UNL     1       0.898  12.064  18.599  0.00  0.00    +0.000 OA
ENDBRANCH   3  10
BRANCH   7  11
ATOM     11  O   UNL     1       0.991   7.857  21.137  0.00  0.00    +0.000 OA
ATOM     12  C   UNL     1      -0.146   8.201  21.918  0.00  0.00    +0.000 C 
ENDBRANCH   7  11
ENDBRANCH   1   6
BRANCH   2  13
ATOM     13  C   UNL     1       2.567   4.358  18.143  0.00  0.00    +0.000 A 
ATOM     14  C   UNL     1       3.656   3.894  17.356  0.00  0.00    +0.000 A 
ATOM     15  C   UNL     1       4.100   2.568  17.461  0.00  0.00    +0.000 A 
ATOM     16  C   UNL     1       3.474   1.679  18.327  0.00  0.00    +0.000 A 
ATOM     17  C   UNL     1       2.409   2.116  19.105  0.00  0.00    +0.000 A 
ATOM     18  C   UNL     1       1.951   3.440  19.025  0.00  0.00    +0.000 A 
BRANCH  14  19
ATOM     19  O   UNL     1       4.312   4.811  16.562  0.00  0.00    +0.000 OA
ATOM     20  C   UNL     1       5.734   4.776  16.594  0.00  0.00    +0.000 C 
ENDBRANCH  14  19
BRANCH  18  21
ATOM     21  O   UNL     1       0.979   3.716  19.957  0.00  0.00    +0.000 OA
ATOM     22  C   UNL     1       1.137   3.134  21.246  0.00  0.00    +0.000 C 
ENDBRANCH  18  21
ENDBRANCH   2  13
TORSDOF 6
ENDMDL
MODEL 7
REMARK VINA RESULT:      -6.5      1.703      7.241
REMARK  Name = 
REMARK  10 active torsions:
REMARK  status: ('A' for Active; 'I' for Inactive)
REMARK    1  A    between atoms: C_1  and  O_2
REMARK    2  A    between atoms: O_2  and  C_3
REMARK    3  A    between atoms: C_6  and  C_7
REMARK    4  A    between atoms: C_8  and  C_9
REMARK    5  A    between atoms: C_10  and  O_11
REMARK    6  A    between atoms: O_11  and  C_12
REMARK    7  A    between atoms: C_16  and  O_17
REMARK    8  A    between atoms: O_17  and  C_18
REMARK    9  A    between atoms: C_19  and  O_20
REMARK   10  A    between atoms: O_20  and  C_21
REMARK                            x       y       z     vdW  Elec       q    Type
REMARK                         _______ _______ _______ _____ _____    ______ ____
ROOT
ATOM      1  C   UNL     1       4.126   6.458  17.904  0.00  0.00    +0.000 C 
ATOM      2  C   UNL     1       2.797   6.653  17.933  0.00  0.00    +0.000 C 
ENDROOT
BRANCH   1   6
ATOM      3  C   UNL     1       6.048   4.279  14.765  0.00  0.00    +0.000 A 
ATOM      4  C   UNL     1       5.846   5.656  14.665  0.00  0.00    +0.000 A 
ATOM      5  C   UNL     1       5.212   6.356  15.695  0.00  0.00    +0.000 A 
ATOM      6  C   UNL     1       4.775   5.684  16.840  0.00  0.00    +0.000 A 
ATOM      7  C   UNL     1       4.974   4.291  16.951  0.00  0.00    +0.000 A 
ATOM      8  C   UNL     1       5.607   3.602  15.906  0.00  0.00    +0.000 A 
BRANCH   3  10
ATOM      9  C   UNL     1       5.880   3.417  12.552  0.00  0.00    +0.000 C 
ATOM     10  O   UNL     1       6.680   3.711  13.690  0.00  0.00    +0.000 OA
ENDBRANCH   3  10
BRANCH   7  11
ATOM     11  O   UNL     1       4.519   3.700  18.104  0.00  0.00    +0.000 OA
ATOM     12  C   UNL     1       3.459   2.761  17.986  0.00  0.00    +0.000 C 
ENDBRANCH   7  11
ENDBRANCH   1   6
BRANCH   2  13
ATOM     13  C   UNL     1       2.077   7.438  18.962  0.00  0.00    +0.000 A 
ATOM     14  C   UNL     1       1.819   6.892  20.249  0.00  0.00    +0.000 A 
ATOM     15  C   UNL     1       1.251   7.680  21.260  0.00  0.00    +0.000 A 
ATOM     16  C   UNL     1       0.917   9.008  21.018  0.00  0.00    +0.000 A 
ATOM     17  C   UNL     1       1.164   9.559  19.767  0.00  0.00    +0.000 A 
ATOM     18  C   UNL     1       1.739   8.794  18.741  0.00  0.00    +0.000 A 
BRANCH  14  19
ATOM     19  O   UNL     1       2.229   5.598  20.491  0.00  0.00    +0.000 OA
ATOM     20  C   UNL     1       1.209   4.605  20.532  0.00  0.00    +0.000 C 
ENDBRANCH  14  19
BRANCH  18  21
ATOM     21  O   UNL     1       2.022   9.543  17.624  0.00  0.00    +0.000 OA
ATOM     22  C   UNL     1       2.232  10.937  17.817  0.00  0.00    +0.000 C 
ENDBRANCH  18  21
ENDBRANCH   2  13
TORSDOF 6
ENDMDL
MODEL 8
REMARK VINA RESULT:      -6.5      2.218      7.244
REMARK  Name = 
REMARK  10 active torsions:
REMARK  status: ('A' for Active; 'I' for Inactive)
REMARK    1  A    between atoms: C_1  and  O_2
REMARK    2  A    between atoms: O_2  and  C_3
REMARK    3  A    between atoms: C_6  and  C_7
REMARK    4  A    between atoms: C_8  and  C_9
REMARK    5  A    between atoms: C_10  and  O_11
REMARK    6  A    between atoms: O_11  and  C_12
REMARK    7  A    between atoms: C_16  and  O_17
REMARK    8  A    between atoms: O_17  and  C_18
REMARK    9  A    between atoms: C_19  and  O_20
REMARK   10  A    between atoms: O_20  and  C_21
REMARK                            x       y       z     vdW  Elec       q    Type
REMARK                         _______ _______ _______ _____ _____    ______ ____
ROOT
ATOM      1  C   UNL     1       5.000   4.506  17.321  0.00  0.00    +0.000 C 
ATOM      2  C   UNL     1       3.659   4.557  17.383  0.00  0.00    +0.000 C 
ENDROOT
BRANCH   1   6
ATOM      3  C   UNL     1       7.028   4.699  13.560  0.00  0.00    +0.000 A 
ATOM      4  C   UNL     1       5.769   4.108  13.668  0.00  0.00    +0.000 A 
ATOM      5  C   UNL     1       5.119   4.046  14.904  0.00  0.00    +0.000 A 
ATOM      6  C   UNL     1       5.723   4.579  16.045  0.00  0.00    +0.000 A 
ATOM      7  C   UNL     1       6.996   5.180  15.947  0.00  0.00    +0.000 A 
ATOM      8  C   UNL     1       7.638   5.229  14.701  0.00  0.00    +0.000 A 
BRANCH   3  10
ATOM      9  C   UNL     1       7.200   3.614  11.448  0.00  0.00    +0.000 C 
ATOM     10  O   UNL     1       7.558   4.696  12.296  0.00  0.00    +0.000 OA
ENDBRANCH   3  10
BRANCH   7  11
ATOM     11  O   UNL     1       7.525   5.682  17.111  0.00  0.00    +0.000 OA
ATOM     12  C   UNL     1       7.420   7.084  17.327  0.00  0.00    +0.000 C 
ENDBRANCH   7  11
ENDBRANCH   1   6
BRANCH   2  13
ATOM     13  C   UNL     1       2.864   4.509  18.632  0.00  0.00    +0.000 A 
ATOM     14  C   UNL     1       2.597   5.693  19.371  0.00  0.00    +0.000 A 
ATOM     15  C   UNL     1       1.741   5.665  20.482  0.00  0.00    +0.000 A 
ATOM     16  C   UNL     1       1.149   4.474  20.888  0.00  0.00    +0.000 A 
ATOM     17  C   UNL     1       1.398   3.308  20.176  0.00  0.00    +0.000 A 
ATOM     18  C   UNL     1       2.244   3.311  19.056  0.00  0.00    +0.000 A 
BRANCH  14  19
ATOM     19  O   UNL     1       3.131   6.876  18.905  0.00  0.00    +0.000 OA
ATOM     20  C   UNL     1       2.217   7.801  18.327  0.00  0.00    +0.000 C 
ENDBRANCH  14  19
BRANCH  18  21
ATOM     21  O   UNL     1       2.265   2.097  18.412  0.00  0.00    +0.000 OA
ATOM     22  C   UNL     1       3.459   1.330  18.519  0.00  0.00    +0.000 C 
ENDBRANCH  18  21
ENDBRANCH   2  13
TORSDOF 6
ENDMDL
MODEL 9
REMARK VINA RESULT:      -6.4      1.681      3.942
REMARK  Name = 
REMARK  10 active torsions:
REMARK  status: ('A' for Active; 'I' for Inactive)
REMARK    1  A    between atoms: C_1  and  O_2
REMARK    2  A    between atoms: O_2  and  C_3
REMARK    3  A    between atoms: C_6  and  C_7
REMARK    4  A    between atoms: C_8  and  C_9
REMARK    5  A    between atoms: C_10  and  O_11
REMARK    6  A    between atoms: O_11  and  C_12
REMARK    7  A    between atoms: C_16  and  O_17
REMARK    8  A    between atoms: O_17  and  C_18
REMARK    9  A    between atoms: C_19  and  O_20
REMARK   10  A    between atoms: O_20  and  C_21
REMARK                            x       y       z     vdW  Elec       q    Type
REMARK                         _______ _______ _______ _____ _____    ______ ____
ROOT
ATOM      1  C   UNL     1       1.940   7.705  19.125  0.00  0.00    +0.000 C 
ATOM      2  C   UNL     1       2.320   6.457  19.445  0.00  0.00    +0.000 C 
ENDROOT
BRANCH   1   6
ATOM      3  C   UNL     1       0.167  10.285  22.040  0.00  0.00    +0.000 A 
ATOM      4  C   UNL     1       0.954   9.199  22.425  0.00  0.00    +0.000 A 
ATOM      5  C   UNL     1       1.523   8.360  21.463  0.00  0.00    +0.000 A 
ATOM      6  C   UNL     1       1.312   8.602  20.103  0.00  0.00    +0.000 A 
ATOM      7  C   UNL     1       0.518   9.697  19.703  0.00  0.00    +0.000 A 
ATOM      8  C   UNL     1      -0.051  10.527  20.681  0.00  0.00    +0.000 A 
BRANCH   3  10
ATOM      9  C   UNL     1      -1.615  11.615  22.891  0.00  0.00    +0.000 C 
ATOM     10  O   UNL     1      -0.333  11.029  23.077  0.00  0.00    +0.000 OA
ENDBRANCH   3  10
BRANCH   7  11
ATOM     11  O   UNL     1       0.357   9.873  18.350  0.00  0.00    +0.000 OA
ATOM     12  C   UNL     1      -0.959  10.118  17.873  0.00  0.00    +0.000 C 
ENDBRANCH   7  11
ENDBRANCH   1   6
BRANCH   2  13
ATOM     13  C   UNL     1       2.976   5.505  18.519  0.00  0.00    +0.000 A 
ATOM     14  C   UNL     1       2.382   4.249  18.223  0.00  0.00    +0.000 A 
ATOM     15  C   UNL     1       2.939   3.404  17.252  0.00  0.00    +0.000 A 
ATOM     16  C   UNL     1       4.091   3.777  16.569  0.00  0.00    +0.000 A 
ATOM     17  C   UNL     1       4.684   5.003  16.843  0.00  0.00    +0.000 A 
ATOM     18  C   UNL     1       4.142   5.869  17.804  0.00  0.00    +0.000 A 
BRANCH  14  19
ATOM     19  O   UNL     1       1.197   3.933  18.856  0.00  0.00    +0.000 OA
ATOM     20  C   UNL     1       1.235   2.840  19.767  0.00  0.00    +0.000 C 
ENDBRANCH  14  19
BRANCH  18  21
ATOM     21  O   UNL     1       4.789   7.081  17.844  0.00  0.00    +0.000 OA
ATOM     22  C   UNL     1       6.077   7.144  17.242  0.00  0.00    +0.000 C 
ENDBRANCH  18  21
ENDBRANCH   2  13
TORSDOF 6
ENDMDL
