MODEL 1
REMARK VINA RESULT:      -7.2      0.000      0.000
REMARK  Name = 
REMARK  6 active torsions:
REMARK  status: ('A' for Active; 'I' for Inactive)
REMARK    1  A    between atoms: C_1  and  C_2
REMARK    2  A    between atoms: C_2  and  C_4
REMARK    3  A    between atoms: C_6  and  O_7
REMARK    4  A    between atoms: O_7  and  C_8
REMARK    5  A    between atoms: C_8  and  C_9
REMARK    6  A    between atoms: C_22  and  C_23
REMARK                            x       y       z     vdW  Elec       q    Type
REMARK                         _______ _______ _______ _____ _____    ______ ____
ROOT
ATOM      1  C   UNL     1       2.577   4.692  20.235  0.00  0.00    +0.000 A 
ATOM      2  C   UNL     1       1.957   5.988  19.999  0.00  0.00    +0.000 A 
ATOM      3  C   UNL     1       2.486   6.918  19.184  0.00  0.00    +0.000 A 
ATOM      4  C   UNL     1       3.749   6.567  18.428  0.00  0.00    +0.000 A 
ATOM      5  O   UNL     1       4.343   7.370  17.712  0.00  0.00    +0.000 OA
ATOM      6  N   UNL     1       4.184   5.271  18.606  0.00  0.00    +0.000 N 
ATOM      7  C   UNL     1       3.662   4.371  19.507  0.00  0.00    +0.000 A 
ATOM      8  C   UNL     1       4.502   3.122  19.503  0.00  0.00    +0.000 C 
ATOM      9  C   UNL     1       5.680   3.452  18.578  0.00  0.00    +0.000 C 
ATOM     10  C   UNL     1       5.266   4.707  17.814  0.00  0.00    +0.000 C 
ENDROOT
BRANCH  10  11
ATOM     11  C   UNL     1       4.768   4.330  16.401  0.00  0.00    +0.000 C 
ATOM     12  O   UNL     1       3.603   3.992  16.190  0.00  0.00    +0.000 OA
ATOM     13  N   UNL     1       5.713   4.294  15.393  0.00  0.00    +0.000 N 
ATOM     14  C   UNL     1       7.103   4.696  15.459  0.00  0.00    +0.000 C 
ATOM     15  C   UNL     1       7.428   5.099  14.035  0.00  0.00    +0.000 C 
ATOM     16  C   UNL     1       6.550   4.191  13.176  0.00  0.00    +0.000 C 
ATOM     17  C   UNL     1       5.369   3.820  14.066  0.00  0.00    +0.000 C 
ENDBRANCH  10  11
BRANCH   1  19
ATOM     18  C   UNL     1       0.874   2.856  20.867  0.00  0.00    +0.000 C 
ATOM     19  C   UNL     1       2.037   3.732  21.260  0.00  0.00    +0.000 C 
ATOM     20  O   UNL     1       2.508   3.663  22.394  0.00  0.00    +0.000 OA
ENDBRANCH   1  19
BRANCH   3  21
ATOM     21  O   UNL     1       1.821   8.127  19.040  0.00  0.00    +0.000 OA
BRANCH  21  22
ATOM     22  C   UNL     1       1.430   8.766  20.255  0.00  0.00    +0.000 C 
BRANCH  22  23
ATOM     23  C   UNL     1       0.340   9.763  19.937  0.00  0.00    +0.000 A 
ATOM     24  C   UNL     1      -0.194  10.582  20.945  0.00  0.00    +0.000 A 
ATOM     25  C   UNL     1      -1.193  11.508  20.644  0.00  0.00    +0.000 A 
ATOM     26  C   UNL     1      -1.658  11.613  19.339  0.00  0.00    +0.000 A 
ATOM     27  F   UNL     1      -2.614  12.509  19.051  0.00  0.00    +0.000 F 
ATOM     28  C   UNL     1      -1.142  10.817  18.328  0.00  0.00    +0.000 A 
ATOM     29  C   UNL     1      -0.146   9.885  18.626  0.00  0.00    +0.000 A 
ENDBRANCH  22  23
ENDBRANCH  21  22
ENDBRANCH   3  21
TORSDOF 5
ENDMDL
MODEL 2
REMARK VINA RESULT:      -7.2      8.115     11.378
REMARK  Name = 
REMARK  6 active torsions:
REMARK  status: ('A' for Active; 'I' for Inactive)
REMARK    1  A    between atoms: C_1  and  C_2
REMARK    2  A    between atoms: C_2  and  C_4
REMARK    3  A    between atoms: C_6  and  O_7
REMARK    4  A    between atoms: O_7  and  C_8
REMARK    5  A    between atoms: C_8  and  C_9
REMARK    6  A    between atoms: C_22  and  C_23
REMARK                            x       y       z     vdW  Elec       q    Type
REMARK                         _______ _______ _______ _____ _____    ______ ____
ROOT
ATOM      1  C   UNL     1      10.434  12.992  18.501  0.00  0.00    +0.000 A 
ATOM      2  C   UNL     1      10.020  11.612  18.290  0.00  0.00    +0.000 A 
ATOM      3  C   UNL     1       9.575  10.819  19.281  0.00  0.00    +0.000 A 
ATOM      4  C   UNL     1       9.437  11.417  20.665  0.00  0.00    +0.000 A 
ATOM      5  O   UNL     1       9.102  10.758  21.645  0.00  0.00    +0.000 OA
ATOM      6  N   UNL     1       9.717  12.766  20.739  0.00  0.00    +0.000 N 
ATOM      7  C   UNL     1      10.244  13.528  19.721  0.00  0.00    +0.000 A 
ATOM      8  C   UNL     1      10.542  14.908  20.239  0.00  0.00    +0.000 C 
ATOM      9  C   UNL     1      10.251  14.827  21.744  0.00  0.00    +0.000 C 
ATOM     10  C   UNL     1       9.454  13.540  21.940  0.00  0.00    +0.000 C 
ENDROOT
BRANCH  10  11
ATOM     11  C   UNL     1       7.948  13.861  22.064  0.00  0.00    +0.000 C 
ATOM     12  O   UNL     1       7.288  14.269  21.107  0.00  0.00    +0.000 OA
ATOM     13  N   UNL     1       7.388  13.764  23.324  0.00  0.00    +0.000 N 
ATOM     14  C   UNL     1       8.003  13.267  24.537  0.00  0.00    +0.000 C 
ATOM     15  C   UNL     1       6.832  12.750  25.348  0.00  0.00    +0.000 C 
ATOM     16  C   UNL     1       5.672  13.664  24.958  0.00  0.00    +0.000 C 
ATOM     17  C   UNL     1       6.018  14.176  23.565  0.00  0.00    +0.000 C 
ENDBRANCH  10  11
BRANCH   1  19
ATOM     18  C   UNL     1      12.329  13.291  16.771  0.00  0.00    +0.000 C 
ATOM     19  C   UNL     1      11.060  13.806  17.402  0.00  0.00    +0.000 C 
ATOM     20  O   UNL     1      10.571  14.872  17.027  0.00  0.00    +0.000 OA
ENDBRANCH   1  19
BRANCH   3  21
ATOM     21  O   UNL     1       9.220   9.513  18.975  0.00  0.00    +0.000 OA
BRANCH  21  22
ATOM     22  C   UNL     1       8.202   9.367  17.985  0.00  0.00    +0.000 C 
BRANCH  22  23
ATOM     23  C   UNL     1       7.798   7.912  17.932  0.00  0.00    +0.000 A 
ATOM     24  C   UNL     1       8.247   7.010  18.910  0.00  0.00    +0.000 A 
ATOM     25  C   UNL     1       7.862   5.670  18.862  0.00  0.00    +0.000 A 
ATOM     26  C   UNL     1       7.033   5.233  17.836  0.00  0.00    +0.000 A 
ATOM     27  F   UNL     1       6.659   3.945  17.796  0.00  0.00    +0.000 F 
ATOM     28  C   UNL     1       6.575   6.106  16.862  0.00  0.00    +0.000 A 
ATOM     29  C   UNL     1       6.962   7.447  16.905  0.00  0.00    +0.000 A 
ENDBRANCH  22  23
ENDBRANCH  21  22
ENDBRANCH   3  21
TORSDOF 5
ENDMDL
MODEL 3
REMARK VINA RESULT:      -7.2      8.090     11.306
REMARK  Name = 
REMARK  6 active torsions:
REMARK  status: ('A' for Active; 'I' for Inactive)
REMARK    1  A    between atoms: C_1  and  C_2
REMARK    2  A    between atoms: C_2  and  C_4
REMARK    3  A    between atoms: C_6  and  O_7
REMARK    4  A    between atoms: O_7  and  C_8
REMARK    5  A    between atoms: C_8  and  C_9
REMARK    6  A    between atoms: C_22  and  C_23
REMARK                            x       y       z     vdW  Elec       q    Type
REMARK                         _______ _______ _______ _____ _____    ______ ____
ROOT
ATOM      1  C   UNL     1      10.628  12.746  18.387  0.00  0.00    +0.000 A 
ATOM      2  C   UNL     1      10.113  11.393  18.235  0.00  0.00    +0.000 A 
ATOM      3  C   UNL     1       9.575  10.694  19.250  0.00  0.00    +0.000 A 
ATOM      4  C   UNL     1       9.439  11.378  20.593  0.00  0.00    +0.000 A 
ATOM      5  O   UNL     1       9.022  10.803  21.595  0.00  0.00    +0.000 OA
ATOM      6  N   UNL     1       9.822  12.703  20.605  0.00  0.00    +0.000 N 
ATOM      7  C   UNL     1      10.441  13.363  19.567  0.00  0.00    +0.000 A 
ATOM      8  C   UNL     1      10.830  14.744  20.021  0.00  0.00    +0.000 C 
ATOM      9  C   UNL     1      10.485  14.770  21.516  0.00  0.00    +0.000 C 
ATOM     10  C   UNL     1       9.583  13.563  21.752  0.00  0.00    +0.000 C 
ENDROOT
BRANCH  10  11
ATOM     11  C   UNL     1       8.104  14.005  21.803  0.00  0.00    +0.000 C 
ATOM     12  O   UNL     1       7.545  14.520  20.834  0.00  0.00    +0.000 OA
ATOM     13  N   UNL     1       7.455  13.889  23.018  0.00  0.00    +0.000 N 
ATOM     14  C   UNL     1       7.946  13.276  24.235  0.00  0.00    +0.000 C 
ATOM     15  C   UNL     1       6.686  12.819  24.940  0.00  0.00    +0.000 C 
ATOM     16  C   UNL     1       5.633  13.849  24.535  0.00  0.00    +0.000 C 
ATOM     17  C   UNL     1       6.112  14.404  23.199  0.00  0.00    +0.000 C 
ENDBRANCH  10  11
BRANCH   1  19
ATOM     18  C   UNL     1      10.830  14.786  16.814  0.00  0.00    +0.000 C 
ATOM     19  C   UNL     1      11.352  13.446  17.268  0.00  0.00    +0.000 C 
ATOM     20  O   UNL     1      12.333  12.946  16.720  0.00  0.00    +0.000 OA
ENDBRANCH   1  19
BRANCH   3  21
ATOM     21  O   UNL     1       9.127   9.404  19.002  0.00  0.00    +0.000 OA
BRANCH  21  22
ATOM     22  C   UNL     1       8.289   9.252  17.857  0.00  0.00    +0.000 C 
BRANCH  22  23
ATOM     23  C   UNL     1       7.703   7.858  17.880  0.00  0.00    +0.000 A 
ATOM     24  C   UNL     1       6.694   7.493  16.975  0.00  0.00    +0.000 A 
ATOM     25  C   UNL     1       6.165   6.202  16.994  0.00  0.00    +0.000 A 
ATOM     26  C   UNL     1       6.643   5.281  17.917  0.00  0.00    +0.000 A 
ATOM     27  F   UNL     1       6.137   4.039  17.929  0.00  0.00    +0.000 F 
ATOM     28  C   UNL     1       7.641   5.619  18.818  0.00  0.00    +0.000 A 
ATOM     29  C   UNL     1       8.170   6.911  18.805  0.00  0.00    +0.000 A 
ENDBRANCH  22  23
ENDBRANCH  21  22
ENDBRANCH   3  21
TORSDOF 5
ENDMDL
MODEL 4
REMARK VINA RESULT:      -7.1      1.203      1.636
REMARK  Name = 
REMARK  6 active torsions:
REMARK  status: ('A' for Active; 'I' for Inactive)
REMARK    1  A    between atoms: C_1  and  C_2
REMARK    2  A    between atoms: C_2  and  C_4
REMARK    3  A    between atoms: C_6  and  O_7
REMARK    4  A    between atoms: O_7  and  C_8
REMARK    5  A    between atoms: C_8  and  C_9
REMARK    6  A    between atoms: C_22  and  C_23
REMARK                            x       y       z     vdW  Elec       q    Type
REMARK                         _______ _______ _______ _____ _____    ______ ____
ROOT
ATOM      1  C   UNL     1       2.565   4.772  20.186  0.00  0.00    +0.000 A 
ATOM      2  C   UNL     1       1.808   5.979  19.886  0.00  0.00    +0.000 A 
ATOM      3  C   UNL     1       2.233   6.917  19.021  0.00  0.00    +0.000 A 
ATOM      4  C   UNL     1       3.527   6.666  18.277  0.00  0.00    +0.000 A 
ATOM      5  O   UNL     1       4.030   7.489  17.518  0.00  0.00    +0.000 OA
ATOM      6  N   UNL     1       4.100   5.435  18.520  0.00  0.00    +0.000 N 
ATOM      7  C   UNL     1       3.678   4.533  19.470  0.00  0.00    +0.000 A 
ATOM      8  C   UNL     1       4.648   3.384  19.526  0.00  0.00    +0.000 C 
ATOM      9  C   UNL     1       5.784   3.790  18.578  0.00  0.00    +0.000 C 
ATOM     10  C   UNL     1       5.236   4.951  17.753  0.00  0.00    +0.000 C 
ENDROOT
BRANCH  10  11
ATOM     11  C   UNL     1       4.783   4.450  16.365  0.00  0.00    +0.000 C 
ATOM     12  O   UNL     1       3.640   4.037  16.162  0.00  0.00    +0.000 OA
ATOM     13  N   UNL     1       5.745   4.392  15.374  0.00  0.00    +0.000 N 
ATOM     14  C   UNL     1       7.111   4.869  15.429  0.00  0.00    +0.000 C 
ATOM     15  C   UNL     1       7.439   5.187  13.984  0.00  0.00    +0.000 C 
ATOM     16  C   UNL     1       6.624   4.176  13.182  0.00  0.00    +0.000 C 
ATOM     17  C   UNL     1       5.449   3.807  14.080  0.00  0.00    +0.000 C 
ENDBRANCH  10  11
BRANCH   1  19
ATOM     18  C   UNL     1       1.020   2.846  20.944  0.00  0.00    +0.000 C 
ATOM     19  C   UNL     1       2.131   3.814  21.262  0.00  0.00    +0.000 C 
ATOM     20  O   UNL     1       2.647   3.819  22.379  0.00  0.00    +0.000 OA
ENDBRANCH   1  19
BRANCH   3  21
ATOM     21  O   UNL     1       1.441   8.038  18.818  0.00  0.00    +0.000 OA
BRANCH  21  22
ATOM     22  C   UNL     1       1.926   9.249  19.396  0.00  0.00    +0.000 C 
BRANCH  22  23
ATOM     23  C   UNL     1       0.988   9.652  20.511  0.00  0.00    +0.000 A 
ATOM     24  C   UNL     1       0.007  10.634  20.299  0.00  0.00    +0.000 A 
ATOM     25  C   UNL     1      -0.863  10.994  21.328  0.00  0.00    +0.000 A 
ATOM     26  C   UNL     1      -0.750  10.375  22.567  0.00  0.00    +0.000 A 
ATOM     27  F   UNL     1      -1.591  10.718  23.553  0.00  0.00    +0.000 F 
ATOM     28  C   UNL     1       0.209   9.401  22.797  0.00  0.00    +0.000 A 
ATOM     29  C   UNL     1       1.085   9.041  21.771  0.00  0.00    +0.000 A 
ENDBRANCH  22  23
ENDBRANCH  21  22
ENDBRANCH   3  21
TORSDOF 5
ENDMDL
MODEL 5
REMARK VINA RESULT:      -7.1      4.953     10.656
REMARK  Name = 
REMARK  6 active torsions:
REMARK  status: ('A' for Active; 'I' for Inactive)
REMARK    1  A    between atoms: C_1  and  C_2
REMARK    2  A    between atoms: C_2  and  C_4
REMARK    3  A    between atoms: C_6  and  O_7
REMARK    4  A    between atoms: O_7  and  C_8
REMARK    5  A    between atoms: C_8  and  C_9
REMARK    6  A    between atoms: C_22  and  C_23
REMARK                            x       y       z     vdW  Elec       q    Type
REMARK                         _______ _______ _______ _____ _____    ______ ____
ROOT
ATOM      1  C   UNL     1       1.249  12.566  20.532  0.00  0.00    +0.000 A 
ATOM      2  C   UNL     1       1.094  11.123  20.425  0.00  0.00    +0.000 A 
ATOM      3  C   UNL     1       0.289  10.409  21.233  0.00  0.00    +0.000 A 
ATOM      4  C   UNL     1      -0.542  11.157  22.253  0.00  0.00    +0.000 A 
ATOM      5  O   UNL     1      -1.256  10.591  23.076  0.00  0.00    +0.000 OA
ATOM      6  N   UNL     1      -0.435  12.531  22.185  0.00  0.00    +0.000 N 
ATOM      7  C   UNL     1       0.456  13.223  21.398  0.00  0.00    +0.000 A 
ATOM      8  C   UNL     1       0.363  14.690  21.717  0.00  0.00    +0.000 C 
ATOM      9  C   UNL     1      -0.608  14.766  22.903  0.00  0.00    +0.000 C 
ATOM     10  C   UNL     1      -1.301  13.408  22.956  0.00  0.00    +0.000 C 
ENDROOT
BRANCH  10  11
ATOM     11  C   UNL     1      -2.701  13.499  22.308  0.00  0.00    +0.000 C 
ATOM     12  O   UNL     1      -2.852  13.806  21.125  0.00  0.00    +0.000 OA
ATOM     13  N   UNL     1      -3.790  13.317  23.140  0.00  0.00    +0.000 N 
ATOM     14  C   UNL     1      -3.791  12.916  24.532  0.00  0.00    +0.000 C 
ATOM     15  C   UNL     1      -5.129  12.228  24.706  0.00  0.00    +0.000 C 
ATOM     16  C   UNL     1      -6.057  12.958  23.737  0.00  0.00    +0.000 C 
ATOM     17  C   UNL     1      -5.141  13.519  22.654  0.00  0.00    +0.000 C 
ENDBRANCH  10  11
BRANCH   1  19
ATOM     18  C   UNL     1       2.033  13.418  18.222  0.00  0.00    +0.000 C 
ATOM     19  C   UNL     1       2.263  13.315  19.709  0.00  0.00    +0.000 C 
ATOM     20  O   UNL     1       3.263  13.821  20.217  0.00  0.00    +0.000 OA
ENDBRANCH   1  19
BRANCH   3  21
ATOM     21  O   UNL     1       0.225   9.034  21.056  0.00  0.00    +0.000 OA
BRANCH  21  22
ATOM     22  C   UNL     1       1.369   8.301  21.492  0.00  0.00    +0.000 C 
BRANCH  22  23
ATOM     23  C   UNL     1       1.760   7.336  20.396  0.00  0.00    +0.000 A 
ATOM     24  C   UNL     1       1.695   5.950  20.609  0.00  0.00    +0.000 A 
ATOM     25  C   UNL     1       2.047   5.064  19.590  0.00  0.00    +0.000 A 
ATOM     26  C   UNL     1       2.466   5.564  18.364  0.00  0.00    +0.000 A 
ATOM     27  F   UNL     1       2.799   4.711  17.384  0.00  0.00    +0.000 F 
ATOM     28  C   UNL     1       2.536   6.929  18.131  0.00  0.00    +0.000 A 
ATOM     29  C   UNL     1       2.188   7.819  19.150  0.00  0.00    +0.000 A 
ENDBRANCH  22  23
ENDBRANCH  21  22
ENDBRANCH   3  21
TORSDOF 5
ENDMDL
MODEL 6
REMARK VINA RESULT:      -7.1      4.555      8.569
REMARK  Name = 
REMARK  6 active torsions:
REMARK  status: ('A' for Active; 'I' for Inactive)
REMARK    1  A    between atoms: C_1  and  C_2
REMARK    2  A    between atoms: C_2  and  C_4
REMARK    3  A    between atoms: C_6  and  O_7
REMARK    4  A    between atoms: O_7  and  C_8
REMARK    5  A    between atoms: C_8  and  C_9
REMARK    6  A    between atoms: C_22  and  C_23
REMARK                            x       y       z     vdW  Elec       q    Type
REMARK                         _______ _______ _______ _____ _____    ______ ____
ROOT
ATOM      1  C   UNL     1       0.525   9.593  20.931  0.00  0.00    +0.000 A 
ATOM      2  C   UNL     1       1.332   8.772  20.040  0.00  0.00    +0.000 A 
ATOM      3  C   UNL     1       1.943   9.259  18.945  0.00  0.00    +0.000 A 
ATOM      4  C   UNL     1       1.838  10.744  18.672  0.00  0.00    +0.000 A 
ATOM      5  O   UNL     1       2.305  11.271  17.665  0.00  0.00    +0.000 OA
ATOM      6  N   UNL     1       1.174  11.462  19.644  0.00  0.00    +0.000 N 
ATOM      7  C   UNL     1       0.495  10.920  20.711  0.00  0.00    +0.000 A 
ATOM      8  C   UNL     1      -0.216  12.018  21.455  0.00  0.00    +0.000 C 
ATOM      9  C   UNL     1       0.016  13.274  20.604  0.00  0.00    +0.000 C 
ATOM     10  C   UNL     1       1.144  12.915  19.640  0.00  0.00    +0.000 C 
ENDROOT
BRANCH  10  11
ATOM     11  C   UNL     1       2.483  13.490  20.152  0.00  0.00    +0.000 C 
ATOM     12  O   UNL     1       2.959  13.164  21.240  0.00  0.00    +0.000 OA
ATOM     13  N   UNL     1       3.085  14.465  19.377  0.00  0.00    +0.000 N 
ATOM     14  C   UNL     1       2.686  14.932  18.066  0.00  0.00    +0.000 C 
ATOM     15  C   UNL     1       3.983  15.415  17.447  0.00  0.00    +0.000 C 
ATOM     16  C   UNL     1       4.797  15.927  18.634  0.00  0.00    +0.000 C 
ATOM     17  C   UNL     1       4.270  15.160  19.841  0.00  0.00    +0.000 C 
ENDBRANCH  10  11
BRANCH   1  19
ATOM     18  C   UNL     1      -0.028   9.531  23.454  0.00  0.00    +0.000 C 
ATOM     19  C   UNL     1      -0.260   8.992  22.065  0.00  0.00    +0.000 C 
ATOM     20  O   UNL     1      -1.061   8.075  21.883  0.00  0.00    +0.000 OA
ENDBRANCH   1  19
BRANCH   3  21
ATOM     21  O   UNL     1       2.678   8.387  18.155  0.00  0.00    +0.000 OA
BRANCH  21  22
ATOM     22  C   UNL     1       2.674   7.022  18.572  0.00  0.00    +0.000 C 
BRANCH  22  23
ATOM     23  C   UNL     1       3.597   6.245  17.662  0.00  0.00    +0.000 A 
ATOM     24  C   UNL     1       3.517   4.845  17.592  0.00  0.00    +0.000 A 
ATOM     25  C   UNL     1       4.364   4.134  16.742  0.00  0.00    +0.000 A 
ATOM     26  C   UNL     1       5.290   4.821  15.966  0.00  0.00    +0.000 A 
ATOM     27  F   UNL     1       6.099   4.135  15.145  0.00  0.00    +0.000 F 
ATOM     28  C   UNL     1       5.383   6.203  16.017  0.00  0.00    +0.000 A 
ATOM     29  C   UNL     1       4.540   6.918  16.870  0.00  0.00    +0.000 A 
ENDBRANCH  22  23
ENDBRANCH  21  22
ENDBRANCH   3  21
TORSDOF 5
ENDMDL
MODEL 7
REMARK VINA RESULT:      -7.0      1.176      1.438
REMARK  Name = 
REMARK  6 active torsions:
REMARK  status: ('A' for Active; 'I' for Inactive)
REMARK    1  A    between atoms: C_1  and  C_2
REMARK    2  A    between atoms: C_2  and  C_4
REMARK    3  A    between atoms: C_6  and  O_7
REMARK    4  A    between atoms: O_7  and  C_8
REMARK    5  A    between atoms: C_8  and  C_9
REMARK    6  A    between atoms: C_22  and  C_23
REMARK                            x       y       z     vdW  Elec       q    Type
REMARK                         _______ _______ _______ _____ _____    ______ ____
ROOT
ATOM      1  C   UNL     1       2.664   5.552  19.329  0.00  0.00    +0.000 A 
ATOM      2  C   UNL     1       2.130   6.790  18.779  0.00  0.00    +0.000 A 
ATOM      3  C   UNL     1       2.766   7.511  17.839  0.00  0.00    +0.000 A 
ATOM      4  C   UNL     1       4.066   6.968  17.283  0.00  0.00    +0.000 A 
ATOM      5  O   UNL     1       4.752   7.584  16.472  0.00  0.00    +0.000 OA
ATOM      6  N   UNL     1       4.419   5.724  17.761  0.00  0.00    +0.000 N 
ATOM      7  C   UNL     1       3.784   5.050  18.779  0.00  0.00    +0.000 A 
ATOM      8  C   UNL     1       4.557   3.801  19.105  0.00  0.00    +0.000 C 
ATOM      9  C   UNL     1       5.819   3.891  18.236  0.00  0.00    +0.000 C 
ATOM     10  C   UNL     1       5.529   4.972  17.199  0.00  0.00    +0.000 C 
ENDROOT
BRANCH  10  11
ATOM     11  C   UNL     1       5.125   4.325  15.856  0.00  0.00    +0.000 C 
ATOM     12  O   UNL     1       4.046   3.748  15.709  0.00  0.00    +0.000 OA
ATOM     13  N   UNL     1       6.068   4.336  14.845  0.00  0.00    +0.000 N 
ATOM     14  C   UNL     1       7.355   4.998  14.835  0.00  0.00    +0.000 C 
ATOM     15  C   UNL     1       7.611   5.265  13.365  0.00  0.00    +0.000 C 
ATOM     16  C   UNL     1       6.929   4.101  12.648  0.00  0.00    +0.000 C 
ATOM     17  C   UNL     1       5.832   3.634  13.597  0.00  0.00    +0.000 C 
ENDBRANCH  10  11
BRANCH   1  19
ATOM     18  C   UNL     1       0.841   3.927  20.173  0.00  0.00    +0.000 C 
ATOM     19  C   UNL     1       1.997   4.846  20.478  0.00  0.00    +0.000 C 
ATOM     20  O   UNL     1       2.363   5.014  21.641  0.00  0.00    +0.000 OA
ENDBRANCH   1  19
BRANCH   3  21
ATOM     21  O   UNL     1       2.176   8.685  17.393  0.00  0.00    +0.000 OA
BRANCH  21  22
ATOM     22  C   UNL     1       2.220   9.783  18.303  0.00  0.00    +0.000 C 
BRANCH  22  23
ATOM     23  C   UNL     1       0.831  10.370  18.406  0.00  0.00    +0.000 A 
ATOM     24  C   UNL     1      -0.276   9.677  17.891  0.00  0.00    +0.000 A 
ATOM     25  C   UNL     1      -1.557  10.219  17.999  0.00  0.00    +0.000 A 
ATOM     26  C   UNL     1      -1.729  11.452  18.617  0.00  0.00    +0.000 A 
ATOM     27  F   UNL     1      -2.962  11.968  18.724  0.00  0.00    +0.000 F 
ATOM     28  C   UNL     1      -0.650  12.152  19.134  0.00  0.00    +0.000 A 
ATOM     29  C   UNL     1       0.634  11.614  19.025  0.00  0.00    +0.000 A 
ENDBRANCH  22  23
ENDBRANCH  21  22
ENDBRANCH   3  21
TORSDOF 5
ENDMDL
MODEL 8
REMARK VINA RESULT:      -6.8      5.971     11.510
REMARK  Name = 
REMARK  6 active torsions:
REMARK  status: ('A' for Active; 'I' for Inactive)
REMARK    1  A    between atoms: C_1  and  C_2
REMARK    2  A    between atoms: C_2  and  C_4
REMARK    3  A    between atoms: C_6  and  O_7
REMARK    4  A    between atoms: O_7  and  C_8
REMARK    5  A    between atoms: C_8  and  C_9
REMARK    6  A    between atoms: C_22  and  C_23
REMARK                            x       y       z     vdW  Elec       q    Type
REMARK                         _______ _______ _______ _____ _____    ______ ____
ROOT
ATOM      1  C   UNL     1      -3.425  11.250  17.706  0.00  0.00    +0.000 A 
ATOM      2  C   UNL     1      -2.221  11.101  18.511  0.00  0.00    +0.000 A 
ATOM      3  C   UNL     1      -2.018  11.767  19.661  0.00  0.00    +0.000 A 
ATOM      4  C   UNL     1      -3.129  12.661  20.172  0.00  0.00    +0.000 A 
ATOM      5  O   UNL     1      -3.014  13.359  21.175  0.00  0.00    +0.000 OA
ATOM      6  N   UNL     1      -4.284  12.629  19.418  0.00  0.00    +0.000 N 
ATOM      7  C   UNL     1      -4.428  11.996  18.205  0.00  0.00    +0.000 A 
ATOM      8  C   UNL     1      -5.783  12.318  17.636  0.00  0.00    +0.000 C 
ATOM      9  C   UNL     1      -6.376  13.345  18.609  0.00  0.00    +0.000 C 
ATOM     10  C   UNL     1      -5.509  13.274  19.863  0.00  0.00    +0.000 C 
ENDROOT
BRANCH  10  11
ATOM     11  C   UNL     1      -6.210  12.424  20.946  0.00  0.00    +0.000 C 
ATOM     12  O   UNL     1      -6.390  11.213  20.809  0.00  0.00    +0.000 OA
ATOM     13  N   UNL     1      -6.717  13.098  22.042  0.00  0.00    +0.000 N 
ATOM     14  C   UNL     1      -6.561  14.498  22.377  0.00  0.00    +0.000 C 
ATOM     15  C   UNL     1      -6.676  14.521  23.887  0.00  0.00    +0.000 C 
ATOM     16  C   UNL     1      -7.639  13.379  24.208  0.00  0.00    +0.000 C 
ATOM     17  C   UNL     1      -7.509  12.408  23.041  0.00  0.00    +0.000 C 
ENDBRANCH  10  11
BRANCH   1  19
ATOM     18  C   UNL     1      -2.582   9.510  15.993  0.00  0.00    +0.000 C 
ATOM     19  C   UNL     1      -3.559  10.601  16.356  0.00  0.00    +0.000 C 
ATOM     20  O   UNL     1      -4.425  10.948  15.553  0.00  0.00    +0.000 OA
ENDBRANCH   1  19
BRANCH   3  21
ATOM     21  O   UNL     1      -0.828  11.563  20.344  0.00  0.00    +0.000 OA
BRANCH  21  22
ATOM     22  C   UNL     1       0.355  11.596  19.546  0.00  0.00    +0.000 C 
BRANCH  22  23
ATOM     23  C   UNL     1       0.958  10.211  19.535  0.00  0.00    +0.000 A 
ATOM     24  C   UNL     1       0.935   9.413  20.691  0.00  0.00    +0.000 A 
ATOM     25  C   UNL     1       1.485   8.131  20.671  0.00  0.00    +0.000 A 
ATOM     26  C   UNL     1       2.057   7.649  19.501  0.00  0.00    +0.000 A 
ATOM     27  F   UNL     1       2.579   6.414  19.483  0.00  0.00    +0.000 F 
ATOM     28  C   UNL     1       2.088   8.419  18.348  0.00  0.00    +0.000 A 
ATOM     29  C   UNL     1       1.543   9.704  18.364  0.00  0.00    +0.000 A 
ENDBRANCH  22  23
ENDBRANCH  21  22
ENDBRANCH   3  21
TORSDOF 5
ENDMDL
MODEL 9
REMARK VINA RESULT:      -6.8      1.439      1.606
REMARK  Name = 
REMARK  6 active torsions:
REMARK  status: ('A' for Active; 'I' for Inactive)
REMARK    1  A    between atoms: C_1  and  C_2
REMARK    2  A    between atoms: C_2  and  C_4
REMARK    3  A    between atoms: C_6  and  O_7
REMARK    4  A    between atoms: O_7  and  C_8
REMARK    5  A    between atoms: C_8  and  C_9
REMARK    6  A    between atoms: C_22  and  C_23
REMARK                            x       y       z     vdW  Elec       q    Type
REMARK                         _______ _______ _______ _____ _____    ______ ____
ROOT
ATOM      1  C   UNL     1       2.779   5.532  19.341  0.00  0.00    +0.000 A 
ATOM      2  C   UNL     1       2.336   6.827  18.847  0.00  0.00    +0.000 A 
ATOM      3  C   UNL     1       3.027   7.545  17.943  0.00  0.00    +0.000 A 
ATOM      4  C   UNL     1       4.289   6.939  17.367  0.00  0.00    +0.000 A 
ATOM      5  O   UNL     1       5.022   7.541  16.587  0.00  0.00    +0.000 OA
ATOM      6  N   UNL     1       4.553   5.652  17.788  0.00  0.00    +0.000 N 
ATOM      7  C   UNL     1       3.866   4.979  18.772  0.00  0.00    +0.000 A 
ATOM      8  C   UNL     1       4.548   3.665  19.041  0.00  0.00    +0.000 C 
ATOM      9  C   UNL     1       5.818   3.706  18.181  0.00  0.00    +0.000 C 
ATOM     10  C   UNL     1       5.611   4.851  17.194  0.00  0.00    +0.000 C 
ENDROOT
BRANCH  10  11
ATOM     11  C   UNL     1       5.170   4.296  15.822  0.00  0.00    +0.000 C 
ATOM     12  O   UNL     1       4.069   3.769  15.655  0.00  0.00    +0.000 OA
ATOM     13  N   UNL     1       6.104   4.328  14.803  0.00  0.00    +0.000 N 
ATOM     14  C   UNL     1       7.416   4.941  14.816  0.00  0.00    +0.000 C 
ATOM     15  C   UNL     1       7.669   5.280  13.361  0.00  0.00    +0.000 C 
ATOM     16  C   UNL     1       6.937   4.186  12.587  0.00  0.00    +0.000 C 
ATOM     17  C   UNL     1       5.831   3.707  13.521  0.00  0.00    +0.000 C 
ENDBRANCH  10  11
BRANCH   1  19
ATOM     18  C   UNL     1       0.844   3.999  20.103  0.00  0.00    +0.000 C 
ATOM     19  C   UNL     1       2.059   4.822  20.454  0.00  0.00    +0.000 C 
ATOM     20  O   UNL     1       2.427   4.912  21.625  0.00  0.00    +0.000 OA
ENDBRANCH   1  19
BRANCH   3  21
ATOM     21  O   UNL     1       2.523   8.776  17.550  0.00  0.00    +0.000 OA
BRANCH  21  22
ATOM     22  C   UNL     1       1.126   8.969  17.766  0.00  0.00    +0.000 C 
BRANCH  22  23
ATOM     23  C   UNL     1       0.945  10.175  18.658  0.00  0.00    +0.000 A 
ATOM     24  C   UNL     1      -0.020  10.170  19.679  0.00  0.00    +0.000 A 
ATOM     25  C   UNL     1      -0.174  11.283  20.506  0.00  0.00    +0.000 A 
ATOM     26  C   UNL     1       0.631  12.398  20.311  0.00  0.00    +0.000 A 
ATOM     27  F   UNL     1       0.485  13.464  21.112  0.00  0.00    +0.000 F 
ATOM     28  C   UNL     1       1.592  12.423  19.312  0.00  0.00    +0.000 A 
ATOM     29  C   UNL     1       1.747  11.313  18.479  0.00  0.00    +0.000 A 
ENDBRANCH  22  23
ENDBRANCH  21  22
ENDBRANCH   3  21
TORSDOF 5
ENDMDL
