MODEL 1
REMARK VINA RESULT:      -7.7      0.000      0.000
REMARK  Name = 
REMARK  4 active torsions:
REMARK  status: ('A' for Active; 'I' for Inactive)
REMARK    1  A    between atoms: C_1  and  C_2
REMARK    2  A    between atoms: N_9  and  C_10
REMARK    3  A    between atoms: N_9  and  C_11
REMARK    4  A    between atoms: C_11  and  C_12
REMARK                            x       y       z     vdW  Elec       q    Type
REMARK                         _______ _______ _______ _____ _____    ______ ____
ROOT
ATOM      1  C   UNL     1       5.310   3.434  12.902  0.00  0.00    +0.000 C 
ATOM      2  C   UNL     1       6.194   4.243  13.762  0.00  0.00    +0.000 A 
ATOM      3  N   UNL     1       7.359   4.757  13.414  0.00  0.00    +0.000 NA
ATOM      4  N   UNL     1       7.860   5.451  14.488  0.00  0.00    +0.000 NA
ATOM      5  C   UNL     1       6.990   5.346  15.467  0.00  0.00    +0.000 A 
ATOM      6  C   UNL     1       6.977   5.847  16.776  0.00  0.00    +0.000 A 
ATOM      7  C   UNL     1       5.943   5.556  17.570  0.00  0.00    +0.000 A 
ATOM      8  C   UNL     1       4.800   4.715  17.048  0.00  0.00    +0.000 A 
ATOM      9  N   UNL     1       3.709   4.419  17.876  0.00  0.00    +0.000 N 
ATOM     10  C   UNL     1       2.542   3.698  17.362  0.00  0.00    +0.000 C 
ATOM     11  N   UNL     1       4.811   4.250  15.816  0.00  0.00    +0.000 NA
ATOM     12  N   UNL     1       5.912   4.585  15.069  0.00  0.00    +0.000 N 
ENDROOT
BRANCH   9  13
ATOM     13  C   UNL     1       3.501   5.001  19.209  0.00  0.00    +0.000 C 
BRANCH  13  14
ATOM     14  C   UNL     1       2.772   6.333  19.229  0.00  0.00    +0.000 A 
ATOM     15  C   UNL     1       2.740   7.230  18.149  0.00  0.00    +0.000 A 
ATOM     16  C   UNL     1       2.087   8.468  18.258  0.00  0.00    +0.000 A 
ATOM     17  C   UNL     1       1.461   8.818  19.451  0.00  0.00    +0.000 A 
ATOM     18  F   UNL     1       0.846  10.005  19.551  0.00  0.00    +0.000 F 
ATOM     19  C   UNL     1       1.481   7.944  20.526  0.00  0.00    +0.000 A 
ATOM     20  F   UNL     1       0.886   8.276  21.678  0.00  0.00    +0.000 F 
ATOM     21  C   UNL     1       2.127   6.715  20.427  0.00  0.00    +0.000 A 
ENDBRANCH  13  14
ENDBRANCH   9  13
TORSDOF 2
ENDMDL
MODEL 2
REMARK VINA RESULT:      -7.6      4.795      8.128
REMARK  Name = 
REMARK  4 active torsions:
REMARK  status: ('A' for Active; 'I' for Inactive)
REMARK    1  A    between atoms: C_1  and  C_2
REMARK    2  A    between atoms: N_9  and  C_10
REMARK    3  A    between atoms: N_9  and  C_11
REMARK    4  A    between atoms: C_11  and  C_12
REMARK                            x       y       z     vdW  Elec       q    Type
REMARK                         _______ _______ _______ _____ _____    ______ ____
ROOT
ATOM      1  C   UNL     1      -1.723  12.030  19.319  0.00  0.00    +0.000 C 
ATOM      2  C   UNL     1      -1.296  11.458  20.610  0.00  0.00    +0.000 A 
ATOM      3  N   UNL     1      -1.755  11.799  21.800  0.00  0.00    +0.000 NA
ATOM      4  N   UNL     1      -1.118  11.029  22.742  0.00  0.00    +0.000 NA
ATOM      5  C   UNL     1      -0.285  10.236  22.107  0.00  0.00    +0.000 A 
ATOM      6  C   UNL     1       0.610   9.254  22.554  0.00  0.00    +0.000 A 
ATOM      7  C   UNL     1       1.359   8.606  21.658  0.00  0.00    +0.000 A 
ATOM      8  C   UNL     1       1.222   8.920  20.185  0.00  0.00    +0.000 A 
ATOM      9  N   UNL     1       1.999   8.233  19.244  0.00  0.00    +0.000 N 
ATOM     10  C   UNL     1       1.807   8.442  17.806  0.00  0.00    +0.000 C 
ATOM     11  N   UNL     1       0.377   9.839  19.767  0.00  0.00    +0.000 NA
ATOM     12  N   UNL     1      -0.348  10.466  20.750  0.00  0.00    +0.000 N 
ENDROOT
BRANCH   9  13
ATOM     13  C   UNL     1       2.859   7.085  19.561  0.00  0.00    +0.000 C 
BRANCH  13  14
ATOM     14  C   UNL     1       2.251   5.721  19.284  0.00  0.00    +0.000 A 
ATOM     15  C   UNL     1       2.097   5.173  17.999  0.00  0.00    +0.000 A 
ATOM     16  C   UNL     1       1.479   3.927  17.816  0.00  0.00    +0.000 A 
ATOM     17  C   UNL     1       1.008   3.218  18.918  0.00  0.00    +0.000 A 
ATOM     18  F   UNL     1       0.411   2.032  18.734  0.00  0.00    +0.000 F 
ATOM     19  C   UNL     1       1.154   3.743  20.192  0.00  0.00    +0.000 A 
ATOM     20  F   UNL     1       0.699   3.070  21.255  0.00  0.00    +0.000 F 
ATOM     21  C   UNL     1       1.765   4.978  20.383  0.00  0.00    +0.000 A 
ENDBRANCH  13  14
ENDBRANCH   9  13
TORSDOF 2
ENDMDL
MODEL 3
REMARK VINA RESULT:      -7.6      0.683      1.472
REMARK  Name = 
REMARK  4 active torsions:
REMARK  status: ('A' for Active; 'I' for Inactive)
REMARK    1  A    between atoms: C_1  and  C_2
REMARK    2  A    between atoms: N_9  and  C_10
REMARK    3  A    between atoms: N_9  and  C_11
REMARK    4  A    between atoms: C_11  and  C_12
REMARK                            x       y       z     vdW  Elec       q    Type
REMARK                         _______ _______ _______ _____ _____    ______ ____
ROOT
ATOM      1  C   UNL     1       5.146   3.602  12.872  0.00  0.00    +0.000 C 
ATOM      2  C   UNL     1       6.078   4.281  13.793  0.00  0.00    +0.000 A 
ATOM      3  N   UNL     1       7.263   4.772  13.477  0.00  0.00    +0.000 NA
ATOM      4  N   UNL     1       7.809   5.332  14.606  0.00  0.00    +0.000 NA
ATOM      5  C   UNL     1       6.948   5.170  15.584  0.00  0.00    +0.000 A 
ATOM      6  C   UNL     1       6.975   5.539  16.937  0.00  0.00    +0.000 A 
ATOM      7  C   UNL     1       5.939   5.218  17.716  0.00  0.00    +0.000 A 
ATOM      8  C   UNL     1       4.751   4.487  17.133  0.00  0.00    +0.000 A 
ATOM      9  N   UNL     1       3.658   4.161  17.947  0.00  0.00    +0.000 N 
ATOM     10  C   UNL     1       2.451   3.549  17.384  0.00  0.00    +0.000 C 
ATOM     11  N   UNL     1       4.724   4.147  15.862  0.00  0.00    +0.000 NA
ATOM     12  N   UNL     1       5.830   4.503  15.132  0.00  0.00    +0.000 N 
ENDROOT
BRANCH   9  13
ATOM     13  C   UNL     1       3.494   4.616  19.334  0.00  0.00    +0.000 C 
BRANCH  13  14
ATOM     14  C   UNL     1       2.805   5.959  19.499  0.00  0.00    +0.000 A 
ATOM     15  C   UNL     1       2.047   6.323  20.624  0.00  0.00    +0.000 A 
ATOM     16  C   UNL     1       1.396   7.565  20.686  0.00  0.00    +0.000 A 
ATOM     17  C   UNL     1       1.499   8.453  19.619  0.00  0.00    +0.000 A 
ATOM     18  F   UNL     1       0.868   9.635  19.681  0.00  0.00    +0.000 F 
ATOM     19  C   UNL     1       2.244   8.112  18.502  0.00  0.00    +0.000 A 
ATOM     20  F   UNL     1       2.343   8.959  17.471  0.00  0.00    +0.000 F 
ATOM     21  C   UNL     1       2.892   6.882  18.433  0.00  0.00    +0.000 A 
ENDBRANCH  13  14
ENDBRANCH   9  13
TORSDOF 2
ENDMDL
MODEL 4
REMARK VINA RESULT:      -7.5      1.542      2.266
REMARK  Name = 
REMARK  4 active torsions:
REMARK  status: ('A' for Active; 'I' for Inactive)
REMARK    1  A    between atoms: C_1  and  C_2
REMARK    2  A    between atoms: N_9  and  C_10
REMARK    3  A    between atoms: N_9  and  C_11
REMARK    4  A    between atoms: C_11  and  C_12
REMARK                            x       y       z     vdW  Elec       q    Type
REMARK                         _______ _______ _______ _____ _____    ______ ____
ROOT
ATOM      1  C   UNL     1       5.830   3.753  14.621  0.00  0.00    +0.000 C 
ATOM      2  C   UNL     1       6.464   4.223  15.868  0.00  0.00    +0.000 A 
ATOM      3  N   UNL     1       7.759   4.390  16.065  0.00  0.00    +0.000 NA
ATOM      4  N   UNL     1       7.942   4.850  17.346  0.00  0.00    +0.000 NA
ATOM      5  C   UNL     1       6.756   4.953  17.902  0.00  0.00    +0.000 A 
ATOM      6  C   UNL     1       6.343   5.367  19.176  0.00  0.00    +0.000 A 
ATOM      7  C   UNL     1       5.041   5.350  19.471  0.00  0.00    +0.000 A 
ATOM      8  C   UNL     1       4.034   4.910  18.433  0.00  0.00    +0.000 A 
ATOM      9  N   UNL     1       2.667   4.903  18.738  0.00  0.00    +0.000 N 
ATOM     10  C   UNL     1       1.665   4.583  17.717  0.00  0.00    +0.000 C 
ATOM     11  N   UNL     1       4.423   4.527  17.235  0.00  0.00    +0.000 NA
ATOM     12  N   UNL     1       5.777   4.563  17.014  0.00  0.00    +0.000 N 
ENDROOT
BRANCH   9  13
ATOM     13  C   UNL     1       2.092   5.450  19.974  0.00  0.00    +0.000 C 
BRANCH  13  14
ATOM     14  C   UNL     1       1.795   6.939  19.950  0.00  0.00    +0.000 A 
ATOM     15  C   UNL     1       1.309   7.664  21.050  0.00  0.00    +0.000 A 
ATOM     16  C   UNL     1       1.009   9.030  20.938  0.00  0.00    +0.000 A 
ATOM     17  C   UNL     1       1.193   9.683  19.722  0.00  0.00    +0.000 A 
ATOM     18  F   UNL     1       0.897  10.986  19.621  0.00  0.00    +0.000 F 
ATOM     19  C   UNL     1       1.675   8.983  18.627  0.00  0.00    +0.000 A 
ATOM     20  F   UNL     1       1.849   9.603  17.454  0.00  0.00    +0.000 F 
ATOM     21  C   UNL     1       1.974   7.628  18.729  0.00  0.00    +0.000 A 
ENDBRANCH  13  14
ENDBRANCH   9  13
TORSDOF 2
ENDMDL
MODEL 5
REMARK VINA RESULT:      -7.4      4.788      8.063
REMARK  Name = 
REMARK  4 active torsions:
REMARK  status: ('A' for Active; 'I' for Inactive)
REMARK    1  A    between atoms: C_1  and  C_2
REMARK    2  A    between atoms: N_9  and  C_10
REMARK    3  A    between atoms: N_9  and  C_11
REMARK    4  A    between atoms: C_11  and  C_12
REMARK                            x       y       z     vdW  Elec       q    Type
REMARK                         _______ _______ _______ _____ _____    ______ ____
ROOT
ATOM      1  C   UNL     1      -1.125  12.100  18.552  0.00  0.00    +0.000 C 
ATOM      2  C   UNL     1      -0.945  11.561  19.915  0.00  0.00    +0.000 A 
ATOM      3  N   UNL     1      -1.544  11.997  21.007  0.00  0.00    +0.000 NA
ATOM      4  N   UNL     1      -1.121  11.228  22.064  0.00  0.00    +0.000 NA
ATOM      5  C   UNL     1      -0.274  10.341  21.593  0.00  0.00    +0.000 A 
ATOM      6  C   UNL     1       0.458   9.316  22.208  0.00  0.00    +0.000 A 
ATOM      7  C   UNL     1       1.274   8.566  21.461  0.00  0.00    +0.000 A 
ATOM      8  C   UNL     1       1.383   8.815  19.974  0.00  0.00    +0.000 A 
ATOM      9  N   UNL     1       2.230   8.023  19.188  0.00  0.00    +0.000 N 
ATOM     10  C   UNL     1       2.272   8.174  17.731  0.00  0.00    +0.000 C 
ATOM     11  N   UNL     1       0.691   9.776  19.398  0.00  0.00    +0.000 NA
ATOM     12  N   UNL     1      -0.115  10.506  20.234  0.00  0.00    +0.000 N 
ENDROOT
BRANCH   9  13
ATOM     13  C   UNL     1       2.933   6.828  19.676  0.00  0.00    +0.000 C 
BRANCH  13  14
ATOM     14  C   UNL     1       2.223   5.510  19.425  0.00  0.00    +0.000 A 
ATOM     15  C   UNL     1       1.350   4.898  20.340  0.00  0.00    +0.000 A 
ATOM     16  C   UNL     1       0.769   3.651  20.061  0.00  0.00    +0.000 A 
ATOM     17  C   UNL     1       1.059   3.006  18.861  0.00  0.00    +0.000 A 
ATOM     18  F   UNL     1       0.506   1.812  18.605  0.00  0.00    +0.000 F 
ATOM     19  C   UNL     1       1.916   3.596  17.947  0.00  0.00    +0.000 A 
ATOM     20  F   UNL     1       2.202   2.979  16.795  0.00  0.00    +0.000 F 
ATOM     21  C   UNL     1       2.496   4.832  18.216  0.00  0.00    +0.000 A 
ENDBRANCH  13  14
ENDBRANCH   9  13
TORSDOF 2
ENDMDL
MODEL 6
REMARK VINA RESULT:      -7.4      1.063      1.759
REMARK  Name = 
REMARK  4 active torsions:
REMARK  status: ('A' for Active; 'I' for Inactive)
REMARK    1  A    between atoms: C_1  and  C_2
REMARK    2  A    between atoms: N_9  and  C_10
REMARK    3  A    between atoms: N_9  and  C_11
REMARK    4  A    between atoms: C_11  and  C_12
REMARK                            x       y       z     vdW  Elec       q    Type
REMARK                         _______ _______ _______ _____ _____    ______ ____
ROOT
ATOM      1  C   UNL     1       5.314   3.431  12.690  0.00  0.00    +0.000 C 
ATOM      2  C   UNL     1       6.271   4.130  13.569  0.00  0.00    +0.000 A 
ATOM      3  N   UNL     1       7.366   4.758  13.181  0.00  0.00    +0.000 NA
ATOM      4  N   UNL     1       7.974   5.287  14.293  0.00  0.00    +0.000 NA
ATOM      5  C   UNL     1       7.238   4.970  15.334  0.00  0.00    +0.000 A 
ATOM      6  C   UNL     1       7.373   5.240  16.703  0.00  0.00    +0.000 A 
ATOM      7  C   UNL     1       6.458   4.762  17.550  0.00  0.00    +0.000 A 
ATOM      8  C   UNL     1       5.287   3.961  17.028  0.00  0.00    +0.000 A 
ATOM      9  N   UNL     1       4.320   3.469  17.914  0.00  0.00    +0.000 N 
ATOM     10  C   UNL     1       3.122   2.783  17.423  0.00  0.00    +0.000 C 
ATOM     11  N   UNL     1       5.159   3.712  15.741  0.00  0.00    +0.000 NA
ATOM     12  N   UNL     1       6.145   4.229  14.939  0.00  0.00    +0.000 N 
ENDROOT
BRANCH   9  13
ATOM     13  C   UNL     1       4.261   3.804  19.343  0.00  0.00    +0.000 C 
BRANCH  13  14
ATOM     14  C   UNL     1       3.324   4.943  19.705  0.00  0.00    +0.000 A 
ATOM     15  C   UNL     1       2.311   4.853  20.675  0.00  0.00    +0.000 A 
ATOM     16  C   UNL     1       1.449   5.932  20.920  0.00  0.00    +0.000 A 
ATOM     17  C   UNL     1       1.593   7.113  20.196  0.00  0.00    +0.000 A 
ATOM     18  F   UNL     1       0.761   8.137  20.430  0.00  0.00    +0.000 F 
ATOM     19  C   UNL     1       2.588   7.220  19.237  0.00  0.00    +0.000 A 
ATOM     20  F   UNL     1       2.729   8.349  18.534  0.00  0.00    +0.000 F 
ATOM     21  C   UNL     1       3.447   6.154  18.987  0.00  0.00    +0.000 A 
ENDBRANCH  13  14
ENDBRANCH   9  13
TORSDOF 2
ENDMDL
MODEL 7
REMARK VINA RESULT:      -7.4      1.261      1.579
REMARK  Name = 
REMARK  4 active torsions:
REMARK  status: ('A' for Active; 'I' for Inactive)
REMARK    1  A    between atoms: C_1  and  C_2
REMARK    2  A    between atoms: N_9  and  C_10
REMARK    3  A    between atoms: N_9  and  C_11
REMARK    4  A    between atoms: C_11  and  C_12
REMARK                            x       y       z     vdW  Elec       q    Type
REMARK                         _______ _______ _______ _____ _____    ______ ____
ROOT
ATOM      1  C   UNL     1       5.628   3.949  14.270  0.00  0.00    +0.000 C 
ATOM      2  C   UNL     1       6.332   4.365  15.498  0.00  0.00    +0.000 A 
ATOM      3  N   UNL     1       7.633   4.555  15.621  0.00  0.00    +0.000 NA
ATOM      4  N   UNL     1       7.889   4.948  16.912  0.00  0.00    +0.000 NA
ATOM      5  C   UNL     1       6.740   4.988  17.548  0.00  0.00    +0.000 A 
ATOM      6  C   UNL     1       6.403   5.319  18.868  0.00  0.00    +0.000 A 
ATOM      7  C   UNL     1       5.123   5.250  19.245  0.00  0.00    +0.000 A 
ATOM      8  C   UNL     1       4.060   4.842  18.251  0.00  0.00    +0.000 A 
ATOM      9  N   UNL     1       2.717   4.781  18.642  0.00  0.00    +0.000 N 
ATOM     10  C   UNL     1       1.657   4.492  17.671  0.00  0.00    +0.000 C 
ATOM     11  N   UNL     1       4.378   4.537  17.010  0.00  0.00    +0.000 NA
ATOM     12  N   UNL     1       5.713   4.622  16.705  0.00  0.00    +0.000 N 
ENDROOT
BRANCH   9  13
ATOM     13  C   UNL     1       2.212   5.243  19.942  0.00  0.00    +0.000 C 
BRANCH  13  14
ATOM     14  C   UNL     1       1.805   6.704  19.999  0.00  0.00    +0.000 A 
ATOM     15  C   UNL     1       2.039   7.628  18.967  0.00  0.00    +0.000 A 
ATOM     16  C   UNL     1       1.679   8.977  19.112  0.00  0.00    +0.000 A 
ATOM     17  C   UNL     1       1.082   9.413  20.292  0.00  0.00    +0.000 A 
ATOM     18  F   UNL     1       0.748  10.704  20.425  0.00  0.00    +0.000 F 
ATOM     19  C   UNL     1       0.842   8.514  21.319  0.00  0.00    +0.000 A 
ATOM     20  F   UNL     1       0.274   8.927  22.458  0.00  0.00    +0.000 F 
ATOM     21  C   UNL     1       1.196   7.175  21.184  0.00  0.00    +0.000 A 
ENDBRANCH  13  14
ENDBRANCH   9  13
TORSDOF 2
ENDMDL
MODEL 8
REMARK VINA RESULT:      -7.2      2.562      3.668
REMARK  Name = 
REMARK  4 active torsions:
REMARK  status: ('A' for Active; 'I' for Inactive)
REMARK    1  A    between atoms: C_1  and  C_2
REMARK    2  A    between atoms: N_9  and  C_10
REMARK    3  A    between atoms: N_9  and  C_11
REMARK    4  A    between atoms: C_11  and  C_12
REMARK                            x       y       z     vdW  Elec       q    Type
REMARK                         _______ _______ _______ _____ _____    ______ ____
ROOT
ATOM      1  C   UNL     1       8.584   6.210  12.576  0.00  0.00    +0.000 C 
ATOM      2  C   UNL     1       7.632   5.132  12.905  0.00  0.00    +0.000 A 
ATOM      3  N   UNL     1       7.166   4.224  12.067  0.00  0.00    +0.000 NA
ATOM      4  N   UNL     1       6.320   3.394  12.760  0.00  0.00    +0.000 NA
ATOM      5  C   UNL     1       6.287   3.814  14.005  0.00  0.00    +0.000 A 
ATOM      6  C   UNL     1       5.602   3.353  15.138  0.00  0.00    +0.000 A 
ATOM      7  C   UNL     1       5.752   4.006  16.294  0.00  0.00    +0.000 A 
ATOM      8  C   UNL     1       6.664   5.209  16.372  0.00  0.00    +0.000 A 
ATOM      9  N   UNL     1       6.831   5.888  17.586  0.00  0.00    +0.000 N 
ATOM     10  C   UNL     1       7.790   6.989  17.713  0.00  0.00    +0.000 C 
ATOM     11  N   UNL     1       7.310   5.637  15.307  0.00  0.00    +0.000 NA
ATOM     12  N   UNL     1       7.095   4.919  14.158  0.00  0.00    +0.000 N 
ENDROOT
BRANCH   9  13
ATOM     13  C   UNL     1       6.294   5.425  18.873  0.00  0.00    +0.000 C 
BRANCH  13  14
ATOM     14  C   UNL     1       4.814   5.086  18.875  0.00  0.00    +0.000 A 
ATOM     15  C   UNL     1       3.802   5.972  18.472  0.00  0.00    +0.000 A 
ATOM     16  C   UNL     1       2.449   5.606  18.549  0.00  0.00    +0.000 A 
ATOM     17  C   UNL     1       2.098   4.349  19.033  0.00  0.00    +0.000 A 
ATOM     18  F   UNL     1       0.804   4.009  19.112  0.00  0.00    +0.000 F 
ATOM     19  C   UNL     1       3.084   3.461  19.434  0.00  0.00    +0.000 A 
ATOM     20  F   UNL     1       2.754   2.253  19.905  0.00  0.00    +0.000 F 
ATOM     21  C   UNL     1       4.428   3.816  19.360  0.00  0.00    +0.000 A 
ENDBRANCH  13  14
ENDBRANCH   9  13
TORSDOF 2
ENDMDL
MODEL 9
REMARK VINA RESULT:      -7.2      3.745      5.922
REMARK  Name = 
REMARK  4 active torsions:
REMARK  status: ('A' for Active; 'I' for Inactive)
REMARK    1  A    between atoms: C_1  and  C_2
REMARK    2  A    between atoms: N_9  and  C_10
REMARK    3  A    between atoms: N_9  and  C_11
REMARK    4  A    between atoms: C_11  and  C_12
REMARK                            x       y       z     vdW  Elec       q    Type
REMARK                         _______ _______ _______ _____ _____    ______ ____
ROOT
ATOM      1  C   UNL     1       1.907   3.860  21.107  0.00  0.00    +0.000 C 
ATOM      2  C   UNL     1       2.499   4.473  19.902  0.00  0.00    +0.000 A 
ATOM      3  N   UNL     1       3.204   3.848  18.978  0.00  0.00    +0.000 NA
ATOM      4  N   UNL     1       3.561   4.762  18.018  0.00  0.00    +0.000 NA
ATOM      5  C   UNL     1       3.066   5.925  18.377  0.00  0.00    +0.000 A 
ATOM      6  C   UNL     1       3.115   7.195  17.785  0.00  0.00    +0.000 A 
ATOM      7  C   UNL     1       2.521   8.220  18.403  0.00  0.00    +0.000 A 
ATOM      8  C   UNL     1       1.792   7.999  19.708  0.00  0.00    +0.000 A 
ATOM      9  N   UNL     1       1.159   9.070  20.351  0.00  0.00    +0.000 N 
ATOM     10  C   UNL     1       0.356   8.861  21.560  0.00  0.00    +0.000 C 
ATOM     11  N   UNL     1       1.743   6.804  20.260  0.00  0.00    +0.000 NA
ATOM     12  N   UNL     1       2.385   5.808  19.569  0.00  0.00    +0.000 N 
ENDROOT
BRANCH   9  13
ATOM     13  C   UNL     1       1.007  10.410  19.769  0.00  0.00    +0.000 C 
BRANCH  13  14
ATOM     14  C   UNL     1      -0.353  10.703  19.160  0.00  0.00    +0.000 A 
ATOM     15  C   UNL     1      -1.290  11.591  19.714  0.00  0.00    +0.000 A 
ATOM     16  C   UNL     1      -2.549  11.774  19.122  0.00  0.00    +0.000 A 
ATOM     17  C   UNL     1      -2.881  11.068  17.968  0.00  0.00    +0.000 A 
ATOM     18  F   UNL     1      -4.088  11.242  17.412  0.00  0.00    +0.000 F 
ATOM     19  C   UNL     1      -1.967  10.190  17.407  0.00  0.00    +0.000 A 
ATOM     20  F   UNL     1      -2.282   9.505  16.301  0.00  0.00    +0.000 F 
ATOM     21  C   UNL     1      -0.717  10.003  17.988  0.00  0.00    +0.000 A 
ENDBRANCH  13  14
ENDBRANCH   9  13
TORSDOF 2
ENDMDL
