MODEL 1
REMARK VINA RESULT:      -7.8      0.000      0.000
REMARK  Name = 
REMARK  13 active torsions:
REMARK  status: ('A' for Active; 'I' for Inactive)
REMARK    1  A    between atoms: C_1  and  O_2
REMARK    2  A    between atoms: O_2  and  C_3
REMARK    3  A    between atoms: C_3  and  C_4
REMARK    4  A    between atoms: C_4  and  N_5
REMARK    5  A    between atoms: C_9  and  C_10
REMARK    6  A    between atoms: C_12  and  C_13
REMARK    7  A    between atoms: N_14  and  C_15
REMARK    8  A    between atoms: C_15  and  C_16
REMARK    9  A    between atoms: C_22  and  C_23
REMARK   10  A    between atoms: N_26  and  C_27
REMARK   11  A    between atoms: C_27  and  C_28
REMARK   12  A    between atoms: C_28  and  O_29
REMARK   13  A    between atoms: O_29  and  C_30
REMARK                            x       y       z     vdW  Elec       q    Type
REMARK                         _______ _______ _______ _____ _____    ______ ____
ROOT
ATOM      1  N   UNL     1       4.448   3.287  18.800  0.00  0.00    +0.000 NA
ATOM      2  C   UNL     1       4.384   4.523  18.477  0.00  0.00    +0.000 C 
ATOM      3  S   UNL     1       3.524   5.779  19.330  0.00  0.00    +0.000 S 
ATOM      4  C   UNL     1       3.659   6.859  18.004  0.00  0.00    +0.000 C 
ATOM      5  C   UNL     1       3.020   8.025  17.853  0.00  0.00    +0.000 C 
ATOM      6  C   UNL     1       4.551   6.286  16.964  0.00  0.00    +0.000 C 
ATOM      7  O   UNL     1       4.785   6.836  15.893  0.00  0.00    +0.000 OA
ATOM      8  N   UNL     1       4.974   5.029  17.346  0.00  0.00    +0.000 N 
ENDROOT
BRANCH   5   9
ATOM      9  C   UNL     1       2.107   8.601  18.784  0.00  0.00    +0.000 A 
ATOM     10  C   UNL     1       1.557   7.969  19.916  0.00  0.00    +0.000 A 
ATOM     11  C   UNL     1       0.676   8.857  20.503  0.00  0.00    +0.000 A 
ATOM     12  C   UNL     1      -0.186   8.652  21.699  0.00  0.00    +0.000 C 
ATOM     13  N   UNL     1       0.695  10.023  19.755  0.00  0.00    +0.000 N 
ATOM     14  C   UNL     1       1.612   9.890  18.721  0.00  0.00    +0.000 A 
ATOM     15  C   UNL     1       1.955  10.971  17.751  0.00  0.00    +0.000 C 
BRANCH  13  16
ATOM     16  C   UNL     1      -0.243  11.138  19.930  0.00  0.00    +0.000 C 
BRANCH  16  17
ATOM     17  C   UNL     1      -1.505  11.066  19.099  0.00  0.00    +0.000 A 
ATOM     18  C   UNL     1      -1.736  10.058  18.153  0.00  0.00    +0.000 A 
ATOM     19  C   UNL     1      -2.975   9.942  17.517  0.00  0.00    +0.000 A 
ATOM     20  C   UNL     1      -4.003  10.834  17.814  0.00  0.00    +0.000 A 
ATOM     21  C   UNL     1      -3.787  11.854  18.736  0.00  0.00    +0.000 A 
ATOM     22  C   UNL     1      -2.550  11.968  19.375  0.00  0.00    +0.000 A 
ENDBRANCH  16  17
ENDBRANCH  13  16
ENDBRANCH   5   9
BRANCH   1  23
ATOM     23  C   UNL     1       3.701   2.828  19.976  0.00  0.00    +0.000 C 
BRANCH  23  24
ATOM     24  C   UNL     1       2.368   2.241  19.518  0.00  0.00    +0.000 C 
BRANCH  24  26
ATOM     25  C   UNL     1       1.875   3.158  21.624  0.00  0.00    +0.000 C 
ATOM     26  O   UNL     1       1.432   2.281  20.597  0.00  0.00    +0.000 OA
ENDBRANCH  24  26
ENDBRANCH  23  24
ENDBRANCH   1  23
BRANCH   8  27
ATOM     27  C   UNL     1       5.776   4.202  16.444  0.00  0.00    +0.000 C 
BRANCH  27  28
ATOM     28  C   UNL     1       7.266   4.567  16.403  0.00  0.00    +0.000 C 
BRANCH  28  29
ATOM     29  O   UNL     1       7.575   5.274  15.199  0.00  0.00    +0.000 OA
ATOM     30  C   UNL     1       6.932   4.680  14.075  0.00  0.00    +0.000 C 
ENDBRANCH  28  29
ENDBRANCH  27  28
ENDBRANCH   8  27
TORSDOF 9
ENDMDL
MODEL 2
REMARK VINA RESULT:      -7.6      0.523      1.067
REMARK  Name = 
REMARK  13 active torsions:
REMARK  status: ('A' for Active; 'I' for Inactive)
REMARK    1  A    between atoms: C_1  and  O_2
REMARK    2  A    between atoms: O_2  and  C_3
REMARK    3  A    between atoms: C_3  and  C_4
REMARK    4  A    between atoms: C_4  and  N_5
REMARK    5  A    between atoms: C_9  and  C_10
REMARK    6  A    between atoms: C_12  and  C_13
REMARK    7  A    between atoms: N_14  and  C_15
REMARK    8  A    between atoms: C_15  and  C_16
REMARK    9  A    between atoms: C_22  and  C_23
REMARK   10  A    between atoms: N_26  and  C_27
REMARK   11  A    between atoms: C_27  and  C_28
REMARK   12  A    between atoms: C_28  and  O_29
REMARK   13  A    between atoms: O_29  and  C_30
REMARK                            x       y       z     vdW  Elec       q    Type
REMARK                         _______ _______ _______ _____ _____    ______ ____
ROOT
ATOM      1  N   UNL     1       3.808   3.172  18.514  0.00  0.00    +0.000 NA
ATOM      2  C   UNL     1       3.916   4.435  18.332  0.00  0.00    +0.000 C 
ATOM      3  S   UNL     1       3.090   5.689  19.221  0.00  0.00    +0.000 S 
ATOM      4  C   UNL     1       3.507   6.876  18.056  0.00  0.00    +0.000 C 
ATOM      5  C   UNL     1       3.018   8.119  17.970  0.00  0.00    +0.000 C 
ATOM      6  C   UNL     1       4.460   6.313  17.066  0.00  0.00    +0.000 C 
ATOM      7  O   UNL     1       4.886   6.939  16.102  0.00  0.00    +0.000 OA
ATOM      8  N   UNL     1       4.697   4.981  17.345  0.00  0.00    +0.000 N 
ENDROOT
BRANCH   5   9
ATOM      9  C   UNL     1       2.058   8.700  18.850  0.00  0.00    +0.000 A 
ATOM     10  C   UNL     1       1.477   8.085  19.975  0.00  0.00    +0.000 A 
ATOM     11  C   UNL     1       0.557   8.969  20.504  0.00  0.00    +0.000 A 
ATOM     12  C   UNL     1      -0.347   8.777  21.671  0.00  0.00    +0.000 C 
ATOM     13  N   UNL     1       0.582  10.117  19.728  0.00  0.00    +0.000 N 
ATOM     14  C   UNL     1       1.542   9.977  18.734  0.00  0.00    +0.000 A 
ATOM     15  C   UNL     1       1.902  11.040  17.751  0.00  0.00    +0.000 C 
BRANCH  13  16
ATOM     16  C   UNL     1      -0.383  11.217  19.838  0.00  0.00    +0.000 C 
BRANCH  16  17
ATOM     17  C   UNL     1      -1.670  11.036  19.064  0.00  0.00    +0.000 A 
ATOM     18  C   UNL     1      -2.775  11.885  19.215  0.00  0.00    +0.000 A 
ATOM     19  C   UNL     1      -3.885  11.773  18.374  0.00  0.00    +0.000 A 
ATOM     20  C   UNL     1      -3.911  10.809  17.370  0.00  0.00    +0.000 A 
ATOM     21  C   UNL     1      -2.832   9.943  17.216  0.00  0.00    +0.000 A 
ATOM     22  C   UNL     1      -1.721  10.056  18.054  0.00  0.00    +0.000 A 
ENDBRANCH  16  17
ENDBRANCH  13  16
ENDBRANCH   5   9
BRANCH   1  23
ATOM     23  C   UNL     1       2.872   2.686  19.533  0.00  0.00    +0.000 C 
BRANCH  23  24
ATOM     24  C   UNL     1       3.649   2.362  20.805  0.00  0.00    +0.000 C 
BRANCH  24  26
ATOM     25  C   UNL     1       1.447   2.726  21.541  0.00  0.00    +0.000 C 
ATOM     26  O   UNL     1       2.796   2.525  21.941  0.00  0.00    +0.000 OA
ENDBRANCH  24  26
ENDBRANCH  23  24
ENDBRANCH   1  23
BRANCH   8  27
ATOM     27  C   UNL     1       5.517   4.164  16.452  0.00  0.00    +0.000 C 
BRANCH  27  28
ATOM     28  C   UNL     1       7.021   4.454  16.526  0.00  0.00    +0.000 C 
BRANCH  28  29
ATOM     29  O   UNL     1       7.570   4.594  15.212  0.00  0.00    +0.000 OA
ATOM     30  C   UNL     1       6.539   4.673  14.232  0.00  0.00    +0.000 C 
ENDBRANCH  28  29
ENDBRANCH  27  28
ENDBRANCH   8  27
TORSDOF 9
ENDMDL
MODEL 3
REMARK VINA RESULT:      -7.3      1.908      4.664
REMARK  Name = 
REMARK  13 active torsions:
REMARK  status: ('A' for Active; 'I' for Inactive)
REMARK    1  A    between atoms: C_1  and  O_2
REMARK    2  A    between atoms: O_2  and  C_3
REMARK    3  A    between atoms: C_3  and  C_4
REMARK    4  A    between atoms: C_4  and  N_5
REMARK    5  A    between atoms: C_9  and  C_10
REMARK    6  A    between atoms: C_12  and  C_13
REMARK    7  A    between atoms: N_14  and  C_15
REMARK    8  A    between atoms: C_15  and  C_16
REMARK    9  A    between atoms: C_22  and  C_23
REMARK   10  A    between atoms: N_26  and  C_27
REMARK   11  A    between atoms: C_27  and  C_28
REMARK   12  A    between atoms: C_28  and  O_29
REMARK   13  A    between atoms: O_29  and  C_30
REMARK                            x       y       z     vdW  Elec       q    Type
REMARK                         _______ _______ _______ _____ _____    ______ ____
ROOT
ATOM      1  N   UNL     1       5.000   5.396  17.876  0.00  0.00    +0.000 NA
ATOM      2  C   UNL     1       3.955   5.598  18.587  0.00  0.00    +0.000 C 
ATOM      3  S   UNL     1       2.987   7.049  18.625  0.00  0.00    +0.000 S 
ATOM      4  C   UNL     1       2.184   6.551  20.057  0.00  0.00    +0.000 C 
ATOM      5  C   UNL     1       1.390   7.300  20.831  0.00  0.00    +0.000 C 
ATOM      6  C   UNL     1       2.551   5.151  20.391  0.00  0.00    +0.000 C 
ATOM      7  O   UNL     1       2.149   4.564  21.389  0.00  0.00    +0.000 OA
ATOM      8  N   UNL     1       3.470   4.673  19.477  0.00  0.00    +0.000 N 
ENDROOT
BRANCH   5   9
ATOM      9  C   UNL     1       1.047   8.664  20.600  0.00  0.00    +0.000 A 
ATOM     10  C   UNL     1       1.281   9.396  19.420  0.00  0.00    +0.000 A 
ATOM     11  C   UNL     1       0.855  10.691  19.641  0.00  0.00    +0.000 A 
ATOM     12  C   UNL     1       0.922  11.858  18.720  0.00  0.00    +0.000 C 
ATOM     13  N   UNL     1       0.350  10.753  20.930  0.00  0.00    +0.000 N 
ATOM     14  C   UNL     1       0.421   9.493  21.511  0.00  0.00    +0.000 A 
ATOM     15  C   UNL     1      -0.097   9.159  22.870  0.00  0.00    +0.000 C 
BRANCH  13  16
ATOM     16  C   UNL     1      -0.023  11.994  21.619  0.00  0.00    +0.000 C 
BRANCH  16  17
ATOM     17  C   UNL     1      -1.504  12.185  21.863  0.00  0.00    +0.000 A 
ATOM     18  C   UNL     1      -2.068  12.192  23.146  0.00  0.00    +0.000 A 
ATOM     19  C   UNL     1      -3.413  12.522  23.335  0.00  0.00    +0.000 A 
ATOM     20  C   UNL     1      -4.217  12.846  22.244  0.00  0.00    +0.000 A 
ATOM     21  C   UNL     1      -3.680  12.825  20.961  0.00  0.00    +0.000 A 
ATOM     22  C   UNL     1      -2.335  12.499  20.771  0.00  0.00    +0.000 A 
ENDBRANCH  16  17
ENDBRANCH  13  16
ENDBRANCH   5   9
BRANCH   1  23
ATOM     23  C   UNL     1       5.495   6.485  17.027  0.00  0.00    +0.000 C 
BRANCH  23  24
ATOM     24  C   UNL     1       5.297   6.100  15.563  0.00  0.00    +0.000 C 
BRANCH  24  26
ATOM     25  C   UNL     1       6.522   4.385  14.525  0.00  0.00    +0.000 C 
ATOM     26  O   UNL     1       6.554   5.726  14.994  0.00  0.00    +0.000 OA
ENDBRANCH  24  26
ENDBRANCH  23  24
ENDBRANCH   1  23
BRANCH   8  27
ATOM     27  C   UNL     1       4.077   3.354  19.646  0.00  0.00    +0.000 C 
BRANCH  27  28
ATOM     28  C   UNL     1       3.417   2.240  18.823  0.00  0.00    +0.000 C 
BRANCH  28  29
ATOM     29  O   UNL     1       2.185   1.835  19.426  0.00  0.00    +0.000 OA
ATOM     30  C   UNL     1       1.069   2.295  18.671  0.00  0.00    +0.000 C 
ENDBRANCH  28  29
ENDBRANCH  27  28
ENDBRANCH   8  27
TORSDOF 9
ENDMDL
MODEL 4
REMARK VINA RESULT:      -7.3      0.957      1.509
REMARK  Name = 
REMARK  13 active torsions:
REMARK  status: ('A' for Active; 'I' for Inactive)
REMARK    1  A    between atoms: C_1  and  O_2
REMARK    2  A    between atoms: O_2  and  C_3
REMARK    3  A    between atoms: C_3  and  C_4
REMARK    4  A    between atoms: C_4  and  N_5
REMARK    5  A    between atoms: C_9  and  C_10
REMARK    6  A    between atoms: C_12  and  C_13
REMARK    7  A    between atoms: N_14  and  C_15
REMARK    8  A    between atoms: C_15  and  C_16
REMARK    9  A    between atoms: C_22  and  C_23
REMARK   10  A    between atoms: N_26  and  C_27
REMARK   11  A    between atoms: C_27  and  C_28
REMARK   12  A    between atoms: C_28  and  O_29
REMARK   13  A    between atoms: O_29  and  C_30
REMARK                            x       y       z     vdW  Elec       q    Type
REMARK                         _______ _______ _______ _____ _____    ______ ____
ROOT
ATOM      1  N   UNL     1       3.240   3.218  17.414  0.00  0.00    +0.000 NA
ATOM      2  C   UNL     1       3.535   4.454  17.572  0.00  0.00    +0.000 C 
ATOM      3  S   UNL     1       2.706   5.599  18.594  0.00  0.00    +0.000 S 
ATOM      4  C   UNL     1       3.488   6.929  17.845  0.00  0.00    +0.000 C 
ATOM      5  C   UNL     1       3.181   8.224  17.989  0.00  0.00    +0.000 C 
ATOM      6  C   UNL     1       4.545   6.448  16.918  0.00  0.00    +0.000 C 
ATOM      7  O   UNL     1       5.227   7.192  16.224  0.00  0.00    +0.000 OA
ATOM      8  N   UNL     1       4.558   5.068  16.894  0.00  0.00    +0.000 N 
ENDROOT
BRANCH   5   9
ATOM      9  C   UNL     1       2.143   8.746  18.814  0.00  0.00    +0.000 A 
ATOM     10  C   UNL     1       1.531   8.094  19.902  0.00  0.00    +0.000 A 
ATOM     11  C   UNL     1       0.536   8.923  20.380  0.00  0.00    +0.000 A 
ATOM     12  C   UNL     1      -0.423   8.676  21.491  0.00  0.00    +0.000 C 
ATOM     13  N   UNL     1       0.544  10.077  19.612  0.00  0.00    +0.000 N 
ATOM     14  C   UNL     1       1.566   9.995  18.674  0.00  0.00    +0.000 A 
ATOM     15  C   UNL     1       1.925  11.083  17.718  0.00  0.00    +0.000 C 
BRANCH  13  16
ATOM     16  C   UNL     1      -0.483  11.123  19.670  0.00  0.00    +0.000 C 
BRANCH  16  17
ATOM     17  C   UNL     1      -1.670  10.923  18.754  0.00  0.00    +0.000 A 
ATOM     18  C   UNL     1      -2.856  11.661  18.875  0.00  0.00    +0.000 A 
ATOM     19  C   UNL     1      -3.869  11.551  17.917  0.00  0.00    +0.000 A 
ATOM     20  C   UNL     1      -3.714  10.701  16.826  0.00  0.00    +0.000 A 
ATOM     21  C   UNL     1      -2.552   9.945  16.698  0.00  0.00    +0.000 A 
ATOM     22  C   UNL     1      -1.538  10.056  17.653  0.00  0.00    +0.000 A 
ENDBRANCH  16  17
ENDBRANCH  13  16
ENDBRANCH   5   9
BRANCH   1  23
ATOM     23  C   UNL     1       2.067   2.681  18.111  0.00  0.00    +0.000 C 
BRANCH  23  24
ATOM     24  C   UNL     1       2.503   2.141  19.471  0.00  0.00    +0.000 C 
BRANCH  24  26
ATOM     25  C   UNL     1       2.094   2.963  21.634  0.00  0.00    +0.000 C 
ATOM     26  O   UNL     1       1.505   2.446  20.448  0.00  0.00    +0.000 OA
ENDBRANCH  24  26
ENDBRANCH  23  24
ENDBRANCH   1  23
BRANCH   8  27
ATOM     27  C   UNL     1       5.434   4.343  15.974  0.00  0.00    +0.000 C 
BRANCH  27  28
ATOM     28  C   UNL     1       6.905   4.291  16.406  0.00  0.00    +0.000 C 
BRANCH  28  29
ATOM     29  O   UNL     1       7.007   4.208  17.830  0.00  0.00    +0.000 OA
ATOM     30  C   UNL     1       7.738   5.311  18.358  0.00  0.00    +0.000 C 
ENDBRANCH  28  29
ENDBRANCH  27  28
ENDBRANCH   8  27
TORSDOF 9
ENDMDL
MODEL 5
REMARK VINA RESULT:      -7.2      0.731      1.040
REMARK  Name = 
REMARK  13 active torsions:
REMARK  status: ('A' for Active; 'I' for Inactive)
REMARK    1  A    between atoms: C_1  and  O_2
REMARK    2  A    between atoms: O_2  and  C_3
REMARK    3  A    between atoms: C_3  and  C_4
REMARK    4  A    between atoms: C_4  and  N_5
REMARK    5  A    between atoms: C_9  and  C_10
REMARK    6  A    between atoms: C_12  and  C_13
REMARK    7  A    between atoms: N_14  and  C_15
REMARK    8  A    between atoms: C_15  and  C_16
REMARK    9  A    between atoms: C_22  and  C_23
REMARK   10  A    between atoms: N_26  and  C_27
REMARK   11  A    between atoms: C_27  and  C_28
REMARK   12  A    between atoms: C_28  and  O_29
REMARK   13  A    between atoms: O_29  and  C_30
REMARK                            x       y       z     vdW  Elec       q    Type
REMARK                         _______ _______ _______ _____ _____    ______ ____
ROOT
ATOM      1  N   UNL     1       3.857   3.261  18.104  0.00  0.00    +0.000 NA
ATOM      2  C   UNL     1       3.963   4.531  17.979  0.00  0.00    +0.000 C 
ATOM      3  S   UNL     1       3.154   5.742  18.940  0.00  0.00    +0.000 S 
ATOM      4  C   UNL     1       3.549   6.982  17.823  0.00  0.00    +0.000 C 
ATOM      5  C   UNL     1       3.060   8.227  17.803  0.00  0.00    +0.000 C 
ATOM      6  C   UNL     1       4.484   6.465  16.790  0.00  0.00    +0.000 C 
ATOM      7  O   UNL     1       4.891   7.134  15.848  0.00  0.00    +0.000 OA
ATOM      8  N   UNL     1       4.725   5.122  17.003  0.00  0.00    +0.000 N 
ENDROOT
BRANCH   5   9
ATOM      9  C   UNL     1       2.118   8.767  18.727  0.00  0.00    +0.000 A 
ATOM     10  C   UNL     1       1.565   8.105  19.840  0.00  0.00    +0.000 A 
ATOM     11  C   UNL     1       0.653   8.961  20.424  0.00  0.00    +0.000 A 
ATOM     12  C   UNL     1      -0.224   8.717  21.602  0.00  0.00    +0.000 C 
ATOM     13  N   UNL     1       0.655  10.139  19.694  0.00  0.00    +0.000 N 
ATOM     14  C   UNL     1       1.592  10.044  18.674  0.00  0.00    +0.000 A 
ATOM     15  C   UNL     1       1.925  11.148  17.726  0.00  0.00    +0.000 C 
BRANCH  13  16
ATOM     16  C   UNL     1      -0.313  11.228  19.870  0.00  0.00    +0.000 C 
BRANCH  16  17
ATOM     17  C   UNL     1      -1.574  11.120  19.040  0.00  0.00    +0.000 A 
ATOM     18  C   UNL     1      -1.778  10.105  18.096  0.00  0.00    +0.000 A 
ATOM     19  C   UNL     1      -3.014   9.955  17.461  0.00  0.00    +0.000 A 
ATOM     20  C   UNL     1      -4.065  10.820  17.757  0.00  0.00    +0.000 A 
ATOM     21  C   UNL     1      -3.876  11.847  18.676  0.00  0.00    +0.000 A 
ATOM     22  C   UNL     1      -2.642  11.996  19.314  0.00  0.00    +0.000 A 
ENDBRANCH  16  17
ENDBRANCH  13  16
ENDBRANCH   5   9
BRANCH   1  23
ATOM     23  C   UNL     1       2.940   2.728  19.117  0.00  0.00    +0.000 C 
BRANCH  23  24
ATOM     24  C   UNL     1       3.734   2.391  20.376  0.00  0.00    +0.000 C 
BRANCH  24  26
ATOM     25  C   UNL     1       1.571   2.887  21.147  0.00  0.00    +0.000 C 
ATOM     26  O   UNL     1       2.875   2.461  21.516  0.00  0.00    +0.000 OA
ENDBRANCH  24  26
ENDBRANCH  23  24
ENDBRANCH   1  23
BRANCH   8  27
ATOM     27  C   UNL     1       5.527   4.346  16.058  0.00  0.00    +0.000 C 
BRANCH  27  28
ATOM     28  C   UNL     1       7.006   4.208  16.442  0.00  0.00    +0.000 C 
BRANCH  28  29
ATOM     29  O   UNL     1       7.511   5.448  16.945  0.00  0.00    +0.000 OA
ATOM     30  C   UNL     1       7.733   5.379  18.351  0.00  0.00    +0.000 C 
ENDBRANCH  28  29
ENDBRANCH  27  28
ENDBRANCH   8  27
TORSDOF 9
ENDMDL
MODEL 6
REMARK VINA RESULT:      -7.2      3.750      9.257
REMARK  Name = 
REMARK  13 active torsions:
REMARK  status: ('A' for Active; 'I' for Inactive)
REMARK    1  A    between atoms: C_1  and  O_2
REMARK    2  A    between atoms: O_2  and  C_3
REMARK    3  A    between atoms: C_3  and  C_4
REMARK    4  A    between atoms: C_4  and  N_5
REMARK    5  A    between atoms: C_9  and  C_10
REMARK    6  A    between atoms: C_12  and  C_13
REMARK    7  A    between atoms: N_14  and  C_15
REMARK    8  A    between atoms: C_15  and  C_16
REMARK    9  A    between atoms: C_22  and  C_23
REMARK   10  A    between atoms: N_26  and  C_27
REMARK   11  A    between atoms: C_27  and  C_28
REMARK   12  A    between atoms: C_28  and  O_29
REMARK   13  A    between atoms: O_29  and  C_30
REMARK                            x       y       z     vdW  Elec       q    Type
REMARK                         _______ _______ _______ _____ _____    ______ ____
ROOT
ATOM      1  N   UNL     1      -2.348  11.232  17.995  0.00  0.00    +0.000 NA
ATOM      2  C   UNL     1      -1.285  10.956  18.653  0.00  0.00    +0.000 C 
ATOM      3  S   UNL     1      -0.239   9.581  18.410  0.00  0.00    +0.000 S 
ATOM      4  C   UNL     1       0.552   9.840  19.910  0.00  0.00    +0.000 C 
ATOM      5  C   UNL     1       1.395   9.002  20.526  0.00  0.00    +0.000 C 
ATOM      6  C   UNL     1       0.113  11.127  20.508  0.00  0.00    +0.000 C 
ATOM      7  O   UNL     1       0.494  11.532  21.600  0.00  0.00    +0.000 OA
ATOM      8  N   UNL     1      -0.841  11.719  19.704  0.00  0.00    +0.000 N 
ENDROOT
BRANCH   5   9
ATOM      9  C   UNL     1       1.810   7.729  20.036  0.00  0.00    +0.000 A 
ATOM     10  C   UNL     1       1.647   6.490  20.685  0.00  0.00    +0.000 A 
ATOM     11  C   UNL     1       2.246   5.525  19.899  0.00  0.00    +0.000 A 
ATOM     12  C   UNL     1       2.380   4.067  20.164  0.00  0.00    +0.000 C 
ATOM     13  N   UNL     1       2.755   6.155  18.775  0.00  0.00    +0.000 N 
ATOM     14  C   UNL     1       2.447   7.509  18.829  0.00  0.00    +0.000 A 
ATOM     15  C   UNL     1       2.772   8.493  17.756  0.00  0.00    +0.000 C 
BRANCH  13  16
ATOM     16  C   UNL     1       3.634   5.516  17.789  0.00  0.00    +0.000 C 
BRANCH  16  17
ATOM     17  C   UNL     1       5.114   5.771  17.972  0.00  0.00    +0.000 A 
ATOM     18  C   UNL     1       5.852   6.605  17.120  0.00  0.00    +0.000 A 
ATOM     19  C   UNL     1       7.179   6.932  17.412  0.00  0.00    +0.000 A 
ATOM     20  C   UNL     1       7.791   6.428  18.558  0.00  0.00    +0.000 A 
ATOM     21  C   UNL     1       7.081   5.582  19.405  0.00  0.00    +0.000 A 
ATOM     22  C   UNL     1       5.753   5.258  19.116  0.00  0.00    +0.000 A 
ENDBRANCH  16  17
ENDBRANCH  13  16
ENDBRANCH   5   9
BRANCH   1  23
ATOM     23  C   UNL     1      -2.791  10.300  16.952  0.00  0.00    +0.000 C 
BRANCH  23  24
ATOM     24  C   UNL     1      -2.901  11.053  15.629  0.00  0.00    +0.000 C 
BRANCH  24  26
ATOM     25  C   UNL     1      -3.981  10.012  13.821  0.00  0.00    +0.000 C 
ATOM     26  O   UNL     1      -2.764  10.133  14.544  0.00  0.00    +0.000 OA
ENDBRANCH  24  26
ENDBRANCH  23  24
ENDBRANCH   1  23
BRANCH   8  27
ATOM     27  C   UNL     1      -1.518  12.945  20.123  0.00  0.00    +0.000 C 
BRANCH  27  28
ATOM     28  C   UNL     1      -2.686  12.726  21.093  0.00  0.00    +0.000 C 
BRANCH  28  29
ATOM     29  O   UNL     1      -3.796  13.555  20.736  0.00  0.00    +0.000 OA
ATOM     30  C   UNL     1      -4.940  12.770  20.416  0.00  0.00    +0.000 C 
ENDBRANCH  28  29
ENDBRANCH  27  28
ENDBRANCH   8  27
TORSDOF 9
ENDMDL
MODEL 7
REMARK VINA RESULT:      -7.1      2.063      4.691
REMARK  Name = 
REMARK  13 active torsions:
REMARK  status: ('A' for Active; 'I' for Inactive)
REMARK    1  A    between atoms: C_1  and  O_2
REMARK    2  A    between atoms: O_2  and  C_3
REMARK    3  A    between atoms: C_3  and  C_4
REMARK    4  A    between atoms: C_4  and  N_5
REMARK    5  A    between atoms: C_9  and  C_10
REMARK    6  A    between atoms: C_12  and  C_13
REMARK    7  A    between atoms: N_14  and  C_15
REMARK    8  A    between atoms: C_15  and  C_16
REMARK    9  A    between atoms: C_22  and  C_23
REMARK   10  A    between atoms: N_26  and  C_27
REMARK   11  A    between atoms: C_27  and  C_28
REMARK   12  A    between atoms: C_28  and  O_29
REMARK   13  A    between atoms: O_29  and  C_30
REMARK                            x       y       z     vdW  Elec       q    Type
REMARK                         _______ _______ _______ _____ _____    ______ ____
ROOT
ATOM      1  N   UNL     1       4.629   5.206  17.597  0.00  0.00    +0.000 NA
ATOM      2  C   UNL     1       3.674   5.461  18.410  0.00  0.00    +0.000 C 
ATOM      3  S   UNL     1       2.749   6.938  18.499  0.00  0.00    +0.000 S 
ATOM      4  C   UNL     1       2.099   6.513  20.028  0.00  0.00    +0.000 C 
ATOM      5  C   UNL     1       1.413   7.310  20.856  0.00  0.00    +0.000 C 
ATOM      6  C   UNL     1       2.469   5.117  20.374  0.00  0.00    +0.000 C 
ATOM      7  O   UNL     1       2.168   4.578  21.433  0.00  0.00    +0.000 OA
ATOM      8  N   UNL     1       3.270   4.582  19.384  0.00  0.00    +0.000 N 
ENDROOT
BRANCH   5   9
ATOM      9  C   UNL     1       1.077   8.674  20.612  0.00  0.00    +0.000 A 
ATOM     10  C   UNL     1       1.274   9.380  19.410  0.00  0.00    +0.000 A 
ATOM     11  C   UNL     1       0.872  10.684  19.621  0.00  0.00    +0.000 A 
ATOM     12  C   UNL     1       0.917  11.833  18.676  0.00  0.00    +0.000 C 
ATOM     13  N   UNL     1       0.417  10.777  20.928  0.00  0.00    +0.000 N 
ATOM     14  C   UNL     1       0.496   9.528  21.529  0.00  0.00    +0.000 A 
ATOM     15  C   UNL     1       0.028   9.226  22.914  0.00  0.00    +0.000 C 
BRANCH  13  16
ATOM     16  C   UNL     1       0.086  12.036  21.605  0.00  0.00    +0.000 C 
BRANCH  16  17
ATOM     17  C   UNL     1      -1.389  12.288  21.829  0.00  0.00    +0.000 A 
ATOM     18  C   UNL     1      -1.940  12.498  23.101  0.00  0.00    +0.000 A 
ATOM     19  C   UNL     1      -3.278  12.875  23.249  0.00  0.00    +0.000 A 
ATOM     20  C   UNL     1      -4.087  13.046  22.128  0.00  0.00    +0.000 A 
ATOM     21  C   UNL     1      -3.564  12.822  20.858  0.00  0.00    +0.000 A 
ATOM     22  C   UNL     1      -2.226  12.448  20.709  0.00  0.00    +0.000 A 
ENDBRANCH  16  17
ENDBRANCH  13  16
ENDBRANCH   5   9
BRANCH   1  23
ATOM     23  C   UNL     1       5.050   6.250  16.657  0.00  0.00    +0.000 C 
BRANCH  23  24
ATOM     24  C   UNL     1       6.573   6.347  16.674  0.00  0.00    +0.000 C 
BRANCH  24  26
ATOM     25  C   UNL     1       7.753   8.131  17.647  0.00  0.00    +0.000 C 
ATOM     26  O   UNL     1       7.000   6.952  17.897  0.00  0.00    +0.000 OA
ENDBRANCH  24  26
ENDBRANCH  23  24
ENDBRANCH   1  23
BRANCH   8  27
ATOM     27  C   UNL     1       3.862   3.254  19.535  0.00  0.00    +0.000 C 
BRANCH  27  28
ATOM     28  C   UNL     1       3.106   2.134  18.810  0.00  0.00    +0.000 C 
BRANCH  28  29
ATOM     29  O   UNL     1       1.872   1.850  19.474  0.00  0.00    +0.000 OA
ATOM     30  C   UNL     1       0.767   2.389  18.756  0.00  0.00    +0.000 C 
ENDBRANCH  28  29
ENDBRANCH  27  28
ENDBRANCH   8  27
TORSDOF 9
ENDMDL
MODEL 8
REMARK VINA RESULT:      -7.1      1.940      4.654
REMARK  Name = 
REMARK  13 active torsions:
REMARK  status: ('A' for Active; 'I' for Inactive)
REMARK    1  A    between atoms: C_1  and  O_2
REMARK    2  A    between atoms: O_2  and  C_3
REMARK    3  A    between atoms: C_3  and  C_4
REMARK    4  A    between atoms: C_4  and  N_5
REMARK    5  A    between atoms: C_9  and  C_10
REMARK    6  A    between atoms: C_12  and  C_13
REMARK    7  A    between atoms: N_14  and  C_15
REMARK    8  A    between atoms: C_15  and  C_16
REMARK    9  A    between atoms: C_22  and  C_23
REMARK   10  A    between atoms: N_26  and  C_27
REMARK   11  A    between atoms: C_27  and  C_28
REMARK   12  A    between atoms: C_28  and  O_29
REMARK   13  A    between atoms: O_29  and  C_30
REMARK                            x       y       z     vdW  Elec       q    Type
REMARK                         _______ _______ _______ _____ _____    ______ ____
ROOT
ATOM      1  N   UNL     1       4.805   5.494  17.824  0.00  0.00    +0.000 NA
ATOM      2  C   UNL     1       3.784   5.701  18.569  0.00  0.00    +0.000 C 
ATOM      3  S   UNL     1       2.821   7.154  18.633  0.00  0.00    +0.000 S 
ATOM      4  C   UNL     1       2.066   6.664  20.093  0.00  0.00    +0.000 C 
ATOM      5  C   UNL     1       1.299   7.418  20.890  0.00  0.00    +0.000 C 
ATOM      6  C   UNL     1       2.441   5.265  20.421  0.00  0.00    +0.000 C 
ATOM      7  O   UNL     1       2.072   4.684  21.435  0.00  0.00    +0.000 OA
ATOM      8  N   UNL     1       3.328   4.781  19.479  0.00  0.00    +0.000 N 
ENDROOT
BRANCH   5   9
ATOM      9  C   UNL     1       0.950   8.781  20.664  0.00  0.00    +0.000 A 
ATOM     10  C   UNL     1       1.096   9.492  19.457  0.00  0.00    +0.000 A 
ATOM     11  C   UNL     1       0.700  10.795  19.689  0.00  0.00    +0.000 A 
ATOM     12  C   UNL     1       0.703  11.946  18.747  0.00  0.00    +0.000 C 
ATOM     13  N   UNL     1       0.300  10.882  21.013  0.00  0.00    +0.000 N 
ATOM     14  C   UNL     1       0.406   9.631  21.608  0.00  0.00    +0.000 A 
ATOM     15  C   UNL     1      -0.004   9.324  23.009  0.00  0.00    +0.000 C 
BRANCH  13  16
ATOM     16  C   UNL     1      -0.006  12.138  21.709  0.00  0.00    +0.000 C 
BRANCH  16  17
ATOM     17  C   UNL     1      -1.476  12.469  21.841  0.00  0.00    +0.000 A 
ATOM     18  C   UNL     1      -2.301  12.723  20.737  0.00  0.00    +0.000 A 
ATOM     19  C   UNL     1      -3.681  12.876  20.894  0.00  0.00    +0.000 A 
ATOM     20  C   UNL     1      -4.259  12.781  22.158  0.00  0.00    +0.000 A 
ATOM     21  C   UNL     1      -3.454  12.550  23.269  0.00  0.00    +0.000 A 
ATOM     22  C   UNL     1      -2.075  12.393  23.113  0.00  0.00    +0.000 A 
ENDBRANCH  16  17
ENDBRANCH  13  16
ENDBRANCH   5   9
BRANCH   1  23
ATOM     23  C   UNL     1       5.272   6.578  16.954  0.00  0.00    +0.000 C 
BRANCH  23  24
ATOM     24  C   UNL     1       6.722   6.308  16.561  0.00  0.00    +0.000 C 
BRANCH  24  26
ATOM     25  C   UNL     1       6.792   4.472  15.096  0.00  0.00    +0.000 C 
ATOM     26  O   UNL     1       6.777   5.890  15.195  0.00  0.00    +0.000 OA
ENDBRANCH  24  26
ENDBRANCH  23  24
ENDBRANCH   1  23
BRANCH   8  27
ATOM     27  C   UNL     1       3.939   3.462  19.633  0.00  0.00    +0.000 C 
BRANCH  27  28
ATOM     28  C   UNL     1       2.976   2.286  19.422  0.00  0.00    +0.000 C 
BRANCH  28  29
ATOM     29  O   UNL     1       2.138   2.522  18.287  0.00  0.00    +0.000 OA
ATOM     30  C   UNL     1       0.761   2.400  18.631  0.00  0.00    +0.000 C 
ENDBRANCH  28  29
ENDBRANCH  27  28
ENDBRANCH   8  27
TORSDOF 9
ENDMDL
MODEL 9
REMARK VINA RESULT:      -7.0      3.658      9.259
REMARK  Name = 
REMARK  13 active torsions:
REMARK  status: ('A' for Active; 'I' for Inactive)
REMARK    1  A    between atoms: C_1  and  O_2
REMARK    2  A    between atoms: O_2  and  C_3
REMARK    3  A    between atoms: C_3  and  C_4
REMARK    4  A    between atoms: C_4  and  N_5
REMARK    5  A    between atoms: C_9  and  C_10
REMARK    6  A    between atoms: C_12  and  C_13
REMARK    7  A    between atoms: N_14  and  C_15
REMARK    8  A    between atoms: C_15  and  C_16
REMARK    9  A    between atoms: C_22  and  C_23
REMARK   10  A    between atoms: N_26  and  C_27
REMARK   11  A    between atoms: C_27  and  C_28
REMARK   12  A    between atoms: C_28  and  O_29
REMARK   13  A    between atoms: O_29  and  C_30
REMARK                            x       y       z     vdW  Elec       q    Type
REMARK                         _______ _______ _______ _____ _____    ______ ____
ROOT
ATOM      1  N   UNL     1      -2.069  11.270  18.247  0.00  0.00    +0.000 NA
ATOM      2  C   UNL     1      -0.976  10.899  18.799  0.00  0.00    +0.000 C 
ATOM      3  S   UNL     1      -0.113   9.412  18.504  0.00  0.00    +0.000 S 
ATOM      4  C   UNL     1       0.861   9.625  19.899  0.00  0.00    +0.000 C 
ATOM      5  C   UNL     1       1.673   8.719  20.455  0.00  0.00    +0.000 C 
ATOM      6  C   UNL     1       0.628  10.970  20.487  0.00  0.00    +0.000 C 
ATOM      7  O   UNL     1       1.167  11.362  21.516  0.00  0.00    +0.000 OA
ATOM      8  N   UNL     1      -0.341  11.638  19.766  0.00  0.00    +0.000 N 
ENDROOT
BRANCH   5   9
ATOM      9  C   UNL     1       1.896   7.395  19.976  0.00  0.00    +0.000 A 
ATOM     10  C   UNL     1       1.517   6.200  20.618  0.00  0.00    +0.000 A 
ATOM     11  C   UNL     1       1.979   5.149  19.849  0.00  0.00    +0.000 A 
ATOM     12  C   UNL     1       1.871   3.689  20.115  0.00  0.00    +0.000 C 
ATOM     13  N   UNL     1       2.616   5.687  18.742  0.00  0.00    +0.000 N 
ATOM     14  C   UNL     1       2.526   7.072  18.790  0.00  0.00    +0.000 A 
ATOM     15  C   UNL     1       3.036   7.989  17.729  0.00  0.00    +0.000 C 
BRANCH  13  16
ATOM     16  C   UNL     1       3.412   4.913  17.783  0.00  0.00    +0.000 C 
BRANCH  16  17
ATOM     17  C   UNL     1       4.913   5.053  17.916  0.00  0.00    +0.000 A 
ATOM     18  C   UNL     1       5.541   5.378  19.126  0.00  0.00    +0.000 A 
ATOM     19  C   UNL     1       6.934   5.350  19.240  0.00  0.00    +0.000 A 
ATOM     20  C   UNL     1       7.721   5.000  18.145  0.00  0.00    +0.000 A 
ATOM     21  C   UNL     1       7.116   4.694  16.930  0.00  0.00    +0.000 A 
ATOM     22  C   UNL     1       5.724   4.719  16.816  0.00  0.00    +0.000 A 
ENDBRANCH  16  17
ENDBRANCH  13  16
ENDBRANCH   5   9
BRANCH   1  23
ATOM     23  C   UNL     1      -2.720  10.362  17.297  0.00  0.00    +0.000 C 
BRANCH  23  24
ATOM     24  C   UNL     1      -3.968  11.042  16.739  0.00  0.00    +0.000 C 
BRANCH  24  26
ATOM     25  C   UNL     1      -2.987  10.126  14.810  0.00  0.00    +0.000 C 
ATOM     26  O   UNL     1      -3.876  11.113  15.314  0.00  0.00    +0.000 OA
ENDBRANCH  24  26
ENDBRANCH  23  24
ENDBRANCH   1  23
BRANCH   8  27
ATOM     27  C   UNL     1      -0.835  12.943  20.205  0.00  0.00    +0.000 C 
BRANCH  27  28
ATOM     28  C   UNL     1      -1.902  12.882  21.305  0.00  0.00    +0.000 C 
BRANCH  28  29
ATOM     29  O   UNL     1      -3.005  13.732  20.982  0.00  0.00    +0.000 OA
ATOM     30  C   UNL     1      -4.147  12.969  20.603  0.00  0.00    +0.000 C 
ENDBRANCH  28  29
ENDBRANCH  27  28
ENDBRANCH   8  27
TORSDOF 9
ENDMDL
