MODEL 1
REMARK VINA RESULT:      -7.2      0.000      0.000
REMARK  Name = 
REMARK  5 active torsions:
REMARK  status: ('A' for Active; 'I' for Inactive)
REMARK    1  A    between atoms: C_1  and  N_2
REMARK    2  A    between atoms: N_2  and  C_3
REMARK    3  A    between atoms: N_2  and  C_4
REMARK    4  A    between atoms: C_8  and  C_10
REMARK    5  A    between atoms: C_13  and  C_14
REMARK                            x       y       z     vdW  Elec       q    Type
REMARK                         _______ _______ _______ _____ _____    ______ ____
ROOT
ATOM      1  C   UNL     1       4.303   5.217  19.239  0.00  0.00    +0.000 A 
ATOM      2  C   UNL     1       3.391   4.401  19.880  0.00  0.00    +0.000 A 
ATOM      3  C   UNL     1       2.288   5.218  20.230  0.00  0.00    +0.000 A 
ATOM      4  C   UNL     1       2.556   6.479  19.735  0.00  0.00    +0.000 A 
ATOM      5  O   UNL     1       3.752   6.458  19.081  0.00  0.00    +0.000 OA
ENDROOT
BRANCH   1  10
ATOM      6  C   UNL     1       6.541   5.129  14.517  0.00  0.00    +0.000 C 
ATOM      7  C   UNL     1       7.570   5.071  15.660  0.00  0.00    +0.000 C 
ATOM      8  C   UNL     1       7.107   4.278  16.874  0.00  0.00    +0.000 C 
ATOM      9  N   UNL     1       5.810   4.743  17.351  0.00  0.00    +0.000 N 
ATOM     10  C   UNL     1       5.631   4.918  18.735  0.00  0.00    +0.000 C 
ATOM     11  O   UNL     1       6.592   4.870  19.505  0.00  0.00    +0.000 OA
ATOM     12  C   UNL     1       4.749   4.796  16.347  0.00  0.00    +0.000 C 
ATOM     13  C   UNL     1       5.164   5.521  15.077  0.00  0.00    +0.000 C 
BRANCH   6  15
ATOM     14  C   UNL     1       5.116   3.646  13.205  0.00  0.00    +0.000 C 
ATOM     15  N   UNL     1       6.490   4.004  13.559  0.00  0.00    +0.000 NA
ATOM     16  C   UNL     1       7.305   4.095  12.358  0.00  0.00    +0.000 C 
ENDBRANCH   6  15
ENDBRANCH   1  10
BRANCH   4  17
ATOM     17  C   UNL     1       1.864   7.765  19.769  0.00  0.00    +0.000 A 
ATOM     18  C   UNL     1       1.244   8.202  20.948  0.00  0.00    +0.000 A 
ATOM     19  C   UNL     1       0.542   9.411  20.984  0.00  0.00    +0.000 A 
ATOM     20  C   UNL     1       0.464  10.201  19.841  0.00  0.00    +0.000 A 
ATOM     21 CL   UNL     1      -0.438  11.666  19.876  0.00  0.00    +0.000 Cl
ATOM     22  C   UNL     1       1.099   9.805  18.669  0.00  0.00    +0.000 A 
ATOM     23  C   UNL     1       1.799   8.594  18.636  0.00  0.00    +0.000 A 
ENDBRANCH   4  17
TORSDOF 3
ENDMDL
MODEL 2
REMARK VINA RESULT:      -7.2      0.095      1.010
REMARK  Name = 
REMARK  5 active torsions:
REMARK  status: ('A' for Active; 'I' for Inactive)
REMARK    1  A    between atoms: C_1  and  N_2
REMARK    2  A    between atoms: N_2  and  C_3
REMARK    3  A    between atoms: N_2  and  C_4
REMARK    4  A    between atoms: C_8  and  C_10
REMARK    5  A    between atoms: C_13  and  C_14
REMARK                            x       y       z     vdW  Elec       q    Type
REMARK                         _______ _______ _______ _____ _____    ______ ____
ROOT
ATOM      1  C   UNL     1       4.332   5.175  19.262  0.00  0.00    +0.000 A 
ATOM      2  C   UNL     1       3.432   4.348  19.905  0.00  0.00    +0.000 A 
ATOM      3  C   UNL     1       2.326   5.154  20.269  0.00  0.00    +0.000 A 
ATOM      4  C   UNL     1       2.580   6.420  19.780  0.00  0.00    +0.000 A 
ATOM      5  O   UNL     1       3.770   6.412  19.116  0.00  0.00    +0.000 OA
ENDROOT
BRANCH   1  10
ATOM      6  C   UNL     1       6.528   5.125  14.519  0.00  0.00    +0.000 C 
ATOM      7  C   UNL     1       7.568   5.071  15.653  0.00  0.00    +0.000 C 
ATOM      8  C   UNL     1       7.123   4.270  16.867  0.00  0.00    +0.000 C 
ATOM      9  N   UNL     1       5.826   4.722  17.358  0.00  0.00    +0.000 N 
ATOM     10  C   UNL     1       5.658   4.889  18.745  0.00  0.00    +0.000 C 
ATOM     11  O   UNL     1       6.626   4.846  19.505  0.00  0.00    +0.000 OA
ATOM     12  C   UNL     1       4.756   4.770  16.364  0.00  0.00    +0.000 C 
ATOM     13  C   UNL     1       5.153   5.504  15.093  0.00  0.00    +0.000 C 
BRANCH   6  15
ATOM     14  C   UNL     1       5.105   3.663  13.182  0.00  0.00    +0.000 C 
ATOM     15  N   UNL     1       6.478   4.005  13.556  0.00  0.00    +0.000 NA
ATOM     16  C   UNL     1       7.311   4.090  12.368  0.00  0.00    +0.000 C 
ENDBRANCH   6  15
ENDBRANCH   1  10
BRANCH   4  17
ATOM     17  C   UNL     1       1.878   7.700  19.827  0.00  0.00    +0.000 A 
ATOM     18  C   UNL     1       1.839   8.526  18.695  0.00  0.00    +0.000 A 
ATOM     19  C   UNL     1       1.207   9.772  18.736  0.00  0.00    +0.000 A 
ATOM     20  C   UNL     1       0.597  10.201  19.911  0.00  0.00    +0.000 A 
ATOM     21 CL   UNL     1      -0.141  11.753  19.974  0.00  0.00    +0.000 Cl
ATOM     22  C   UNL     1       0.592   9.385  21.038  0.00  0.00    +0.000 A 
ATOM     23  C   UNL     1       1.228   8.139  20.993  0.00  0.00    +0.000 A 
ENDBRANCH   4  17
TORSDOF 3
ENDMDL
MODEL 3
REMARK VINA RESULT:      -7.2      5.051      8.752
REMARK  Name = 
REMARK  5 active torsions:
REMARK  status: ('A' for Active; 'I' for Inactive)
REMARK    1  A    between atoms: C_1  and  N_2
REMARK    2  A    between atoms: N_2  and  C_3
REMARK    3  A    between atoms: N_2  and  C_4
REMARK    4  A    between atoms: C_8  and  C_10
REMARK    5  A    between atoms: C_13  and  C_14
REMARK                            x       y       z     vdW  Elec       q    Type
REMARK                         _______ _______ _______ _____ _____    ______ ____
ROOT
ATOM      1  C   UNL     1       1.351   9.624  18.745  0.00  0.00    +0.000 A 
ATOM      2  C   UNL     1       2.181   9.530  17.644  0.00  0.00    +0.000 A 
ATOM      3  C   UNL     1       2.809   8.263  17.716  0.00  0.00    +0.000 A 
ATOM      4  C   UNL     1       2.290   7.624  18.823  0.00  0.00    +0.000 A 
ATOM      5  O   UNL     1       1.359   8.430  19.409  0.00  0.00    +0.000 OA
ENDROOT
BRANCH   1  10
ATOM      6  C   UNL     1      -3.654  11.008  18.151  0.00  0.00    +0.000 C 
ATOM      7  C   UNL     1      -2.947  11.808  19.261  0.00  0.00    +0.000 C 
ATOM      8  C   UNL     1      -1.488  12.121  18.967  0.00  0.00    +0.000 C 
ATOM      9  N   UNL     1      -0.742  10.916  18.625  0.00  0.00    +0.000 N 
ATOM     10  C   UNL     1       0.527  10.729  19.202  0.00  0.00    +0.000 C 
ATOM     11  O   UNL     1       0.916  11.458  20.116  0.00  0.00    +0.000 OA
ATOM     12  C   UNL     1      -1.311  10.105  17.550  0.00  0.00    +0.000 C 
ATOM     13  C   UNL     1      -2.788   9.804  17.746  0.00  0.00    +0.000 C 
BRANCH   6  15
ATOM     14  C   UNL     1      -4.014  11.032  15.739  0.00  0.00    +0.000 C 
ATOM     15  N   UNL     1      -4.215  11.747  17.000  0.00  0.00    +0.000 NA
ATOM     16  C   UNL     1      -5.588  12.214  17.094  0.00  0.00    +0.000 C 
ENDBRANCH   6  15
ENDBRANCH   1  10
BRANCH   4  17
ATOM     17  C   UNL     1       2.520   6.333  19.468  0.00  0.00    +0.000 A 
ATOM     18  C   UNL     1       3.594   5.527  19.067  0.00  0.00    +0.000 A 
ATOM     19  C   UNL     1       3.803   4.271  19.646  0.00  0.00    +0.000 A 
ATOM     20  C   UNL     1       2.943   3.814  20.640  0.00  0.00    +0.000 A 
ATOM     21 CL   UNL     1       3.175   2.250  21.317  0.00  0.00    +0.000 Cl
ATOM     22  C   UNL     1       1.890   4.610  21.077  0.00  0.00    +0.000 A 
ATOM     23  C   UNL     1       1.682   5.866  20.495  0.00  0.00    +0.000 A 
ENDBRANCH   4  17
TORSDOF 3
ENDMDL
MODEL 4
REMARK VINA RESULT:      -7.1      5.035      8.723
REMARK  Name = 
REMARK  5 active torsions:
REMARK  status: ('A' for Active; 'I' for Inactive)
REMARK    1  A    between atoms: C_1  and  N_2
REMARK    2  A    between atoms: N_2  and  C_3
REMARK    3  A    between atoms: N_2  and  C_4
REMARK    4  A    between atoms: C_8  and  C_10
REMARK    5  A    between atoms: C_13  and  C_14
REMARK                            x       y       z     vdW  Elec       q    Type
REMARK                         _______ _______ _______ _____ _____    ______ ____
ROOT
ATOM      1  C   UNL     1       1.359   9.739  18.665  0.00  0.00    +0.000 A 
ATOM      2  C   UNL     1       2.259   9.674  17.619  0.00  0.00    +0.000 A 
ATOM      3  C   UNL     1       2.862   8.394  17.680  0.00  0.00    +0.000 A 
ATOM      4  C   UNL     1       2.260   7.720  18.724  0.00  0.00    +0.000 A 
ATOM      5  O   UNL     1       1.305   8.520  19.279  0.00  0.00    +0.000 OA
ENDROOT
BRANCH   1  10
ATOM      6  C   UNL     1      -3.685  11.008  18.152  0.00  0.00    +0.000 C 
ATOM      7  C   UNL     1      -2.969  11.852  19.223  0.00  0.00    +0.000 C 
ATOM      8  C   UNL     1      -1.523  12.185  18.887  0.00  0.00    +0.000 C 
ATOM      9  N   UNL     1      -0.761  10.986  18.560  0.00  0.00    +0.000 N 
ATOM     10  C   UNL     1       0.524  10.840  19.111  0.00  0.00    +0.000 C 
ATOM     11  O   UNL     1       0.919  11.601  19.996  0.00  0.00    +0.000 OA
ATOM     12  C   UNL     1      -1.338  10.135  17.521  0.00  0.00    +0.000 C 
ATOM     13  C   UNL     1      -2.805   9.811  17.759  0.00  0.00    +0.000 C 
BRANCH   6  15
ATOM     14  C   UNL     1      -4.154  10.930  15.760  0.00  0.00    +0.000 C 
ATOM     15  N   UNL     1      -4.287  11.704  16.995  0.00  0.00    +0.000 NA
ATOM     16  C   UNL     1      -5.647  12.198  17.130  0.00  0.00    +0.000 C 
ENDBRANCH   6  15
ENDBRANCH   1  10
BRANCH   4  17
ATOM     17  C   UNL     1       2.426   6.401  19.329  0.00  0.00    +0.000 A 
ATOM     18  C   UNL     1       1.773   6.088  20.529  0.00  0.00    +0.000 A 
ATOM     19  C   UNL     1       1.955   4.844  21.142  0.00  0.00    +0.000 A 
ATOM     20  C   UNL     1       2.786   3.896  20.553  0.00  0.00    +0.000 A 
ATOM     21 CL   UNL     1       3.044   2.385  21.331  0.00  0.00    +0.000 Cl
ATOM     22  C   UNL     1       3.418   4.172  19.345  0.00  0.00    +0.000 A 
ATOM     23  C   UNL     1       3.236   5.418  18.735  0.00  0.00    +0.000 A 
ENDBRANCH   4  17
TORSDOF 3
ENDMDL
MODEL 5
REMARK VINA RESULT:      -6.9      4.612      6.658
REMARK  Name = 
REMARK  5 active torsions:
REMARK  status: ('A' for Active; 'I' for Inactive)
REMARK    1  A    between atoms: C_1  and  N_2
REMARK    2  A    between atoms: N_2  and  C_3
REMARK    3  A    between atoms: N_2  and  C_4
REMARK    4  A    between atoms: C_8  and  C_10
REMARK    5  A    between atoms: C_13  and  C_14
REMARK                            x       y       z     vdW  Elec       q    Type
REMARK                         _______ _______ _______ _____ _____    ______ ____
ROOT
ATOM      1  C   UNL     1       6.541   6.427  17.677  0.00  0.00    +0.000 A 
ATOM      2  C   UNL     1       7.543   5.819  18.408  0.00  0.00    +0.000 A 
ATOM      3  C   UNL     1       8.461   6.836  18.765  0.00  0.00    +0.000 A 
ATOM      4  C   UNL     1       7.946   8.023  18.284  0.00  0.00    +0.000 A 
ATOM      5  O   UNL     1       6.749   7.778  17.678  0.00  0.00    +0.000 OA
ENDROOT
BRANCH   1  10
ATOM      6  C   UNL     1       1.954   4.464  19.232  0.00  0.00    +0.000 C 
ATOM      7  C   UNL     1       2.003   4.721  17.715  0.00  0.00    +0.000 C 
ATOM      8  C   UNL     1       3.362   4.457  17.083  0.00  0.00    +0.000 C 
ATOM      9  N   UNL     1       4.422   5.178  17.778  0.00  0.00    +0.000 N 
ATOM     10  C   UNL     1       5.390   5.848  17.008  0.00  0.00    +0.000 C 
ATOM     11  O   UNL     1       5.241   5.988  15.794  0.00  0.00    +0.000 OA
ATOM     12  C   UNL     1       4.486   4.968  19.224  0.00  0.00    +0.000 C 
ATOM     13  C   UNL     1       3.145   5.154  19.915  0.00  0.00    +0.000 C 
BRANCH   6  15
ATOM     14  C   UNL     1       1.375   3.039  21.126  0.00  0.00    +0.000 C 
ATOM     15  N   UNL     1       1.721   3.083  19.704  0.00  0.00    +0.000 NA
ATOM     16  C   UNL     1       0.806   2.248  18.943  0.00  0.00    +0.000 C 
ENDBRANCH   6  15
ENDBRANCH   1  10
BRANCH   4  17
ATOM     17  C   UNL     1       8.393   9.414  18.285  0.00  0.00    +0.000 A 
ATOM     18  C   UNL     1       7.773  10.355  17.451  0.00  0.00    +0.000 A 
ATOM     19  C   UNL     1       8.217  11.680  17.411  0.00  0.00    +0.000 A 
ATOM     20  C   UNL     1       9.281  12.080  18.214  0.00  0.00    +0.000 A 
ATOM     21 CL   UNL     1       9.854  13.699  18.128  0.00  0.00    +0.000 Cl
ATOM     22  C   UNL     1       9.890  11.172  19.074  0.00  0.00    +0.000 A 
ATOM     23  C   UNL     1       9.445   9.846  19.110  0.00  0.00    +0.000 A 
ENDBRANCH   4  17
TORSDOF 3
ENDMDL
MODEL 6
REMARK VINA RESULT:      -6.9      4.944      6.685
REMARK  Name = 
REMARK  5 active torsions:
REMARK  status: ('A' for Active; 'I' for Inactive)
REMARK    1  A    between atoms: C_1  and  N_2
REMARK    2  A    between atoms: N_2  and  C_3
REMARK    3  A    between atoms: N_2  and  C_4
REMARK    4  A    between atoms: C_8  and  C_10
REMARK    5  A    between atoms: C_13  and  C_14
REMARK                            x       y       z     vdW  Elec       q    Type
REMARK                         _______ _______ _______ _____ _____    ______ ____
ROOT
ATOM      1  C   UNL     1       6.897   7.175  17.586  0.00  0.00    +0.000 A 
ATOM      2  C   UNL     1       7.855   6.692  18.456  0.00  0.00    +0.000 A 
ATOM      3  C   UNL     1       8.700   7.783  18.777  0.00  0.00    +0.000 A 
ATOM      4  C   UNL     1       8.183   8.889  18.133  0.00  0.00    +0.000 A 
ATOM      5  O   UNL     1       7.053   8.527  17.461  0.00  0.00    +0.000 OA
ENDROOT
BRANCH   1  10
ATOM      6  C   UNL     1       2.693   4.438  19.051  0.00  0.00    +0.000 C 
ATOM      7  C   UNL     1       2.667   4.806  17.556  0.00  0.00    +0.000 C 
ATOM      8  C   UNL     1       4.035   4.795  16.890  0.00  0.00    +0.000 C 
ATOM      9  N   UNL     1       4.991   5.617  17.622  0.00  0.00    +0.000 N 
ATOM     10  C   UNL     1       5.830   6.477  16.891  0.00  0.00    +0.000 C 
ATOM     11  O   UNL     1       5.633   6.678  15.692  0.00  0.00    +0.000 OA
ATOM     12  C   UNL     1       5.120   5.318  19.048  0.00  0.00    +0.000 C 
ATOM     13  C   UNL     1       3.783   5.250  19.768  0.00  0.00    +0.000 C 
BRANCH   6  15
ATOM     14  C   UNL     1       2.761   2.817  20.873  0.00  0.00    +0.000 C 
ATOM     15  N   UNL     1       2.680   3.008  19.423  0.00  0.00    +0.000 NA
ATOM     16  C   UNL     1       1.631   2.168  18.869  0.00  0.00    +0.000 C 
ENDBRANCH   6  15
ENDBRANCH   1  10
BRANCH   4  17
ATOM     17  C   UNL     1       8.576  10.291  18.023  0.00  0.00    +0.000 A 
ATOM     18  C   UNL     1       9.785  10.731  18.579  0.00  0.00    +0.000 A 
ATOM     19  C   UNL     1      10.156  12.078  18.518  0.00  0.00    +0.000 A 
ATOM     20  C   UNL     1       9.322  12.998  17.889  0.00  0.00    +0.000 A 
ATOM     21 CL   UNL     1       9.758  14.662  17.855  0.00  0.00    +0.000 Cl
ATOM     22  C   UNL     1       8.133  12.580  17.300  0.00  0.00    +0.000 A 
ATOM     23  C   UNL     1       7.765  11.232  17.365  0.00  0.00    +0.000 A 
ENDBRANCH   4  17
TORSDOF 3
ENDMDL
MODEL 7
REMARK VINA RESULT:      -6.9      3.972      7.834
REMARK  Name = 
REMARK  5 active torsions:
REMARK  status: ('A' for Active; 'I' for Inactive)
REMARK    1  A    between atoms: C_1  and  N_2
REMARK    2  A    between atoms: N_2  and  C_3
REMARK    3  A    between atoms: N_2  and  C_4
REMARK    4  A    between atoms: C_8  and  C_10
REMARK    5  A    between atoms: C_13  and  C_14
REMARK                            x       y       z     vdW  Elec       q    Type
REMARK                         _______ _______ _______ _____ _____    ______ ____
ROOT
ATOM      1  C   UNL     1       1.765   7.211  20.464  0.00  0.00    +0.000 A 
ATOM      2  C   UNL     1       1.296   5.930  20.680  0.00  0.00    +0.000 A 
ATOM      3  C   UNL     1       1.912   5.102  19.710  0.00  0.00    +0.000 A 
ATOM      4  C   UNL     1       2.769   5.907  18.986  0.00  0.00    +0.000 A 
ATOM      5  O   UNL     1       2.722   7.174  19.489  0.00  0.00    +0.000 OA
ENDROOT
BRANCH   1  10
ATOM      6  C   UNL     1      -0.510  11.672  18.967  0.00  0.00    +0.000 C 
ATOM      7  C   UNL     1      -0.414  11.542  20.498  0.00  0.00    +0.000 C 
ATOM      8  C   UNL     1       0.849  10.848  20.985  0.00  0.00    +0.000 C 
ATOM      9  N   UNL     1       1.036   9.559  20.331  0.00  0.00    +0.000 N 
ATOM     10  C   UNL     1       1.413   8.457  21.120  0.00  0.00    +0.000 C 
ATOM     11  O   UNL     1       1.396   8.529  22.350  0.00  0.00    +0.000 OA
ATOM     12  C   UNL     1       1.003   9.581  18.869  0.00  0.00    +0.000 C 
ATOM     13  C   UNL     1      -0.205  10.316  18.310  0.00  0.00    +0.000 C 
BRANCH   6  15
ATOM     14  C   UNL     1      -0.406  14.096  18.716  0.00  0.00    +0.000 C 
ATOM     15  N   UNL     1       0.170  12.811  18.315  0.00  0.00    +0.000 NA
ATOM     16  C   UNL     1       1.620  12.872  18.387  0.00  0.00    +0.000 C 
ENDBRANCH   6  15
ENDBRANCH   1  10
BRANCH   4  17
ATOM     17  C   UNL     1       3.665   5.698  17.852  0.00  0.00    +0.000 A 
ATOM     18  C   UNL     1       3.860   4.409  17.336  0.00  0.00    +0.000 A 
ATOM     19  C   UNL     1       4.746   4.186  16.277  0.00  0.00    +0.000 A 
ATOM     20  C   UNL     1       5.439   5.255  15.717  0.00  0.00    +0.000 A 
ATOM     21 CL   UNL     1       6.562   4.973  14.446  0.00  0.00    +0.000 Cl
ATOM     22  C   UNL     1       5.237   6.548  16.191  0.00  0.00    +0.000 A 
ATOM     23  C   UNL     1       4.351   6.767  17.252  0.00  0.00    +0.000 A 
ENDBRANCH   4  17
TORSDOF 3
ENDMDL
MODEL 8
REMARK VINA RESULT:      -6.9      1.873      3.001
REMARK  Name = 
REMARK  5 active torsions:
REMARK  status: ('A' for Active; 'I' for Inactive)
REMARK    1  A    between atoms: C_1  and  N_2
REMARK    2  A    between atoms: N_2  and  C_3
REMARK    3  A    between atoms: N_2  and  C_4
REMARK    4  A    between atoms: C_8  and  C_10
REMARK    5  A    between atoms: C_13  and  C_14
REMARK                            x       y       z     vdW  Elec       q    Type
REMARK                         _______ _______ _______ _____ _____    ______ ____
ROOT
ATOM      1  C   UNL     1       2.470   7.407  18.945  0.00  0.00    +0.000 A 
ATOM      2  C   UNL     1       2.307   8.152  17.794  0.00  0.00    +0.000 A 
ATOM      3  C   UNL     1       1.461   9.238  18.129  0.00  0.00    +0.000 A 
ATOM      4  C   UNL     1       1.196   9.133  19.480  0.00  0.00    +0.000 A 
ATOM      5  O   UNL     1       1.861   8.054  19.983  0.00  0.00    +0.000 OA
ENDROOT
BRANCH   1  10
ATOM      6  C   UNL     1       6.816   5.239  17.013  0.00  0.00    +0.000 C 
ATOM      7  C   UNL     1       6.299   4.510  18.267  0.00  0.00    +0.000 C 
ATOM      8  C   UNL     1       4.782   4.462  18.376  0.00  0.00    +0.000 C 
ATOM      9  N   UNL     1       4.196   5.791  18.256  0.00  0.00    +0.000 N 
ATOM     10  C   UNL     1       3.178   6.156  19.155  0.00  0.00    +0.000 C 
ATOM     11  O   UNL     1       2.923   5.455  20.135  0.00  0.00    +0.000 OA
ATOM     12  C   UNL     1       4.593   6.553  17.073  0.00  0.00    +0.000 C 
ATOM     13  C   UNL     1       6.099   6.591  16.865  0.00  0.00    +0.000 C 
BRANCH   6  15
ATOM     14  C   UNL     1       5.807   3.535  15.589  0.00  0.00    +0.000 C 
ATOM     15  N   UNL     1       6.914   4.480  15.748  0.00  0.00    +0.000 NA
ATOM     16  C   UNL     1       7.109   5.229  14.518  0.00  0.00    +0.000 C 
ENDBRANCH   6  15
ENDBRANCH   1  10
BRANCH   4  17
ATOM     17  C   UNL     1       0.390   9.894  20.432  0.00  0.00    +0.000 A 
ATOM     18  C   UNL     1       0.285   9.470  21.764  0.00  0.00    +0.000 A 
ATOM     19  C   UNL     1      -0.515  10.164  22.677  0.00  0.00    +0.000 A 
ATOM     20  C   UNL     1      -1.211  11.297  22.267  0.00  0.00    +0.000 A 
ATOM     21 CL   UNL     1      -2.230  12.123  23.379  0.00  0.00    +0.000 Cl
ATOM     22  C   UNL     1      -1.096  11.756  20.959  0.00  0.00    +0.000 A 
ATOM     23  C   UNL     1      -0.296  11.058  20.047  0.00  0.00    +0.000 A 
ENDBRANCH   4  17
TORSDOF 3
ENDMDL
MODEL 9
REMARK VINA RESULT:      -6.9      3.954      7.821
REMARK  Name = 
REMARK  5 active torsions:
REMARK  status: ('A' for Active; 'I' for Inactive)
REMARK    1  A    between atoms: C_1  and  N_2
REMARK    2  A    between atoms: N_2  and  C_3
REMARK    3  A    between atoms: N_2  and  C_4
REMARK    4  A    between atoms: C_8  and  C_10
REMARK    5  A    between atoms: C_13  and  C_14
REMARK                            x       y       z     vdW  Elec       q    Type
REMARK                         _______ _______ _______ _____ _____    ______ ____
ROOT
ATOM      1  C   UNL     1       1.739   7.136  20.460  0.00  0.00    +0.000 A 
ATOM      2  C   UNL     1       1.251   5.859  20.658  0.00  0.00    +0.000 A 
ATOM      3  C   UNL     1       1.884   5.029  19.701  0.00  0.00    +0.000 A 
ATOM      4  C   UNL     1       2.768   5.828  19.004  0.00  0.00    +0.000 A 
ATOM      5  O   UNL     1       2.721   7.094  19.510  0.00  0.00    +0.000 OA
ENDROOT
BRANCH   1  10
ATOM      6  C   UNL     1      -0.502  11.605  18.933  0.00  0.00    +0.000 C 
ATOM      7  C   UNL     1      -0.428  11.474  20.465  0.00  0.00    +0.000 C 
ATOM      8  C   UNL     1       0.827  10.776  20.970  0.00  0.00    +0.000 C 
ATOM      9  N   UNL     1       1.019   9.487  20.317  0.00  0.00    +0.000 N 
ATOM     10  C   UNL     1       1.381   8.384  21.111  0.00  0.00    +0.000 C 
ATOM     11  O   UNL     1       1.348   8.456  22.341  0.00  0.00    +0.000 OA
ATOM     12  C   UNL     1       1.005   9.509  18.856  0.00  0.00    +0.000 C 
ATOM     13  C   UNL     1      -0.192  10.248  18.280  0.00  0.00    +0.000 C 
BRANCH   6  15
ATOM     14  C   UNL     1      -0.402  14.027  18.666  0.00  0.00    +0.000 C 
ATOM     15  N   UNL     1       0.190  12.742  18.290  0.00  0.00    +0.000 NA
ATOM     16  C   UNL     1       1.637  12.809  18.400  0.00  0.00    +0.000 C 
ENDBRANCH   6  15
ENDBRANCH   1  10
BRANCH   4  17
ATOM     17  C   UNL     1       3.692   5.614  17.893  0.00  0.00    +0.000 A 
ATOM     18  C   UNL     1       4.311   6.707  17.270  0.00  0.00    +0.000 A 
ATOM     19  C   UNL     1       5.166   6.521  16.179  0.00  0.00    +0.000 A 
ATOM     20  C   UNL     1       5.417   5.236  15.707  0.00  0.00    +0.000 A 
ATOM     21 CL   UNL     1       6.432   5.013  14.336  0.00  0.00    +0.000 Cl
ATOM     22  C   UNL     1       4.841   4.134  16.330  0.00  0.00    +0.000 A 
ATOM     23  C   UNL     1       3.985   4.324  17.420  0.00  0.00    +0.000 A 
ENDBRANCH   4  17
TORSDOF 3
ENDMDL
