MODEL 1
REMARK VINA RESULT:      -6.8      0.000      0.000
REMARK  Name = 
REMARK  9 active torsions:
REMARK  status: ('A' for Active; 'I' for Inactive)
REMARK    1  A    between atoms: C_1  and  O_2
REMARK    2  A    between atoms: O_2  and  C_3
REMARK    3  A    between atoms: C_3  and  C_5
REMARK    4  A    between atoms: C_5  and  C_6
REMARK    5  A    between atoms: C_5  and  N_10
REMARK    6  A    between atoms: C_6  and  C_7
REMARK    7  A    between atoms: C_7  and  C_8
REMARK    8  A    between atoms: C_7  and  C_9
REMARK    9  A    between atoms: C_14  and  C_15
REMARK                            x       y       z     vdW  Elec       q    Type
REMARK                         _______ _______ _______ _____ _____    ______ ____
ROOT
ATOM      1  N   UNL     1       5.395   4.700  18.047  0.00  0.00    +0.000 N 
ATOM      2  C   UNL     1       6.427   5.669  18.471  0.00  0.00    +0.000 C 
ATOM      3  C   UNL     1       7.639   5.759  17.498  0.00  0.00    +0.000 C 
ATOM      4  O   UNL     1       7.282   6.454  16.294  0.00  0.00    +0.000 OA
ATOM      5  C   UNL     1       6.782   5.445  15.409  0.00  0.00    +0.000 C 
ATOM      6  C   UNL     1       6.929   4.150  16.188  0.00  0.00    +0.000 C 
ATOM      7  O   UNL     1       7.979   4.429  17.124  0.00  0.00    +0.000 OA
ATOM      8  C   UNL     1       5.574   3.950  16.882  0.00  0.00    +0.000 C 
ATOM      9  O   UNL     1       4.691   3.250  16.395  0.00  0.00    +0.000 OA
ENDROOT
BRANCH   5  10
ATOM     10  C   UNL     1       7.404   5.325  14.002  0.00  0.00    +0.000 C 
ATOM     11  O   UNL     1       8.538   5.728  13.759  0.00  0.00    +0.000 OA
ATOM     12  N   UNL     1       6.669   4.607  13.061  0.00  0.00    +0.000 N 
ATOM     13  C   UNL     1       7.325   4.139  11.843  0.00  0.00    +0.000 C 
ATOM     14  C   UNL     1       7.011   2.661  11.612  0.00  0.00    +0.000 C 
ATOM     15  C   UNL     1       5.504   2.406  11.611  0.00  0.00    +0.000 C 
ATOM     16  C   UNL     1       4.850   2.958  12.876  0.00  0.00    +0.000 C 
ATOM     17  C   UNL     1       5.222   4.419  13.101  0.00  0.00    +0.000 C 
ENDBRANCH   5  10
BRANCH   1  18
ATOM     18  C   UNL     1       4.115   4.615  18.798  0.00  0.00    +0.000 C 
BRANCH  18  19
ATOM     19  C   UNL     1       3.902   3.218  19.453  0.00  0.00    +0.000 C 
ATOM     20  O   UNL     1       4.765   2.548  20.008  0.00  0.00    +0.000 OA
BRANCH  19  22
ATOM     21  C   UNL     1       1.830   2.513  20.309  0.00  0.00    +0.000 C 
ATOM     22  O   UNL     1       2.651   2.742  19.165  0.00  0.00    +0.000 OA
ENDBRANCH  19  22
ENDBRANCH  18  19
BRANCH  18  23
ATOM     23  C   UNL     1       2.941   5.160  17.953  0.00  0.00    +0.000 C 
BRANCH  23  24
ATOM     24  C   UNL     1       2.255   6.453  18.451  0.00  0.00    +0.000 C 
ATOM     25  C   UNL     1       2.224   6.582  19.975  0.00  0.00    +0.000 C 
ATOM     26  C   UNL     1       2.922   7.691  17.842  0.00  0.00    +0.000 C 
ENDBRANCH  23  24
ENDBRANCH  18  23
ENDBRANCH   1  18
TORSDOF 6
ENDMDL
MODEL 2
REMARK VINA RESULT:      -6.7      1.225      2.381
REMARK  Name = 
REMARK  9 active torsions:
REMARK  status: ('A' for Active; 'I' for Inactive)
REMARK    1  A    between atoms: C_1  and  O_2
REMARK    2  A    between atoms: O_2  and  C_3
REMARK    3  A    between atoms: C_3  and  C_5
REMARK    4  A    between atoms: C_5  and  C_6
REMARK    5  A    between atoms: C_5  and  N_10
REMARK    6  A    between atoms: C_6  and  C_7
REMARK    7  A    between atoms: C_7  and  C_8
REMARK    8  A    between atoms: C_7  and  C_9
REMARK    9  A    between atoms: C_14  and  C_15
REMARK                            x       y       z     vdW  Elec       q    Type
REMARK                         _______ _______ _______ _____ _____    ______ ____
ROOT
ATOM      1  N   UNL     1       5.003   4.693  17.927  0.00  0.00    +0.000 N 
ATOM      2  C   UNL     1       5.982   5.693  18.404  0.00  0.00    +0.000 C 
ATOM      3  C   UNL     1       7.260   5.788  17.520  0.00  0.00    +0.000 C 
ATOM      4  O   UNL     1       6.978   6.450  16.278  0.00  0.00    +0.000 OA
ATOM      5  C   UNL     1       6.565   5.411  15.381  0.00  0.00    +0.000 C 
ATOM      6  C   UNL     1       6.680   4.137  16.199  0.00  0.00    +0.000 C 
ATOM      7  O   UNL     1       7.653   4.458  17.202  0.00  0.00    +0.000 OA
ATOM      8  C   UNL     1       5.283   3.922  16.796  0.00  0.00    +0.000 C 
ATOM      9  O   UNL     1       4.452   3.193  16.263  0.00  0.00    +0.000 OA
ENDROOT
BRANCH   5  10
ATOM     10  C   UNL     1       7.290   5.275  14.027  0.00  0.00    +0.000 C 
ATOM     11  O   UNL     1       8.444   5.665  13.868  0.00  0.00    +0.000 OA
ATOM     12  N   UNL     1       6.622   4.557  13.038  0.00  0.00    +0.000 N 
ATOM     13  C   UNL     1       7.364   4.075  11.876  0.00  0.00    +0.000 C 
ATOM     14  C   UNL     1       7.053   2.597  11.632  0.00  0.00    +0.000 C 
ATOM     15  C   UNL     1       5.548   2.357  11.518  0.00  0.00    +0.000 C 
ATOM     16  C   UNL     1       4.805   2.925  12.725  0.00  0.00    +0.000 C 
ATOM     17  C   UNL     1       5.175   4.384  12.968  0.00  0.00    +0.000 C 
ENDBRANCH   5  10
BRANCH   1  18
ATOM     18  C   UNL     1       3.674   4.597  18.585  0.00  0.00    +0.000 C 
BRANCH  18  19
ATOM     19  C   UNL     1       3.090   5.994  18.951  0.00  0.00    +0.000 C 
ATOM     20  O   UNL     1       2.813   6.381  20.080  0.00  0.00    +0.000 OA
BRANCH  19  22
ATOM     21  C   UNL     1       2.632   8.091  17.993  0.00  0.00    +0.000 C 
ATOM     22  O   UNL     1       2.748   6.680  17.816  0.00  0.00    +0.000 OA
ENDBRANCH  19  22
ENDBRANCH  18  19
BRANCH  18  23
ATOM     23  C   UNL     1       3.692   3.546  19.718  0.00  0.00    +0.000 C 
BRANCH  23  24
ATOM     24  C   UNL     1       2.434   2.661  19.879  0.00  0.00    +0.000 C 
ATOM     25  C   UNL     1       1.531   3.086  21.039  0.00  0.00    +0.000 C 
ATOM     26  C   UNL     1       1.623   2.627  18.580  0.00  0.00    +0.000 C 
ENDBRANCH  23  24
ENDBRANCH  18  23
ENDBRANCH   1  18
TORSDOF 6
ENDMDL
MODEL 3
REMARK VINA RESULT:      -6.4      3.547      5.827
REMARK  Name = 
REMARK  9 active torsions:
REMARK  status: ('A' for Active; 'I' for Inactive)
REMARK    1  A    between atoms: C_1  and  O_2
REMARK    2  A    between atoms: O_2  and  C_3
REMARK    3  A    between atoms: C_3  and  C_5
REMARK    4  A    between atoms: C_5  and  C_6
REMARK    5  A    between atoms: C_5  and  N_10
REMARK    6  A    between atoms: C_6  and  C_7
REMARK    7  A    between atoms: C_7  and  C_8
REMARK    8  A    between atoms: C_7  and  C_9
REMARK    9  A    between atoms: C_14  and  C_15
REMARK                            x       y       z     vdW  Elec       q    Type
REMARK                         _______ _______ _______ _____ _____    ______ ____
ROOT
ATOM      1  N   UNL     1       1.641   7.578  19.933  0.00  0.00    +0.000 N 
ATOM      2  C   UNL     1       1.241   6.529  20.894  0.00  0.00    +0.000 C 
ATOM      3  C   UNL     1       1.782   5.113  20.537  0.00  0.00    +0.000 C 
ATOM      4  O   UNL     1       3.189   5.018  20.805  0.00  0.00    +0.000 OA
ATOM      5  C   UNL     1       3.833   5.451  19.601  0.00  0.00    +0.000 C 
ATOM      6  C   UNL     1       2.691   5.748  18.646  0.00  0.00    +0.000 C 
ATOM      7  O   UNL     1       1.614   4.938  19.135  0.00  0.00    +0.000 OA
ATOM      8  C   UNL     1       2.412   7.248  18.816  0.00  0.00    +0.000 C 
ATOM      9  O   UNL     1       2.905   8.090  18.072  0.00  0.00    +0.000 OA
ENDROOT
BRANCH   5  10
ATOM     10  C   UNL     1       4.880   4.524  18.951  0.00  0.00    +0.000 C 
ATOM     11  O   UNL     1       5.108   3.398  19.386  0.00  0.00    +0.000 OA
ATOM     12  N   UNL     1       5.449   4.973  17.761  0.00  0.00    +0.000 N 
ATOM     13  C   UNL     1       6.159   4.028  16.904  0.00  0.00    +0.000 C 
ATOM     14  C   UNL     1       5.679   4.169  15.458  0.00  0.00    +0.000 C 
ATOM     15  C   UNL     1       5.793   5.613  14.973  0.00  0.00    +0.000 C 
ATOM     16  C   UNL     1       5.084   6.573  15.926  0.00  0.00    +0.000 C 
ATOM     17  C   UNL     1       5.551   6.374  17.363  0.00  0.00    +0.000 C 
ENDBRANCH   5  10
BRANCH   1  18
ATOM     18  C   UNL     1       1.323   9.000  20.225  0.00  0.00    +0.000 C 
BRANCH  18  19
ATOM     19  C   UNL     1       1.083   9.255  21.743  0.00  0.00    +0.000 C 
ATOM     20  O   UNL     1       1.953   9.349  22.600  0.00  0.00    +0.000 OA
BRANCH  19  22
ATOM     21  C   UNL     1      -0.680  10.047  23.082  0.00  0.00    +0.000 C 
ATOM     22  O   UNL     1      -0.253   9.176  22.035  0.00  0.00    +0.000 OA
ENDBRANCH  19  22
ENDBRANCH  18  19
BRANCH  18  23
ATOM     23  C   UNL     1       0.236   9.533  19.263  0.00  0.00    +0.000 C 
BRANCH  23  24
ATOM     24  C   UNL     1       0.343  11.012  18.828  0.00  0.00    +0.000 C 
ATOM     25  C   UNL     1      -0.311  11.987  19.809  0.00  0.00    +0.000 C 
ATOM     26  C   UNL     1       1.807  11.408  18.605  0.00  0.00    +0.000 C 
ENDBRANCH  23  24
ENDBRANCH  18  23
ENDBRANCH   1  18
TORSDOF 6
ENDMDL
MODEL 4
REMARK VINA RESULT:      -6.4      2.096      7.414
REMARK  Name = 
REMARK  9 active torsions:
REMARK  status: ('A' for Active; 'I' for Inactive)
REMARK    1  A    between atoms: C_1  and  O_2
REMARK    2  A    between atoms: O_2  and  C_3
REMARK    3  A    between atoms: C_3  and  C_5
REMARK    4  A    between atoms: C_5  and  C_6
REMARK    5  A    between atoms: C_5  and  N_10
REMARK    6  A    between atoms: C_6  and  C_7
REMARK    7  A    between atoms: C_7  and  C_8
REMARK    8  A    between atoms: C_7  and  C_9
REMARK    9  A    between atoms: C_14  and  C_15
REMARK                            x       y       z     vdW  Elec       q    Type
REMARK                         _______ _______ _______ _____ _____    ______ ____
ROOT
ATOM      1  N   UNL     1       5.362   4.503  17.475  0.00  0.00    +0.000 N 
ATOM      2  C   UNL     1       4.234   3.846  16.782  0.00  0.00    +0.000 C 
ATOM      3  C   UNL     1       2.990   3.618  17.690  0.00  0.00    +0.000 C 
ATOM      4  O   UNL     1       2.301   4.853  17.937  0.00  0.00    +0.000 OA
ATOM      5  C   UNL     1       2.920   5.403  19.106  0.00  0.00    +0.000 C 
ATOM      6  C   UNL     1       3.960   4.372  19.506  0.00  0.00    +0.000 C 
ATOM      7  O   UNL     1       3.464   3.148  18.946  0.00  0.00    +0.000 OA
ATOM      8  C   UNL     1       5.257   4.834  18.828  0.00  0.00    +0.000 C 
ATOM      9  O   UNL     1       6.090   5.517  19.416  0.00  0.00    +0.000 OA
ENDROOT
BRANCH   5  10
ATOM     10  C   UNL     1       2.025   5.788  20.302  0.00  0.00    +0.000 C 
ATOM     11  O   UNL     1       1.922   5.068  21.292  0.00  0.00    +0.000 OA
ATOM     12  N   UNL     1       1.455   7.058  20.264  0.00  0.00    +0.000 N 
ATOM     13  C   UNL     1       0.905   7.635  21.488  0.00  0.00    +0.000 C 
ATOM     14  C   UNL     1       1.424   9.062  21.674  0.00  0.00    +0.000 C 
ATOM     15  C   UNL     1       1.151   9.919  20.438  0.00  0.00    +0.000 C 
ATOM     16  C   UNL     1       1.693   9.253  19.175  0.00  0.00    +0.000 C 
ATOM     17  C   UNL     1       1.195   7.819  19.046  0.00  0.00    +0.000 C 
ENDBRANCH   5  10
BRANCH   1  18
ATOM     18  C   UNL     1       6.559   4.917  16.698  0.00  0.00    +0.000 C 
BRANCH  18  19
ATOM     19  C   UNL     1       6.584   6.449  16.417  0.00  0.00    +0.000 C 
ATOM     20  O   UNL     1       5.701   7.090  15.858  0.00  0.00    +0.000 OA
BRANCH  19  22
ATOM     21  C   UNL     1       7.788   8.075  17.613  0.00  0.00    +0.000 C 
ATOM     22  O   UNL     1       7.816   6.969  16.712  0.00  0.00    +0.000 OA
ENDBRANCH  19  22
ENDBRANCH  18  19
BRANCH  18  23
ATOM     23  C   UNL     1       6.771   3.995  15.475  0.00  0.00    +0.000 C 
BRANCH  23  24
ATOM     24  C   UNL     1       6.519   4.607  14.078  0.00  0.00    +0.000 C 
ATOM     25  C   UNL     1       7.796   5.067  13.372  0.00  0.00    +0.000 C 
ATOM     26  C   UNL     1       5.760   3.622  13.182  0.00  0.00    +0.000 C 
ENDBRANCH  23  24
ENDBRANCH  18  23
ENDBRANCH   1  18
TORSDOF 6
ENDMDL
MODEL 5
REMARK VINA RESULT:      -6.3      1.358      2.019
REMARK  Name = 
REMARK  9 active torsions:
REMARK  status: ('A' for Active; 'I' for Inactive)
REMARK    1  A    between atoms: C_1  and  O_2
REMARK    2  A    between atoms: O_2  and  C_3
REMARK    3  A    between atoms: C_3  and  C_5
REMARK    4  A    between atoms: C_5  and  C_6
REMARK    5  A    between atoms: C_5  and  N_10
REMARK    6  A    between atoms: C_6  and  C_7
REMARK    7  A    between atoms: C_7  and  C_8
REMARK    8  A    between atoms: C_7  and  C_9
REMARK    9  A    between atoms: C_14  and  C_15
REMARK                            x       y       z     vdW  Elec       q    Type
REMARK                         _______ _______ _______ _____ _____    ______ ____
ROOT
ATOM      1  N   UNL     1       5.161   5.282  18.239  0.00  0.00    +0.000 N 
ATOM      2  C   UNL     1       4.266   6.233  17.547  0.00  0.00    +0.000 C 
ATOM      3  C   UNL     1       4.874   6.829  16.243  0.00  0.00    +0.000 C 
ATOM      4  O   UNL     1       4.885   5.856  15.189  0.00  0.00    +0.000 OA
ATOM      5  C   UNL     1       6.131   5.163  15.326  0.00  0.00    +0.000 C 
ATOM      6  C   UNL     1       6.818   5.847  16.495  0.00  0.00    +0.000 C 
ATOM      7  O   UNL     1       6.231   7.155  16.521  0.00  0.00    +0.000 OA
ATOM      8  C   UNL     1       6.432   5.014  17.724  0.00  0.00    +0.000 C 
ATOM      9  O   UNL     1       7.155   4.124  18.161  0.00  0.00    +0.000 OA
ENDROOT
BRANCH   5  10
ATOM     10  C   UNL     1       7.064   5.074  14.102  0.00  0.00    +0.000 C 
ATOM     11  O   UNL     1       8.221   5.487  14.138  0.00  0.00    +0.000 OA
ATOM     12  N   UNL     1       6.575   4.373  13.001  0.00  0.00    +0.000 N 
ATOM     13  C   UNL     1       7.502   3.935  11.961  0.00  0.00    +0.000 C 
ATOM     14  C   UNL     1       7.263   2.460  11.635  0.00  0.00    +0.000 C 
ATOM     15  C   UNL     1       5.800   2.199  11.277  0.00  0.00    +0.000 C 
ATOM     16  C   UNL     1       4.864   2.722  12.365  0.00  0.00    +0.000 C 
ATOM     17  C   UNL     1       5.161   4.179  12.699  0.00  0.00    +0.000 C 
ENDBRANCH   5  10
BRANCH   1  18
ATOM     18  C   UNL     1       4.657   4.523  19.413  0.00  0.00    +0.000 C 
BRANCH  18  19
ATOM     19  C   UNL     1       4.485   3.005  19.110  0.00  0.00    +0.000 C 
ATOM     20  O   UNL     1       4.900   2.084  19.805  0.00  0.00    +0.000 OA
BRANCH  19  22
ATOM     21  C   UNL     1       2.807   1.990  17.815  0.00  0.00    +0.000 C 
ATOM     22  O   UNL     1       3.964   2.824  17.857  0.00  0.00    +0.000 OA
ENDBRANCH  19  22
ENDBRANCH  18  19
BRANCH  18  23
ATOM     23  C   UNL     1       3.442   5.234  20.052  0.00  0.00    +0.000 C 
BRANCH  23  24
ATOM     24  C   UNL     1       2.215   4.360  20.397  0.00  0.00    +0.000 C 
ATOM     25  C   UNL     1       2.340   3.631  21.737  0.00  0.00    +0.000 C 
ATOM     26  C   UNL     1       0.931   5.196  20.383  0.00  0.00    +0.000 C 
ENDBRANCH  23  24
ENDBRANCH  18  23
ENDBRANCH   1  18
TORSDOF 6
ENDMDL
MODEL 6
REMARK VINA RESULT:      -5.8      3.218      5.536
REMARK  Name = 
REMARK  9 active torsions:
REMARK  status: ('A' for Active; 'I' for Inactive)
REMARK    1  A    between atoms: C_1  and  O_2
REMARK    2  A    between atoms: O_2  and  C_3
REMARK    3  A    between atoms: C_3  and  C_5
REMARK    4  A    between atoms: C_5  and  C_6
REMARK    5  A    between atoms: C_5  and  N_10
REMARK    6  A    between atoms: C_6  and  C_7
REMARK    7  A    between atoms: C_7  and  C_8
REMARK    8  A    between atoms: C_7  and  C_9
REMARK    9  A    between atoms: C_14  and  C_15
REMARK                            x       y       z     vdW  Elec       q    Type
REMARK                         _______ _______ _______ _____ _____    ______ ____
ROOT
ATOM      1  N   UNL     1       1.765   6.817  19.903  0.00  0.00    +0.000 N 
ATOM      2  C   UNL     1       1.463   5.734  20.863  0.00  0.00    +0.000 C 
ATOM      3  C   UNL     1       1.782   4.310  20.319  0.00  0.00    +0.000 C 
ATOM      4  O   UNL     1       3.197   4.076  20.288  0.00  0.00    +0.000 OA
ATOM      5  C   UNL     1       3.630   4.547  19.005  0.00  0.00    +0.000 C 
ATOM      6  C   UNL     1       2.355   5.011  18.323  0.00  0.00    +0.000 C 
ATOM      7  O   UNL     1       1.322   4.259  18.974  0.00  0.00    +0.000 OA
ATOM      8  C   UNL     1       2.263   6.511  18.635  0.00  0.00    +0.000 C 
ATOM      9  O   UNL     1       2.679   7.364  17.856  0.00  0.00    +0.000 OA
ENDROOT
BRANCH   5  10
ATOM     10  C   UNL     1       4.431   3.588  18.101  0.00  0.00    +0.000 C 
ATOM     11  O   UNL     1       4.245   2.374  18.117  0.00  0.00    +0.000 OA
ATOM     12  N   UNL     1       5.273   4.183  17.164  0.00  0.00    +0.000 N 
ATOM     13  C   UNL     1       5.781   3.387  16.049  0.00  0.00    +0.000 C 
ATOM     14  C   UNL     1       5.578   4.139  14.733  0.00  0.00    +0.000 C 
ATOM     15  C   UNL     1       6.190   5.539  14.792  0.00  0.00    +0.000 C 
ATOM     16  C   UNL     1       5.674   6.316  16.002  0.00  0.00    +0.000 C 
ATOM     17  C   UNL     1       5.848   5.518  17.289  0.00  0.00    +0.000 C 
ENDBRANCH   5  10
BRANCH   1  18
ATOM     18  C   UNL     1       1.651   8.234  20.338  0.00  0.00    +0.000 C 
BRANCH  18  19
ATOM     19  C   UNL     1       0.590   8.427  21.462  0.00  0.00    +0.000 C 
ATOM     20  O   UNL     1      -0.598   8.136  21.383  0.00  0.00    +0.000 OA
BRANCH  19  22
ATOM     21  C   UNL     1       0.163   9.582  23.464  0.00  0.00    +0.000 C 
ATOM     22  O   UNL     1       1.121   9.142  22.501  0.00  0.00    +0.000 OA
ENDBRANCH  19  22
ENDBRANCH  18  19
BRANCH  18  23
ATOM     23  C   UNL     1       1.535   9.179  19.120  0.00  0.00    +0.000 C 
BRANCH  23  24
ATOM     24  C   UNL     1       0.623  10.417  19.272  0.00  0.00    +0.000 C 
ATOM     25  C   UNL     1       1.336  11.741  18.989  0.00  0.00    +0.000 C 
ATOM     26  C   UNL     1      -0.614  10.294  18.375  0.00  0.00    +0.000 C 
ENDBRANCH  23  24
ENDBRANCH  18  23
ENDBRANCH   1  18
TORSDOF 6
ENDMDL
MODEL 7
REMARK VINA RESULT:      -5.8      1.373      1.845
REMARK  Name = 
REMARK  9 active torsions:
REMARK  status: ('A' for Active; 'I' for Inactive)
REMARK    1  A    between atoms: C_1  and  O_2
REMARK    2  A    between atoms: O_2  and  C_3
REMARK    3  A    between atoms: C_3  and  C_5
REMARK    4  A    between atoms: C_5  and  C_6
REMARK    5  A    between atoms: C_5  and  N_10
REMARK    6  A    between atoms: C_6  and  C_7
REMARK    7  A    between atoms: C_7  and  C_8
REMARK    8  A    between atoms: C_7  and  C_9
REMARK    9  A    between atoms: C_14  and  C_15
REMARK                            x       y       z     vdW  Elec       q    Type
REMARK                         _______ _______ _______ _____ _____    ______ ____
ROOT
ATOM      1  N   UNL     1       4.188   5.081  17.737  0.00  0.00    +0.000 N 
ATOM      2  C   UNL     1       4.225   6.531  17.452  0.00  0.00    +0.000 C 
ATOM      3  C   UNL     1       5.427   6.963  16.562  0.00  0.00    +0.000 C 
ATOM      4  O   UNL     1       5.231   6.559  15.199  0.00  0.00    +0.000 OA
ATOM      5  C   UNL     1       5.779   5.238  15.114  0.00  0.00    +0.000 C 
ATOM      6  C   UNL     1       6.327   4.964  16.504  0.00  0.00    +0.000 C 
ATOM      7  O   UNL     1       6.575   6.271  17.039  0.00  0.00    +0.000 OA
ATOM      8  C   UNL     1       5.190   4.243  17.241  0.00  0.00    +0.000 C 
ATOM      9  O   UNL     1       5.132   3.019  17.309  0.00  0.00    +0.000 OA
ENDROOT
BRANCH   5  10
ATOM     10  C   UNL     1       6.837   4.949  14.029  0.00  0.00    +0.000 C 
ATOM     11  O   UNL     1       8.029   5.185  14.207  0.00  0.00    +0.000 OA
ATOM     12  N   UNL     1       6.391   4.273  12.896  0.00  0.00    +0.000 N 
ATOM     13  C   UNL     1       7.363   3.647  12.004  0.00  0.00    +0.000 C 
ATOM     14  C   UNL     1       6.943   2.210  11.695  0.00  0.00    +0.000 C 
ATOM     15  C   UNL     1       5.515   2.152  11.152  0.00  0.00    +0.000 C 
ATOM     16  C   UNL     1       4.540   2.864  12.087  0.00  0.00    +0.000 C 
ATOM     17  C   UNL     1       5.014   4.276  12.412  0.00  0.00    +0.000 C 
ENDBRANCH   5  10
BRANCH   1  18
ATOM     18  C   UNL     1       3.018   4.503  18.448  0.00  0.00    +0.000 C 
BRANCH  18  19
ATOM     19  C   UNL     1       2.401   3.291  17.689  0.00  0.00    +0.000 C 
ATOM     20  O   UNL     1       2.085   3.272  16.506  0.00  0.00    +0.000 OA
BRANCH  19  22
ATOM     21  C   UNL     1       0.691   2.203  18.880  0.00  0.00    +0.000 C 
ATOM     22  O   UNL     1       2.081   2.291  18.568  0.00  0.00    +0.000 OA
ENDBRANCH  19  22
ENDBRANCH  18  19
BRANCH  18  23
ATOM     23  C   UNL     1       2.032   5.611  18.882  0.00  0.00    +0.000 C 
BRANCH  23  24
ATOM     24  C   UNL     1       1.574   5.610  20.359  0.00  0.00    +0.000 C 
ATOM     25  C   UNL     1       2.322   4.597  21.230  0.00  0.00    +0.000 C 
ATOM     26  C   UNL     1       1.703   7.010  20.969  0.00  0.00    +0.000 C 
ENDBRANCH  23  24
ENDBRANCH  18  23
ENDBRANCH   1  18
TORSDOF 6
ENDMDL
MODEL 8
REMARK VINA RESULT:      -5.8      1.271      1.885
REMARK  Name = 
REMARK  9 active torsions:
REMARK  status: ('A' for Active; 'I' for Inactive)
REMARK    1  A    between atoms: C_1  and  O_2
REMARK    2  A    between atoms: O_2  and  C_3
REMARK    3  A    between atoms: C_3  and  C_5
REMARK    4  A    between atoms: C_5  and  C_6
REMARK    5  A    between atoms: C_5  and  N_10
REMARK    6  A    between atoms: C_6  and  C_7
REMARK    7  A    between atoms: C_7  and  C_8
REMARK    8  A    between atoms: C_7  and  C_9
REMARK    9  A    between atoms: C_14  and  C_15
REMARK                            x       y       z     vdW  Elec       q    Type
REMARK                         _______ _______ _______ _____ _____    ______ ____
ROOT
ATOM      1  N   UNL     1       4.986   5.104  17.944  0.00  0.00    +0.000 N 
ATOM      2  C   UNL     1       4.254   6.220  17.308  0.00  0.00    +0.000 C 
ATOM      3  C   UNL     1       5.001   6.848  16.095  0.00  0.00    +0.000 C 
ATOM      4  O   UNL     1       4.949   5.980  14.953  0.00  0.00    +0.000 OA
ATOM      5  C   UNL     1       6.091   5.123  15.077  0.00  0.00    +0.000 C 
ATOM      6  C   UNL     1       6.793   5.606  16.334  0.00  0.00    +0.000 C 
ATOM      7  O   UNL     1       6.371   6.971  16.460  0.00  0.00    +0.000 OA
ATOM      8  C   UNL     1       6.240   4.723  17.461  0.00  0.00    +0.000 C 
ATOM      9  O   UNL     1       6.824   3.712  17.840  0.00  0.00    +0.000 OA
ENDROOT
BRANCH   5  10
ATOM     10  C   UNL     1       7.071   5.026  13.891  0.00  0.00    +0.000 C 
ATOM     11  O   UNL     1       8.212   5.479  13.954  0.00  0.00    +0.000 OA
ATOM     12  N   UNL     1       6.647   4.272  12.799  0.00  0.00    +0.000 N 
ATOM     13  C   UNL     1       7.625   3.831  11.808  0.00  0.00    +0.000 C 
ATOM     14  C   UNL     1       7.448   2.338  11.525  0.00  0.00    +0.000 C 
ATOM     15  C   UNL     1       6.009   2.016  11.124  0.00  0.00    +0.000 C 
ATOM     16  C   UNL     1       5.016   2.542  12.159  0.00  0.00    +0.000 C 
ATOM     17  C   UNL     1       5.252   4.019  12.452  0.00  0.00    +0.000 C 
ENDBRANCH   5  10
BRANCH   1  18
ATOM     18  C   UNL     1       4.330   4.314  19.018  0.00  0.00    +0.000 C 
BRANCH  18  19
ATOM     19  C   UNL     1       3.475   3.141  18.454  0.00  0.00    +0.000 C 
ATOM     20  O   UNL     1       2.783   3.180  17.443  0.00  0.00    +0.000 OA
BRANCH  19  22
ATOM     21  C   UNL     1       4.591   2.020  20.192  0.00  0.00    +0.000 C 
ATOM     22  O   UNL     1       3.447   2.100  19.343  0.00  0.00    +0.000 OA
ENDBRANCH  19  22
ENDBRANCH  18  19
BRANCH  18  23
ATOM     23  C   UNL     1       3.629   5.242  20.037  0.00  0.00    +0.000 C 
BRANCH  23  24
ATOM     24  C   UNL     1       2.093   5.375  19.929  0.00  0.00    +0.000 C 
ATOM     25  C   UNL     1       1.329   4.344  20.764  0.00  0.00    +0.000 C 
ATOM     26  C   UNL     1       1.641   6.787  20.316  0.00  0.00    +0.000 C 
ENDBRANCH  23  24
ENDBRANCH  18  23
ENDBRANCH   1  18
TORSDOF 6
ENDMDL
MODEL 9
REMARK VINA RESULT:      -5.7      1.802      6.974
REMARK  Name = 
REMARK  9 active torsions:
REMARK  status: ('A' for Active; 'I' for Inactive)
REMARK    1  A    between atoms: C_1  and  O_2
REMARK    2  A    between atoms: O_2  and  C_3
REMARK    3  A    between atoms: C_3  and  C_5
REMARK    4  A    between atoms: C_5  and  C_6
REMARK    5  A    between atoms: C_5  and  N_10
REMARK    6  A    between atoms: C_6  and  C_7
REMARK    7  A    between atoms: C_7  and  C_8
REMARK    8  A    between atoms: C_7  and  C_9
REMARK    9  A    between atoms: C_14  and  C_15
REMARK                            x       y       z     vdW  Elec       q    Type
REMARK                         _______ _______ _______ _____ _____    ______ ____
ROOT
ATOM      1  N   UNL     1       6.618   4.724  15.326  0.00  0.00    +0.000 N 
ATOM      2  C   UNL     1       7.405   4.173  16.449  0.00  0.00    +0.000 C 
ATOM      3  C   UNL     1       7.004   4.753  17.838  0.00  0.00    +0.000 C 
ATOM      4  O   UNL     1       5.746   4.219  18.275  0.00  0.00    +0.000 OA
ATOM      5  C   UNL     1       4.754   5.103  17.738  0.00  0.00    +0.000 C 
ATOM      6  C   UNL     1       5.551   6.175  17.018  0.00  0.00    +0.000 C 
ATOM      7  O   UNL     1       6.826   6.155  17.674  0.00  0.00    +0.000 OA
ATOM      8  C   UNL     1       5.640   5.693  15.564  0.00  0.00    +0.000 C 
ATOM      9  O   UNL     1       4.852   6.072  14.703  0.00  0.00    +0.000 OA
ENDROOT
BRANCH   5  10
ATOM     10  C   UNL     1       3.722   5.724  18.701  0.00  0.00    +0.000 C 
ATOM     11  O   UNL     1       3.354   6.891  18.591  0.00  0.00    +0.000 OA
ATOM     12  N   UNL     1       3.124   4.855  19.611  0.00  0.00    +0.000 N 
ATOM     13  C   UNL     1       1.902   5.265  20.298  0.00  0.00    +0.000 C 
ATOM     14  C   UNL     1       0.852   4.157  20.208  0.00  0.00    +0.000 C 
ATOM     15  C   UNL     1       1.403   2.825  20.718  0.00  0.00    +0.000 C 
ATOM     16  C   UNL     1       2.708   2.462  20.013  0.00  0.00    +0.000 C 
ATOM     17  C   UNL     1       3.713   3.605  20.081  0.00  0.00    +0.000 C 
ENDBRANCH   5  10
BRANCH   1  18
ATOM     18  C   UNL     1       6.788   4.156  13.963  0.00  0.00    +0.000 C 
BRANCH  18  19
ATOM     19  C   UNL     1       7.595   5.099  13.023  0.00  0.00    +0.000 C 
ATOM     20  O   UNL     1       7.555   5.096  11.798  0.00  0.00    +0.000 OA
BRANCH  19  22
ATOM     21  C   UNL     1       9.690   6.167  13.018  0.00  0.00    +0.000 C 
ATOM     22  O   UNL     1       8.509   5.822  13.742  0.00  0.00    +0.000 OA
ENDBRANCH  19  22
ENDBRANCH  18  19
BRANCH  18  23
ATOM     23  C   UNL     1       5.444   3.628  13.412  0.00  0.00    +0.000 C 
BRANCH  23  24
ATOM     24  C   UNL     1       5.396   3.249  11.914  0.00  0.00    +0.000 C 
ATOM     25  C   UNL     1       5.971   1.863  11.614  0.00  0.00    +0.000 C 
ATOM     26  C   UNL     1       3.965   3.341  11.375  0.00  0.00    +0.000 C 
ENDBRANCH  23  24
ENDBRANCH  18  23
ENDBRANCH   1  18
TORSDOF 6
ENDMDL
