MODEL 1
REMARK VINA RESULT:      -8.1      0.000      0.000
REMARK  Name = 
REMARK  6 active torsions:
REMARK  status: ('A' for Active; 'I' for Inactive)
REMARK    1  A    between atoms: C_1  and  C_2
REMARK    2  A    between atoms: C_2  and  C_3
REMARK    3  A    between atoms: C_3  and  N_4
REMARK    4  A    between atoms: C_7  and  C_9
REMARK    5  A    between atoms: N_13  and  S_14
REMARK    6  A    between atoms: S_14  and  C_17
REMARK                            x       y       z     vdW  Elec       q    Type
REMARK                         _______ _______ _______ _____ _____    ______ ____
ROOT
ATOM      1  N   UNL     1       2.819   5.412  19.792  0.00  0.00    +0.000 N 
ATOM      2  C   UNL     1       2.682   6.742  19.421  0.00  0.00    +0.000 A 
ATOM      3  N   UNL     1       2.050   7.649  20.238  0.00  0.00    +0.000 N 
ATOM      4  C   UNL     1       1.624   8.914  19.846  0.00  0.00    +0.000 C 
ATOM      5  O   UNL     1       1.930   9.552  18.850  0.00  0.00    +0.000 OA
ATOM      6  N   UNL     1       3.169   6.936  18.219  0.00  0.00    +0.000 NA
ATOM      7  C   UNL     1       3.687   5.730  17.817  0.00  0.00    +0.000 A 
ATOM      8  C   UNL     1       4.345   5.390  16.625  0.00  0.00    +0.000 A 
ATOM      9  C   UNL     1       4.795   4.074  16.447  0.00  0.00    +0.000 A 
ATOM     10  C   UNL     1       4.586   3.109  17.433  0.00  0.00    +0.000 A 
ATOM     11  C   UNL     1       3.926   3.427  18.623  0.00  0.00    +0.000 A 
ATOM     12  C   UNL     1       3.489   4.749  18.788  0.00  0.00    +0.000 A 
ATOM     13  H   UNL     1       1.758   7.315  21.142  0.00  0.00    +0.000 HD
ENDROOT
BRANCH   4  14
ATOM     14  C   UNL     1       0.502   9.359  20.777  0.00  0.00    +0.000 C 
ATOM     15  C   UNL     1       0.772   9.499  22.269  0.00  0.00    +0.000 C 
ATOM     16  C   UNL     1      -0.579   9.813  22.937  0.00  0.00    +0.000 C 
ATOM     17  C   UNL     1      -1.264  11.059  22.345  0.00  0.00    +0.000 C 
ATOM     18  N   UNL     1      -1.294  11.023  20.847  0.00  0.00    +0.000 NA
ATOM     19  C   UNL     1       0.041  10.722  20.266  0.00  0.00    +0.000 C 
BRANCH  18  20
ATOM     20  S   UNL     1      -1.947  12.437  20.112  0.00  0.00    +0.000 S 
ATOM     21  O   UNL     1      -2.713  13.142  21.118  0.00  0.00    +0.000 OA
ATOM     22  O   UNL     1      -0.889  13.094  19.374  0.00  0.00    +0.000 OA
BRANCH  20  23
ATOM     23  C   UNL     1      -3.127  11.951  18.887  0.00  0.00    +0.000 A 
ATOM     24  C   UNL     1      -4.507  11.950  18.886  0.00  0.00    +0.000 A 
ATOM     25  C   UNL     1      -5.045  11.515  17.642  0.00  0.00    +0.000 A 
ATOM     26  C   UNL     1      -4.056  11.202  16.736  0.00  0.00    +0.000 A 
ATOM     27  S   UNL     1      -2.490  11.416  17.392  0.00  0.00    +0.000 S 
ENDBRANCH  20  23
ENDBRANCH  18  20
ENDBRANCH   4  14
BRANCH   1  28
ATOM     28  C   UNL     1       2.338   4.784  21.011  0.00  0.00    +0.000 C 
BRANCH  28  30
ATOM     29  C   UNL     1       1.397   2.486  21.617  0.00  0.00    +0.000 C 
ATOM     30  C   UNL     1       1.198   3.774  20.832  0.00  0.00    +0.000 C 
ENDBRANCH  28  30
ENDBRANCH   1  28
TORSDOF 5
ENDMDL
MODEL 2
REMARK VINA RESULT:      -7.8      1.023      1.233
REMARK  Name = 
REMARK  6 active torsions:
REMARK  status: ('A' for Active; 'I' for Inactive)
REMARK    1  A    between atoms: C_1  and  C_2
REMARK    2  A    between atoms: C_2  and  C_3
REMARK    3  A    between atoms: C_3  and  N_4
REMARK    4  A    between atoms: C_7  and  C_9
REMARK    5  A    between atoms: N_13  and  S_14
REMARK    6  A    between atoms: S_14  and  C_17
REMARK                            x       y       z     vdW  Elec       q    Type
REMARK                         _______ _______ _______ _____ _____    ______ ____
ROOT
ATOM      1  N   UNL     1       3.589   5.428  18.461  0.00  0.00    +0.000 N 
ATOM      2  C   UNL     1       3.369   6.784  18.271  0.00  0.00    +0.000 A 
ATOM      3  N   UNL     1       2.632   7.520  19.168  0.00  0.00    +0.000 N 
ATOM      4  C   UNL     1       2.131   8.797  18.931  0.00  0.00    +0.000 C 
ATOM      5  O   UNL     1       2.435   9.589  18.053  0.00  0.00    +0.000 OA
ATOM      6  N   UNL     1       3.897   7.181  17.138  0.00  0.00    +0.000 NA
ATOM      7  C   UNL     1       4.523   6.082  16.603  0.00  0.00    +0.000 A 
ATOM      8  C   UNL     1       5.261   5.961  15.415  0.00  0.00    +0.000 A 
ATOM      9  C   UNL     1       5.817   4.718  15.082  0.00  0.00    +0.000 A 
ATOM     10  C   UNL     1       5.635   3.611  15.911  0.00  0.00    +0.000 A 
ATOM     11  C   UNL     1       4.896   3.710  17.093  0.00  0.00    +0.000 A 
ATOM     12  C   UNL     1       4.353   4.962  17.415  0.00  0.00    +0.000 A 
ATOM     13  H   UNL     1       2.324   7.042  19.998  0.00  0.00    +0.000 HD
ENDROOT
BRANCH   4  14
ATOM     14  C   UNL     1       0.935   9.027  19.849  0.00  0.00    +0.000 C 
ATOM     15  C   UNL     1       1.118   8.945  21.358  0.00  0.00    +0.000 C 
ATOM     16  C   UNL     1      -0.284   9.075  21.982  0.00  0.00    +0.000 C 
ATOM     17  C   UNL     1      -1.015  10.358  21.548  0.00  0.00    +0.000 C 
ATOM     18  N   UNL     1      -0.964  10.558  20.064  0.00  0.00    +0.000 NA
ATOM     19  C   UNL     1       0.416  10.426  19.527  0.00  0.00    +0.000 C 
BRANCH  18  20
ATOM     20  S   UNL     1      -1.667  12.031  19.517  0.00  0.00    +0.000 S 
ATOM     21  O   UNL     1      -2.310  12.660  20.652  0.00  0.00    +0.000 OA
ATOM     22  O   UNL     1      -0.682  12.737  18.724  0.00  0.00    +0.000 OA
BRANCH  20  23
ATOM     23  C   UNL     1      -2.979  11.656  18.391  0.00  0.00    +0.000 A 
ATOM     24  C   UNL     1      -4.351  11.746  18.512  0.00  0.00    +0.000 A 
ATOM     25  C   UNL     1      -5.023  11.379  17.311  0.00  0.00    +0.000 A 
ATOM     26  C   UNL     1      -4.139  11.025  16.316  0.00  0.00    +0.000 A 
ATOM     27  S   UNL     1      -2.511  11.118  16.836  0.00  0.00    +0.000 S 
ENDBRANCH  20  23
ENDBRANCH  18  20
ENDBRANCH   4  14
BRANCH   1  28
ATOM     28  C   UNL     1       3.099   4.601  19.551  0.00  0.00    +0.000 C 
BRANCH  28  30
ATOM     29  C   UNL     1       1.218   3.171  20.526  0.00  0.00    +0.000 C 
ATOM     30  C   UNL     1       1.639   4.145  19.435  0.00  0.00    +0.000 C 
ENDBRANCH  28  30
ENDBRANCH   1  28
TORSDOF 5
ENDMDL
MODEL 3
REMARK VINA RESULT:      -7.8      3.962      8.771
REMARK  Name = 
REMARK  6 active torsions:
REMARK  status: ('A' for Active; 'I' for Inactive)
REMARK    1  A    between atoms: C_1  and  C_2
REMARK    2  A    between atoms: C_2  and  C_3
REMARK    3  A    between atoms: C_3  and  N_4
REMARK    4  A    between atoms: C_7  and  C_9
REMARK    5  A    between atoms: N_13  and  S_14
REMARK    6  A    between atoms: S_14  and  C_17
REMARK                            x       y       z     vdW  Elec       q    Type
REMARK                         _______ _______ _______ _____ _____    ______ ____
ROOT
ATOM      1  N   UNL     1       0.088  10.730  20.139  0.00  0.00    +0.000 N 
ATOM      2  C   UNL     1       0.995  10.119  19.286  0.00  0.00    +0.000 A 
ATOM      3  N   UNL     1       1.203   8.761  19.320  0.00  0.00    +0.000 N 
ATOM      4  C   UNL     1       2.268   8.101  18.714  0.00  0.00    +0.000 C 
ATOM      5  O   UNL     1       3.040   8.515  17.861  0.00  0.00    +0.000 OA
ATOM      6  N   UNL     1       1.608  11.015  18.550  0.00  0.00    +0.000 NA
ATOM      7  C   UNL     1       1.055  12.226  18.883  0.00  0.00    +0.000 A 
ATOM      8  C   UNL     1       1.331  13.506  18.377  0.00  0.00    +0.000 A 
ATOM      9  C   UNL     1       0.619  14.605  18.878  0.00  0.00    +0.000 A 
ATOM     10  C   UNL     1      -0.345  14.436  19.873  0.00  0.00    +0.000 A 
ATOM     11  C   UNL     1      -0.627  13.170  20.395  0.00  0.00    +0.000 A 
ATOM     12  C   UNL     1       0.089  12.082  19.877  0.00  0.00    +0.000 A 
ATOM     13  H   UNL     1       0.617   8.230  19.943  0.00  0.00    +0.000 HD
ENDROOT
BRANCH   4  14
ATOM     14  C   UNL     1       2.490   6.775  19.431  0.00  0.00    +0.000 C 
ATOM     15  C   UNL     1       1.478   6.298  20.463  0.00  0.00    +0.000 C 
ATOM     16  C   UNL     1       2.060   5.023  21.099  0.00  0.00    +0.000 C 
ATOM     17  C   UNL     1       2.395   3.936  20.060  0.00  0.00    +0.000 C 
ATOM     18  N   UNL     1       3.184   4.485  18.911  0.00  0.00    +0.000 NA
ATOM     19  C   UNL     1       2.566   5.710  18.339  0.00  0.00    +0.000 C 
BRANCH  18  20
ATOM     20  S   UNL     1       3.501   3.349  17.656  0.00  0.00    +0.000 S 
ATOM     21  O   UNL     1       3.914   2.108  18.279  0.00  0.00    +0.000 OA
ATOM     22  O   UNL     1       2.399   3.390  16.719  0.00  0.00    +0.000 OA
BRANCH  20  23
ATOM     23  C   UNL     1       4.908   3.894  16.733  0.00  0.00    +0.000 A 
ATOM     24  C   UNL     1       5.154   3.952  15.376  0.00  0.00    +0.000 A 
ATOM     25  C   UNL     1       6.426   4.519  15.082  0.00  0.00    +0.000 A 
ATOM     26  C   UNL     1       7.105   4.876  16.226  0.00  0.00    +0.000 A 
ATOM     27  S   UNL     1       6.218   4.511  17.643  0.00  0.00    +0.000 S 
ENDBRANCH  20  23
ENDBRANCH  18  20
ENDBRANCH   4  14
BRANCH   1  28
ATOM     28  C   UNL     1      -0.728  10.093  21.159  0.00  0.00    +0.000 C 
BRANCH  28  30
ATOM     29  C   UNL     1       0.900   9.274  22.951  0.00  0.00    +0.000 C 
ATOM     30  C   UNL     1      -0.224  10.239  22.600  0.00  0.00    +0.000 C 
ENDBRANCH  28  30
ENDBRANCH   1  28
TORSDOF 5
ENDMDL
MODEL 4
REMARK VINA RESULT:      -7.7      1.445      1.987
REMARK  Name = 
REMARK  6 active torsions:
REMARK  status: ('A' for Active; 'I' for Inactive)
REMARK    1  A    between atoms: C_1  and  C_2
REMARK    2  A    between atoms: C_2  and  C_3
REMARK    3  A    between atoms: C_3  and  N_4
REMARK    4  A    between atoms: C_7  and  C_9
REMARK    5  A    between atoms: N_13  and  S_14
REMARK    6  A    between atoms: S_14  and  C_17
REMARK                            x       y       z     vdW  Elec       q    Type
REMARK                         _______ _______ _______ _____ _____    ______ ____
ROOT
ATOM      1  N   UNL     1       2.748   5.437  19.867  0.00  0.00    +0.000 N 
ATOM      2  C   UNL     1       2.613   6.770  19.510  0.00  0.00    +0.000 A 
ATOM      3  N   UNL     1       2.002   7.674  20.346  0.00  0.00    +0.000 N 
ATOM      4  C   UNL     1       1.577   8.946  19.973  0.00  0.00    +0.000 C 
ATOM      5  O   UNL     1       1.870   9.590  18.977  0.00  0.00    +0.000 OA
ATOM      6  N   UNL     1       3.080   6.972  18.302  0.00  0.00    +0.000 NA
ATOM      7  C   UNL     1       3.582   5.766  17.880  0.00  0.00    +0.000 A 
ATOM      8  C   UNL     1       4.216   5.431  16.674  0.00  0.00    +0.000 A 
ATOM      9  C   UNL     1       4.654   4.114  16.476  0.00  0.00    +0.000 A 
ATOM     10  C   UNL     1       4.456   3.142  17.457  0.00  0.00    +0.000 A 
ATOM     11  C   UNL     1       3.819   3.455  18.661  0.00  0.00    +0.000 A 
ATOM     12  C   UNL     1       3.394   4.777  18.845  0.00  0.00    +0.000 A 
ATOM     13  H   UNL     1       1.724   7.334  21.252  0.00  0.00    +0.000 HD
ENDROOT
BRANCH   4  14
ATOM     14  C   UNL     1       0.475   9.390  20.928  0.00  0.00    +0.000 C 
ATOM     15  C   UNL     1       0.689   9.273  22.431  0.00  0.00    +0.000 C 
ATOM     16  C   UNL     1      -0.643   9.657  23.099  0.00  0.00    +0.000 C 
ATOM     17  C   UNL     1      -1.140  11.054  22.684  0.00  0.00    +0.000 C 
ATOM     18  N   UNL     1      -1.102  11.244  21.198  0.00  0.00    +0.000 NA
ATOM     19  C   UNL     1       0.211  10.861  20.617  0.00  0.00    +0.000 C 
BRANCH  18  20
ATOM     20  S   UNL     1      -1.540  12.822  20.668  0.00  0.00    +0.000 S 
ATOM     21  O   UNL     1      -0.701  13.771  21.369  0.00  0.00    +0.000 OA
ATOM     22  O   UNL     1      -1.617  12.810  19.222  0.00  0.00    +0.000 OA
BRANCH  20  23
ATOM     23  C   UNL     1      -3.187  13.171  21.211  0.00  0.00    +0.000 A 
ATOM     24  C   UNL     1      -4.418  12.735  20.762  0.00  0.00    +0.000 A 
ATOM     25  C   UNL     1      -5.490  13.246  21.547  0.00  0.00    +0.000 A 
ATOM     26  C   UNL     1      -5.039  14.051  22.569  0.00  0.00    +0.000 A 
ATOM     27  S   UNL     1      -3.335  14.203  22.568  0.00  0.00    +0.000 S 
ENDBRANCH  20  23
ENDBRANCH  18  20
ENDBRANCH   4  14
BRANCH   1  28
ATOM     28  C   UNL     1       2.284   4.801  21.089  0.00  0.00    +0.000 C 
BRANCH  28  30
ATOM     29  C   UNL     1       1.550   2.421  21.662  0.00  0.00    +0.000 C 
ATOM     30  C   UNL     1       1.229   3.703  20.908  0.00  0.00    +0.000 C 
ENDBRANCH  28  30
ENDBRANCH   1  28
TORSDOF 5
ENDMDL
MODEL 5
REMARK VINA RESULT:      -7.6      4.237      9.043
REMARK  Name = 
REMARK  6 active torsions:
REMARK  status: ('A' for Active; 'I' for Inactive)
REMARK    1  A    between atoms: C_1  and  C_2
REMARK    2  A    between atoms: C_2  and  C_3
REMARK    3  A    between atoms: C_3  and  N_4
REMARK    4  A    between atoms: C_7  and  C_9
REMARK    5  A    between atoms: N_13  and  S_14
REMARK    6  A    between atoms: S_14  and  C_17
REMARK                            x       y       z     vdW  Elec       q    Type
REMARK                         _______ _______ _______ _____ _____    ______ ____
ROOT
ATOM      1  N   UNL     1       0.296   9.851  20.067  0.00  0.00    +0.000 N 
ATOM      2  C   UNL     1       1.079   9.575  18.957  0.00  0.00    +0.000 A 
ATOM      3  N   UNL     1       1.633   8.332  18.766  0.00  0.00    +0.000 N 
ATOM      4  C   UNL     1       2.640   8.039  17.850  0.00  0.00    +0.000 C 
ATOM      5  O   UNL     1       3.033   8.705  16.905  0.00  0.00    +0.000 OA
ATOM      6  N   UNL     1       1.231  10.651  18.222  0.00  0.00    +0.000 NA
ATOM      7  C   UNL     1       0.488  11.634  18.828  0.00  0.00    +0.000 A 
ATOM      8  C   UNL     1       0.285  12.969  18.443  0.00  0.00    +0.000 A 
ATOM      9  C   UNL     1      -0.534  13.788  19.233  0.00  0.00    +0.000 A 
ATOM     10  C   UNL     1      -1.133  13.293  20.391  0.00  0.00    +0.000 A 
ATOM     11  C   UNL     1      -0.935  11.970  20.795  0.00  0.00    +0.000 A 
ATOM     12  C   UNL     1      -0.120  11.162  19.990  0.00  0.00    +0.000 A 
ATOM     13  H   UNL     1       1.383   7.620  19.432  0.00  0.00    +0.000 HD
ENDROOT
BRANCH   4  14
ATOM     14  C   UNL     1       3.373   6.787  18.318  0.00  0.00    +0.000 C 
ATOM     15  C   UNL     1       2.615   5.473  18.443  0.00  0.00    +0.000 C 
ATOM     16  C   UNL     1       3.587   4.458  19.071  0.00  0.00    +0.000 C 
ATOM     17  C   UNL     1       4.894   4.308  18.271  0.00  0.00    +0.000 C 
ATOM     18  N   UNL     1       5.500   5.636  17.934  0.00  0.00    +0.000 NA
ATOM     19  C   UNL     1       4.512   6.565  17.326  0.00  0.00    +0.000 C 
BRANCH  18  20
ATOM     20  S   UNL     1       6.907   5.549  16.945  0.00  0.00    +0.000 S 
ATOM     21  O   UNL     1       7.310   6.903  16.631  0.00  0.00    +0.000 OA
ATOM     22  O   UNL     1       7.829   4.611  17.551  0.00  0.00    +0.000 OA
BRANCH  20  23
ATOM     23  C   UNL     1       6.471   4.822  15.392  0.00  0.00    +0.000 A 
ATOM     24  C   UNL     1       5.346   4.137  14.979  0.00  0.00    +0.000 A 
ATOM     25  C   UNL     1       5.411   3.775  13.603  0.00  0.00    +0.000 A 
ATOM     26  C   UNL     1       6.581   4.201  13.015  0.00  0.00    +0.000 A 
ATOM     27  S   UNL     1       7.601   5.014  14.123  0.00  0.00    +0.000 S 
ENDBRANCH  20  23
ENDBRANCH  18  20
ENDBRANCH   4  14
BRANCH   1  28
ATOM     28  C   UNL     1      -0.039   8.948  21.156  0.00  0.00    +0.000 C 
BRANCH  28  30
ATOM     29  C   UNL     1      -0.066   9.566  23.636  0.00  0.00    +0.000 C 
ATOM     30  C   UNL     1       0.773   9.131  22.443  0.00  0.00    +0.000 C 
ENDBRANCH  28  30
ENDBRANCH   1  28
TORSDOF 5
ENDMDL
MODEL 6
REMARK VINA RESULT:      -7.6      1.000      1.217
REMARK  Name = 
REMARK  6 active torsions:
REMARK  status: ('A' for Active; 'I' for Inactive)
REMARK    1  A    between atoms: C_1  and  C_2
REMARK    2  A    between atoms: C_2  and  C_3
REMARK    3  A    between atoms: C_3  and  N_4
REMARK    4  A    between atoms: C_7  and  C_9
REMARK    5  A    between atoms: N_13  and  S_14
REMARK    6  A    between atoms: S_14  and  C_17
REMARK                            x       y       z     vdW  Elec       q    Type
REMARK                         _______ _______ _______ _____ _____    ______ ____
ROOT
ATOM      1  N   UNL     1       2.283   5.351  19.570  0.00  0.00    +0.000 N 
ATOM      2  C   UNL     1       2.435   6.708  19.331  0.00  0.00    +0.000 A 
ATOM      3  N   UNL     1       1.813   7.646  20.120  0.00  0.00    +0.000 N 
ATOM      4  C   UNL     1       1.680   8.995  19.802  0.00  0.00    +0.000 C 
ATOM      5  O   UNL     1       2.271   9.644  18.953  0.00  0.00    +0.000 OA
ATOM      6  N   UNL     1       3.170   6.907  18.263  0.00  0.00    +0.000 NA
ATOM      7  C   UNL     1       3.554   5.663  17.826  0.00  0.00    +0.000 A 
ATOM      8  C   UNL     1       4.365   5.307  16.738  0.00  0.00    +0.000 A 
ATOM      9  C   UNL     1       4.623   3.950  16.496  0.00  0.00    +0.000 A 
ATOM     10  C   UNL     1       4.075   2.963  17.317  0.00  0.00    +0.000 A 
ATOM     11  C   UNL     1       3.258   3.299  18.400  0.00  0.00    +0.000 A 
ATOM     12  C   UNL     1       3.017   4.660  18.631  0.00  0.00    +0.000 A 
ATOM     13  H   UNL     1       1.303   7.299  20.916  0.00  0.00    +0.000 HD
ENDROOT
BRANCH   4  14
ATOM     14  C   UNL     1       0.487   9.558  20.565  0.00  0.00    +0.000 C 
ATOM     15  C   UNL     1       0.680  10.089  21.979  0.00  0.00    +0.000 C 
ATOM     16  C   UNL     1      -0.719  10.441  22.516  0.00  0.00    +0.000 C 
ATOM     17  C   UNL     1      -1.474  11.434  21.614  0.00  0.00    +0.000 C 
ATOM     18  N   UNL     1      -1.435  11.023  20.173  0.00  0.00    +0.000 NA
ATOM     19  C   UNL     1      -0.057  10.705  19.717  0.00  0.00    +0.000 C 
BRANCH  18  20
ATOM     20  S   UNL     1      -2.166  12.146  19.091  0.00  0.00    +0.000 S 
ATOM     21  O   UNL     1      -3.405  12.594  19.691  0.00  0.00    +0.000 OA
ATOM     22  O   UNL     1      -1.153  13.088  18.664  0.00  0.00    +0.000 OA
BRANCH  20  23
ATOM     23  C   UNL     1      -2.646  11.292  17.618  0.00  0.00    +0.000 A 
ATOM     24  C   UNL     1      -1.976  10.391  16.815  0.00  0.00    +0.000 A 
ATOM     25  C   UNL     1      -2.787   9.916  15.746  0.00  0.00    +0.000 A 
ATOM     26  C   UNL     1      -4.048  10.468  15.773  0.00  0.00    +0.000 A 
ATOM     27  S   UNL     1      -4.243  11.567  17.071  0.00  0.00    +0.000 S 
ENDBRANCH  20  23
ENDBRANCH  18  20
ENDBRANCH   4  14
BRANCH   1  28
ATOM     28  C   UNL     1       1.481   4.724  20.608  0.00  0.00    +0.000 C 
BRANCH  28  30
ATOM     29  C   UNL     1       1.664   2.427  21.713  0.00  0.00    +0.000 C 
ATOM     30  C   UNL     1       2.247   3.827  21.587  0.00  0.00    +0.000 C 
ENDBRANCH  28  30
ENDBRANCH   1  28
TORSDOF 5
ENDMDL
MODEL 7
REMARK VINA RESULT:      -7.6      2.113      2.757
REMARK  Name = 
REMARK  6 active torsions:
REMARK  status: ('A' for Active; 'I' for Inactive)
REMARK    1  A    between atoms: C_1  and  C_2
REMARK    2  A    between atoms: C_2  and  C_3
REMARK    3  A    between atoms: C_3  and  N_4
REMARK    4  A    between atoms: C_7  and  C_9
REMARK    5  A    between atoms: N_13  and  S_14
REMARK    6  A    between atoms: S_14  and  C_17
REMARK                            x       y       z     vdW  Elec       q    Type
REMARK                         _______ _______ _______ _____ _____    ______ ____
ROOT
ATOM      1  N   UNL     1       3.827   5.595  18.550  0.00  0.00    +0.000 N 
ATOM      2  C   UNL     1       3.454   6.900  18.266  0.00  0.00    +0.000 A 
ATOM      3  N   UNL     1       2.717   7.642  19.157  0.00  0.00    +0.000 N 
ATOM      4  C   UNL     1       2.069   8.837  18.858  0.00  0.00    +0.000 C 
ATOM      5  O   UNL     1       2.221   9.570  17.892  0.00  0.00    +0.000 OA
ATOM      6  N   UNL     1       3.849   7.239  17.062  0.00  0.00    +0.000 NA
ATOM      7  C   UNL     1       4.541   6.160  16.570  0.00  0.00    +0.000 A 
ATOM      8  C   UNL     1       5.193   6.001  15.337  0.00  0.00    +0.000 A 
ATOM      9  C   UNL     1       5.848   4.791  15.064  0.00  0.00    +0.000 A 
ATOM     10  C   UNL     1       5.846   3.753  15.996  0.00  0.00    +0.000 A 
ATOM     11  C   UNL     1       5.195   3.891  17.225  0.00  0.00    +0.000 A 
ATOM     12  C   UNL     1       4.552   5.109  17.485  0.00  0.00    +0.000 A 
ATOM     13  H   UNL     1       2.525   7.215  20.049  0.00  0.00    +0.000 HD
ENDROOT
BRANCH   4  14
ATOM     14  C   UNL     1       0.932   9.036  19.852  0.00  0.00    +0.000 C 
ATOM     15  C   UNL     1       0.939   8.268  21.168  0.00  0.00    +0.000 C 
ATOM     16  C   UNL     1      -0.399   8.574  21.867  0.00  0.00    +0.000 C 
ATOM     17  C   UNL     1      -0.637  10.082  22.068  0.00  0.00    +0.000 C 
ATOM     18  N   UNL     1      -0.389  10.861  20.812  0.00  0.00    +0.000 NA
ATOM     19  C   UNL     1       0.919  10.524  20.192  0.00  0.00    +0.000 C 
BRANCH  18  20
ATOM     20  S   UNL     1      -0.531  12.567  20.991  0.00  0.00    +0.000 S 
ATOM     21  O   UNL     1       0.609  13.026  21.756  0.00  0.00    +0.000 OA
ATOM     22  O   UNL     1      -0.846  13.134  19.697  0.00  0.00    +0.000 OA
BRANCH  20  23
ATOM     23  C   UNL     1      -1.939  12.922  22.001  0.00  0.00    +0.000 A 
ATOM     24  C   UNL     1      -3.284  12.658  21.833  0.00  0.00    +0.000 A 
ATOM     25  C   UNL     1      -4.061  13.089  22.945  0.00  0.00    +0.000 A 
ATOM     26  C   UNL     1      -3.281  13.662  23.924  0.00  0.00    +0.000 A 
ATOM     27  S   UNL     1      -1.625  13.697  23.493  0.00  0.00    +0.000 S 
ENDBRANCH  20  23
ENDBRANCH  18  20
ENDBRANCH   4  14
BRANCH   1  28
ATOM     28  C   UNL     1       3.512   4.829  19.745  0.00  0.00    +0.000 C 
BRANCH  28  30
ATOM     29  C   UNL     1       1.094   4.417  20.464  0.00  0.00    +0.000 C 
ATOM     30  C   UNL     1       2.279   3.923  19.647  0.00  0.00    +0.000 C 
ENDBRANCH  28  30
ENDBRANCH   1  28
TORSDOF 5
ENDMDL
MODEL 8
REMARK VINA RESULT:      -7.5      1.906      2.351
REMARK  Name = 
REMARK  6 active torsions:
REMARK  status: ('A' for Active; 'I' for Inactive)
REMARK    1  A    between atoms: C_1  and  C_2
REMARK    2  A    between atoms: C_2  and  C_3
REMARK    3  A    between atoms: C_3  and  N_4
REMARK    4  A    between atoms: C_7  and  C_9
REMARK    5  A    between atoms: N_13  and  S_14
REMARK    6  A    between atoms: S_14  and  C_17
REMARK                            x       y       z     vdW  Elec       q    Type
REMARK                         _______ _______ _______ _____ _____    ______ ____
ROOT
ATOM      1  N   UNL     1       2.559   5.909  18.808  0.00  0.00    +0.000 N 
ATOM      2  C   UNL     1       2.644   7.248  18.458  0.00  0.00    +0.000 A 
ATOM      3  N   UNL     1       1.865   8.198  19.073  0.00  0.00    +0.000 N 
ATOM      4  C   UNL     1       1.677   9.498  18.612  0.00  0.00    +0.000 C 
ATOM      5  O   UNL     1       2.322  10.115  17.778  0.00  0.00    +0.000 OA
ATOM      6  N   UNL     1       3.490   7.411  17.468  0.00  0.00    +0.000 NA
ATOM      7  C   UNL     1       4.012   6.169  17.203  0.00  0.00    +0.000 A 
ATOM      8  C   UNL     1       4.975   5.785  16.258  0.00  0.00    +0.000 A 
ATOM      9  C   UNL     1       5.356   4.438  16.181  0.00  0.00    +0.000 A 
ATOM     10  C   UNL     1       4.782   3.486  17.024  0.00  0.00    +0.000 A 
ATOM     11  C   UNL     1       3.815   3.848  17.966  0.00  0.00    +0.000 A 
ATOM     12  C   UNL     1       3.451   5.200  18.034  0.00  0.00    +0.000 A 
ATOM     13  H   UNL     1       1.285   7.882  19.834  0.00  0.00    +0.000 HD
ENDROOT
BRANCH   4  14
ATOM     14  C   UNL     1       0.362  10.027  19.171  0.00  0.00    +0.000 C 
ATOM     15  C   UNL     1       0.363  11.273  20.046  0.00  0.00    +0.000 C 
ATOM     16  C   UNL     1      -1.077  11.454  20.562  0.00  0.00    +0.000 C 
ATOM     17  C   UNL     1      -2.114  11.533  19.427  0.00  0.00    +0.000 C 
ATOM     18  N   UNL     1      -1.936  10.432  18.427  0.00  0.00    +0.000 NA
ATOM     19  C   UNL     1      -0.528  10.316  17.965  0.00  0.00    +0.000 C 
BRANCH  18  20
ATOM     20  S   UNL     1      -2.992  10.522  17.070  0.00  0.00    +0.000 S 
ATOM     21  O   UNL     1      -2.657  11.719  16.330  0.00  0.00    +0.000 OA
ATOM     22  O   UNL     1      -3.019   9.224  16.430  0.00  0.00    +0.000 OA
BRANCH  20  23
ATOM     23  C   UNL     1      -4.644  10.781  17.648  0.00  0.00    +0.000 A 
ATOM     24  C   UNL     1      -5.433  10.073  18.532  0.00  0.00    +0.000 A 
ATOM     25  C   UNL     1      -6.699  10.690  18.738  0.00  0.00    +0.000 A 
ATOM     26  C   UNL     1      -6.830  11.850  18.006  0.00  0.00    +0.000 A 
ATOM     27  S   UNL     1      -5.440  12.178  17.064  0.00  0.00    +0.000 S 
ENDBRANCH  20  23
ENDBRANCH  18  20
ENDBRANCH   4  14
BRANCH   1  28
ATOM     28  C   UNL     1       1.681   5.313  19.801  0.00  0.00    +0.000 C 
BRANCH  28  30
ATOM     29  C   UNL     1       1.995   3.346  21.403  0.00  0.00    +0.000 C 
ATOM     30  C   UNL     1       2.371   4.781  21.064  0.00  0.00    +0.000 C 
ENDBRANCH  28  30
ENDBRANCH   1  28
TORSDOF 5
ENDMDL
MODEL 9
REMARK VINA RESULT:      -7.5      3.421      5.350
REMARK  Name = 
REMARK  6 active torsions:
REMARK  status: ('A' for Active; 'I' for Inactive)
REMARK    1  A    between atoms: C_1  and  C_2
REMARK    2  A    between atoms: C_2  and  C_3
REMARK    3  A    between atoms: C_3  and  N_4
REMARK    4  A    between atoms: C_7  and  C_9
REMARK    5  A    between atoms: N_13  and  S_14
REMARK    6  A    between atoms: S_14  and  C_17
REMARK                            x       y       z     vdW  Elec       q    Type
REMARK                         _______ _______ _______ _____ _____    ______ ____
ROOT
ATOM      1  N   UNL     1       0.117  10.353  19.411  0.00  0.00    +0.000 N 
ATOM      2  C   UNL     1      -0.112  10.121  20.759  0.00  0.00    +0.000 A 
ATOM      3  N   UNL     1      -0.941  10.935  21.492  0.00  0.00    +0.000 N 
ATOM      4  C   UNL     1      -1.017  10.954  22.882  0.00  0.00    +0.000 C 
ATOM      5  O   UNL     1      -0.598  10.133  23.683  0.00  0.00    +0.000 OA
ATOM      6  N   UNL     1       0.602   9.104  21.178  0.00  0.00    +0.000 NA
ATOM      7  C   UNL     1       1.266   8.624  20.076  0.00  0.00    +0.000 A 
ATOM      8  C   UNL     1       2.144   7.535  19.963  0.00  0.00    +0.000 A 
ATOM      9  C   UNL     1       2.698   7.234  18.711  0.00  0.00    +0.000 A 
ATOM     10  C   UNL     1       2.394   8.008  17.591  0.00  0.00    +0.000 A 
ATOM     11  C   UNL     1       1.529   9.102  17.687  0.00  0.00    +0.000 A 
ATOM     12  C   UNL     1       0.978   9.385  18.944  0.00  0.00    +0.000 A 
ATOM     13  H   UNL     1      -1.424  11.660  20.986  0.00  0.00    +0.000 HD
ENDROOT
BRANCH   4  14
ATOM     14  C   UNL     1      -1.554  12.311  23.321  0.00  0.00    +0.000 C 
ATOM     15  C   UNL     1      -0.928  13.584  22.766  0.00  0.00    +0.000 C 
ATOM     16  C   UNL     1      -1.586  14.761  23.508  0.00  0.00    +0.000 C 
ATOM     17  C   UNL     1      -3.121  14.761  23.389  0.00  0.00    +0.000 C 
ATOM     18  N   UNL     1      -3.707  13.416  23.696  0.00  0.00    +0.000 NA
ATOM     19  C   UNL     1      -3.033  12.326  22.943  0.00  0.00    +0.000 C 
BRANCH  18  20
ATOM     20  S   UNL     1      -5.411  13.313  23.476  0.00  0.00    +0.000 S 
ATOM     21  O   UNL     1      -5.881  12.155  24.207  0.00  0.00    +0.000 OA
ATOM     22  O   UNL     1      -5.978  14.626  23.703  0.00  0.00    +0.000 OA
BRANCH  20  23
ATOM     23  C   UNL     1      -5.749  12.957  21.776  0.00  0.00    +0.000 A 
ATOM     24  C   UNL     1      -5.081  13.289  20.615  0.00  0.00    +0.000 A 
ATOM     25  C   UNL     1      -5.700  12.734  19.459  0.00  0.00    +0.000 A 
ATOM     26  C   UNL     1      -6.816  11.994  19.781  0.00  0.00    +0.000 A 
ATOM     27  S   UNL     1      -7.123  11.988  21.464  0.00  0.00    +0.000 S 
ENDBRANCH  20  23
ENDBRANCH  18  20
ENDBRANCH   4  14
BRANCH   1  28
ATOM     28  C   UNL     1      -0.424  11.430  18.598  0.00  0.00    +0.000 C 
BRANCH  28  30
ATOM     29  C   UNL     1      -2.208  10.727  16.908  0.00  0.00    +0.000 C 
ATOM     30  C   UNL     1      -1.919  11.332  18.275  0.00  0.00    +0.000 C 
ENDBRANCH  28  30
ENDBRANCH   1  28
TORSDOF 5
ENDMDL
