MODEL 1
REMARK VINA RESULT:      -8.2      0.000      0.000
REMARK  Name = 
REMARK  4 active torsions:
REMARK  status: ('A' for Active; 'I' for Inactive)
REMARK    1  A    between atoms: C_2  and  C_3
REMARK    2  A    between atoms: C_3  and  N_4
REMARK    3  A    between atoms: C_5  and  C_7
REMARK    4  A    between atoms: C_10  and  N_11
REMARK                            x       y       z     vdW  Elec       q    Type
REMARK                         _______ _______ _______ _____ _____    ______ ____
ROOT
ATOM      1  C   UNL     1       4.898   5.258  16.419  0.00  0.00    +0.000 A 
ATOM      2  C   UNL     1       5.091   6.612  16.655  0.00  0.00    +0.000 A 
ATOM      3  C   UNL     1       4.272   7.278  17.572  0.00  0.00    +0.000 A 
ATOM      4  C   UNL     1       3.230   6.644  18.271  0.00  0.00    +0.000 A 
ATOM      5  C   UNL     1       3.022   5.288  17.986  0.00  0.00    +0.000 A 
ATOM      6  C   UNL     1       3.845   4.603  17.063  0.00  0.00    +0.000 A 
ENDROOT
BRANCH   4   7
ATOM      7  N   UNL     1       2.393   7.322  19.230  0.00  0.00    +0.000 N 
ATOM      8  C   UNL     1       1.924   8.602  19.064  0.00  0.00    +0.000 C 
ATOM      9  O   UNL     1       2.192   9.291  18.080  0.00  0.00    +0.000 OA
ATOM     10  N   UNL     1       1.088   9.160  19.994  0.00  0.00    +0.000 N 
ATOM     11  C   UNL     1       0.527  10.441  19.577  0.00  0.00    +0.000 C 
ATOM     12  C   UNL     1      -0.444  10.786  20.639  0.00  0.00    +0.000 A 
ATOM     13  C   UNL     1      -1.447  11.737  20.596  0.00  0.00    +0.000 A 
ATOM     14  C   UNL     1      -2.078  12.061  21.788  0.00  0.00    +0.000 A 
ATOM     15  C   UNL     1      -1.637  11.486  22.991  0.00  0.00    +0.000 A 
ATOM     16  C   UNL     1      -0.685  10.449  22.994  0.00  0.00    +0.000 A 
ATOM     17  C   UNL     1      -0.157  10.038  21.782  0.00  0.00    +0.000 A 
ATOM     18  C   UNL     1       0.640   8.819  21.360  0.00  0.00    +0.000 C 
ATOM     19  H   UNL     1       2.074   6.794  20.029  0.00  0.00    +0.000 HD
ENDBRANCH   4   7
BRANCH   1  21
ATOM     20  N   UNL     1       5.258   4.257  14.217  0.00  0.00    +0.000 N 
ATOM     21  C   UNL     1       5.784   4.518  15.464  0.00  0.00    +0.000 C 
ATOM     22  O   UNL     1       6.920   4.201  15.798  0.00  0.00    +0.000 OA
ATOM     23  H   UNL     1       4.386   4.681  13.936  0.00  0.00    +0.000 HD
BRANCH  20  24
ATOM     24  C   UNL     1       6.040   3.595  13.200  0.00  0.00    +0.000 C 
BRANCH  24  26
ATOM     25  C   UNL     1       4.509   2.899  11.131  0.00  0.00    +0.000 C 
ATOM     26  C   UNL     1       5.184   3.224  12.065  0.00  0.00    +0.000 C 
ENDBRANCH  24  26
ENDBRANCH  20  24
ENDBRANCH   1  21
TORSDOF 4
ENDMDL
MODEL 2
REMARK VINA RESULT:      -8.0      0.765      1.270
REMARK  Name = 
REMARK  4 active torsions:
REMARK  status: ('A' for Active; 'I' for Inactive)
REMARK    1  A    between atoms: C_2  and  C_3
REMARK    2  A    between atoms: C_3  and  N_4
REMARK    3  A    between atoms: C_5  and  C_7
REMARK    4  A    between atoms: C_10  and  N_11
REMARK                            x       y       z     vdW  Elec       q    Type
REMARK                         _______ _______ _______ _____ _____    ______ ____
ROOT
ATOM      1  C   UNL     1       4.545   5.119  16.601  0.00  0.00    +0.000 A 
ATOM      2  C   UNL     1       3.514   4.598  17.371  0.00  0.00    +0.000 A 
ATOM      3  C   UNL     1       2.769   5.448  18.194  0.00  0.00    +0.000 A 
ATOM      4  C   UNL     1       3.021   6.827  18.302  0.00  0.00    +0.000 A 
ATOM      5  C   UNL     1       4.095   7.326  17.551  0.00  0.00    +0.000 A 
ATOM      6  C   UNL     1       4.854   6.477  16.713  0.00  0.00    +0.000 A 
ENDROOT
BRANCH   4   7
ATOM      7  N   UNL     1       2.245   7.712  19.136  0.00  0.00    +0.000 N 
ATOM      8  C   UNL     1       1.614   8.840  18.673  0.00  0.00    +0.000 C 
ATOM      9  O   UNL     1       1.670   9.204  17.498  0.00  0.00    +0.000 OA
ATOM     10  N   UNL     1       0.850   9.601  19.515  0.00  0.00    +0.000 N 
ATOM     11  C   UNL     1       0.095  10.646  18.830  0.00  0.00    +0.000 C 
ATOM     12  C   UNL     1      -0.762  11.238  19.883  0.00  0.00    +0.000 A 
ATOM     13  C   UNL     1      -1.864  12.056  19.719  0.00  0.00    +0.000 A 
ATOM     14  C   UNL     1      -2.366  12.692  20.845  0.00  0.00    +0.000 A 
ATOM     15  C   UNL     1      -1.707  12.553  22.078  0.00  0.00    +0.000 A 
ATOM     16  C   UNL     1      -0.650  11.638  22.238  0.00  0.00    +0.000 A 
ATOM     17  C   UNL     1      -0.243  10.906  21.135  0.00  0.00    +0.000 A 
ATOM     18  C   UNL     1       0.627   9.674  20.974  0.00  0.00    +0.000 C 
ATOM     19  H   UNL     1       2.097   7.439  20.097  0.00  0.00    +0.000 HD
ENDBRANCH   4   7
BRANCH   1  21
ATOM     20  N   UNL     1       5.504   4.678  14.396  0.00  0.00    +0.000 N 
ATOM     21  C   UNL     1       5.336   4.232  15.689  0.00  0.00    +0.000 C 
ATOM     22  O   UNL     1       5.815   3.185  16.110  0.00  0.00    +0.000 OA
ATOM     23  H   UNL     1       5.234   5.618  14.144  0.00  0.00    +0.000 HD
BRANCH  20  24
ATOM     24  C   UNL     1       6.291   3.931  13.443  0.00  0.00    +0.000 C 
BRANCH  24  26
ATOM     25  C   UNL     1       4.712   3.002  11.506  0.00  0.00    +0.000 C 
ATOM     26  C   UNL     1       5.429   3.403  12.377  0.00  0.00    +0.000 C 
ENDBRANCH  24  26
ENDBRANCH  20  24
ENDBRANCH   1  21
TORSDOF 4
ENDMDL
MODEL 3
REMARK VINA RESULT:      -7.6      2.779     10.537
REMARK  Name = 
REMARK  4 active torsions:
REMARK  status: ('A' for Active; 'I' for Inactive)
REMARK    1  A    between atoms: C_2  and  C_3
REMARK    2  A    between atoms: C_3  and  N_4
REMARK    3  A    between atoms: C_5  and  C_7
REMARK    4  A    between atoms: C_10  and  N_11
REMARK                            x       y       z     vdW  Elec       q    Type
REMARK                         _______ _______ _______ _____ _____    ______ ____
ROOT
ATOM      1  C   UNL     1      -1.275  11.406  22.645  0.00  0.00    +0.000 A 
ATOM      2  C   UNL     1      -0.926  11.570  21.311  0.00  0.00    +0.000 A 
ATOM      3  C   UNL     1      -0.189  10.574  20.662  0.00  0.00    +0.000 A 
ATOM      4  C   UNL     1       0.242   9.399  21.302  0.00  0.00    +0.000 A 
ATOM      5  C   UNL     1      -0.081   9.273  22.660  0.00  0.00    +0.000 A 
ATOM      6  C   UNL     1      -0.828  10.272  23.326  0.00  0.00    +0.000 A 
ENDROOT
BRANCH   4   7
ATOM      7  N   UNL     1       0.988   8.361  20.633  0.00  0.00    +0.000 N 
ATOM      8  C   UNL     1       1.605   8.528  19.418  0.00  0.00    +0.000 C 
ATOM      9  O   UNL     1       1.562   9.582  18.783  0.00  0.00    +0.000 OA
ATOM     10  N   UNL     1       2.341   7.512  18.870  0.00  0.00    +0.000 N 
ATOM     11  C   UNL     1       3.088   7.911  17.681  0.00  0.00    +0.000 C 
ATOM     12  C   UNL     1       3.916   6.730  17.346  0.00  0.00    +0.000 A 
ATOM     13  C   UNL     1       5.005   6.671  16.498  0.00  0.00    +0.000 A 
ATOM     14  C   UNL     1       5.477   5.415  16.144  0.00  0.00    +0.000 A 
ATOM     15  C   UNL     1       4.801   4.265  16.584  0.00  0.00    +0.000 A 
ATOM     16  C   UNL     1       3.759   4.350  17.526  0.00  0.00    +0.000 A 
ATOM     17  C   UNL     1       3.383   5.605  17.977  0.00  0.00    +0.000 A 
ATOM     18  C   UNL     1       2.539   6.074  19.147  0.00  0.00    +0.000 C 
ATOM     19  H   UNL     1       1.126   7.491  21.126  0.00  0.00    +0.000 HD
ENDBRANCH   4   7
BRANCH   1  21
ATOM     20  N   UNL     1      -3.385  12.095  23.670  0.00  0.00    +0.000 N 
ATOM     21  C   UNL     1      -2.091  12.446  23.351  0.00  0.00    +0.000 C 
ATOM     22  O   UNL     1      -1.594  13.529  23.637  0.00  0.00    +0.000 OA
ATOM     23  H   UNL     1      -3.693  11.139  23.563  0.00  0.00    +0.000 HD
BRANCH  20  24
ATOM     24  C   UNL     1      -4.246  12.998  24.396  0.00  0.00    +0.000 C 
BRANCH  24  26
ATOM     25  C   UNL     1      -6.795  12.584  23.731  0.00  0.00    +0.000 C 
ATOM     26  C   UNL     1      -5.651  12.755  24.040  0.00  0.00    +0.000 C 
ENDBRANCH  24  26
ENDBRANCH  20  24
ENDBRANCH   1  21
TORSDOF 4
ENDMDL
MODEL 4
REMARK VINA RESULT:      -7.5      0.970      1.455
REMARK  Name = 
REMARK  4 active torsions:
REMARK  status: ('A' for Active; 'I' for Inactive)
REMARK    1  A    between atoms: C_2  and  C_3
REMARK    2  A    between atoms: C_3  and  N_4
REMARK    3  A    between atoms: C_5  and  C_7
REMARK    4  A    between atoms: C_10  and  N_11
REMARK                            x       y       z     vdW  Elec       q    Type
REMARK                         _______ _______ _______ _____ _____    ______ ____
ROOT
ATOM      1  C   UNL     1       5.565   5.137  15.701  0.00  0.00    +0.000 A 
ATOM      2  C   UNL     1       4.590   4.332  16.275  0.00  0.00    +0.000 A 
ATOM      3  C   UNL     1       3.769   4.852  17.280  0.00  0.00    +0.000 A 
ATOM      4  C   UNL     1       3.887   6.167  17.764  0.00  0.00    +0.000 A 
ATOM      5  C   UNL     1       4.906   6.949  17.204  0.00  0.00    +0.000 A 
ATOM      6  C   UNL     1       5.742   6.435  16.185  0.00  0.00    +0.000 A 
ENDROOT
BRANCH   4   7
ATOM      7  N   UNL     1       3.031   6.714  18.789  0.00  0.00    +0.000 N 
ATOM      8  C   UNL     1       2.576   8.009  18.791  0.00  0.00    +0.000 C 
ATOM      9  O   UNL     1       2.874   8.826  17.919  0.00  0.00    +0.000 OA
ATOM     10  N   UNL     1       1.722   8.441  19.770  0.00  0.00    +0.000 N 
ATOM     11  C   UNL     1       1.180   9.773  19.522  0.00  0.00    +0.000 C 
ATOM     12  C   UNL     1       0.186   9.978  20.599  0.00  0.00    +0.000 A 
ATOM     13  C   UNL     1      -0.808  10.937  20.665  0.00  0.00    +0.000 A 
ATOM     14  C   UNL     1      -1.467  11.098  21.875  0.00  0.00    +0.000 A 
ATOM     15  C   UNL     1      -1.060  10.357  22.996  0.00  0.00    +0.000 A 
ATOM     16  C   UNL     1      -0.116   9.319  22.878  0.00  0.00    +0.000 A 
ATOM     17  C   UNL     1       0.439   9.076  21.633  0.00  0.00    +0.000 A 
ATOM     18  C   UNL     1       1.237   7.918  21.064  0.00  0.00    +0.000 C 
ATOM     19  H   UNL     1       2.689   6.083  19.499  0.00  0.00    +0.000 HD
ENDBRANCH   4   7
BRANCH   1  21
ATOM     20  N   UNL     1       5.790   4.200  13.454  0.00  0.00    +0.000 N 
ATOM     21  C   UNL     1       6.435   4.610  14.601  0.00  0.00    +0.000 C 
ATOM     22  O   UNL     1       7.653   4.584  14.738  0.00  0.00    +0.000 OA
ATOM     23  H   UNL     1       4.808   4.394  13.327  0.00  0.00    +0.000 HD
BRANCH  20  24
ATOM     24  C   UNL     1       6.532   3.722  12.311  0.00  0.00    +0.000 C 
BRANCH  24  26
ATOM     25  C   UNL     1       5.426   1.500  11.338  0.00  0.00    +0.000 C 
ATOM     26  C   UNL     1       5.907   2.507  11.773  0.00  0.00    +0.000 C 
ENDBRANCH  24  26
ENDBRANCH  20  24
ENDBRANCH   1  21
TORSDOF 4
ENDMDL
MODEL 5
REMARK VINA RESULT:      -7.4      0.971      1.633
REMARK  Name = 
REMARK  4 active torsions:
REMARK  status: ('A' for Active; 'I' for Inactive)
REMARK    1  A    between atoms: C_2  and  C_3
REMARK    2  A    between atoms: C_3  and  N_4
REMARK    3  A    between atoms: C_5  and  C_7
REMARK    4  A    between atoms: C_10  and  N_11
REMARK                            x       y       z     vdW  Elec       q    Type
REMARK                         _______ _______ _______ _____ _____    ______ ____
ROOT
ATOM      1  C   UNL     1       4.755   5.305  16.621  0.00  0.00    +0.000 A 
ATOM      2  C   UNL     1       3.677   4.731  17.279  0.00  0.00    +0.000 A 
ATOM      3  C   UNL     1       2.848   5.529  18.075  0.00  0.00    +0.000 A 
ATOM      4  C   UNL     1       3.061   6.906  18.263  0.00  0.00    +0.000 A 
ATOM      5  C   UNL     1       4.181   7.457  17.626  0.00  0.00    +0.000 A 
ATOM      6  C   UNL     1       5.024   6.661  16.818  0.00  0.00    +0.000 A 
ENDROOT
BRANCH   4   7
ATOM      7  N   UNL     1       2.200   7.737  19.069  0.00  0.00    +0.000 N 
ATOM      8  C   UNL     1       1.607   8.889  18.614  0.00  0.00    +0.000 C 
ATOM      9  O   UNL     1       1.773   9.321  17.473  0.00  0.00    +0.000 OA
ATOM     10  N   UNL     1       0.758   9.596  19.421  0.00  0.00    +0.000 N 
ATOM     11  C   UNL     1       0.063  10.677  18.728  0.00  0.00    +0.000 C 
ATOM     12  C   UNL     1      -0.896  11.204  19.726  0.00  0.00    +0.000 A 
ATOM     13  C   UNL     1      -1.984  12.027  19.504  0.00  0.00    +0.000 A 
ATOM     14  C   UNL     1      -2.598  12.593  20.611  0.00  0.00    +0.000 A 
ATOM     15  C   UNL     1      -2.060  12.384  21.892  0.00  0.00    +0.000 A 
ATOM     16  C   UNL     1      -1.016  11.464  22.100  0.00  0.00    +0.000 A 
ATOM     17  C   UNL     1      -0.497  10.800  21.000  0.00  0.00    +0.000 A 
ATOM     18  C   UNL     1       0.394   9.582  20.853  0.00  0.00    +0.000 C 
ATOM     19  H   UNL     1       1.962   7.408  19.993  0.00  0.00    +0.000 HD
ENDBRANCH   4   7
BRANCH   1  21
ATOM     20  N   UNL     1       5.331   4.474  14.394  0.00  0.00    +0.000 N 
ATOM     21  C   UNL     1       5.637   4.475  15.738  0.00  0.00    +0.000 C 
ATOM     22  O   UNL     1       6.586   3.864  16.216  0.00  0.00    +0.000 OA
ATOM     23  H   UNL     1       4.647   5.120  14.030  0.00  0.00    +0.000 HD
BRANCH  20  24
ATOM     24  C   UNL     1       6.143   3.751  13.444  0.00  0.00    +0.000 C 
BRANCH  24  26
ATOM     25  C   UNL     1       7.961   5.387  12.384  0.00  0.00    +0.000 C 
ATOM     26  C   UNL     1       7.157   4.641  12.863  0.00  0.00    +0.000 C 
ENDBRANCH  24  26
ENDBRANCH  20  24
ENDBRANCH   1  21
TORSDOF 4
ENDMDL
MODEL 6
REMARK VINA RESULT:      -7.4      0.879      1.242
REMARK  Name = 
REMARK  4 active torsions:
REMARK  status: ('A' for Active; 'I' for Inactive)
REMARK    1  A    between atoms: C_2  and  C_3
REMARK    2  A    between atoms: C_3  and  N_4
REMARK    3  A    between atoms: C_5  and  C_7
REMARK    4  A    between atoms: C_10  and  N_11
REMARK                            x       y       z     vdW  Elec       q    Type
REMARK                         _______ _______ _______ _____ _____    ______ ____
ROOT
ATOM      1  C   UNL     1       4.527   5.047  16.678  0.00  0.00    +0.000 A 
ATOM      2  C   UNL     1       4.665   6.426  16.740  0.00  0.00    +0.000 A 
ATOM      3  C   UNL     1       3.877   7.161  17.631  0.00  0.00    +0.000 A 
ATOM      4  C   UNL     1       2.919   6.571  18.474  0.00  0.00    +0.000 A 
ATOM      5  C   UNL     1       2.763   5.182  18.365  0.00  0.00    +0.000 A 
ATOM      6  C   UNL     1       3.556   4.429  17.470  0.00  0.00    +0.000 A 
ENDROOT
BRANCH   4   7
ATOM      7  N   UNL     1       2.115   7.322  19.407  0.00  0.00    +0.000 N 
ATOM      8  C   UNL     1       1.684   8.606  19.181  0.00  0.00    +0.000 C 
ATOM      9  O   UNL     1       1.962   9.236  18.160  0.00  0.00    +0.000 OA
ATOM     10  N   UNL     1       0.878   9.236  20.090  0.00  0.00    +0.000 N 
ATOM     11  C   UNL     1       0.351  10.511  19.615  0.00  0.00    +0.000 C 
ATOM     12  C   UNL     1      -0.596  10.940  20.669  0.00  0.00    +0.000 A 
ATOM     13  C   UNL     1      -1.569  11.919  20.588  0.00  0.00    +0.000 A 
ATOM     14  C   UNL     1      -2.175  12.322  21.769  0.00  0.00    +0.000 A 
ATOM     15  C   UNL     1      -1.737  11.794  22.995  0.00  0.00    +0.000 A 
ATOM     16  C   UNL     1      -0.818  10.729  23.041  0.00  0.00    +0.000 A 
ATOM     17  C   UNL     1      -0.318  10.242  21.845  0.00  0.00    +0.000 A 
ATOM     18  C   UNL     1       0.435   8.978  21.476  0.00  0.00    +0.000 C 
ATOM     19  H   UNL     1       1.790   6.846  20.235  0.00  0.00    +0.000 HD
ENDBRANCH   4   7
BRANCH   1  21
ATOM     20  N   UNL     1       5.449   4.666  14.446  0.00  0.00    +0.000 N 
ATOM     21  C   UNL     1       5.384   4.236  15.754  0.00  0.00    +0.000 C 
ATOM     22  O   UNL     1       6.001   3.266  16.178  0.00  0.00    +0.000 OA
ATOM     23  H   UNL     1       5.058   5.560  14.185  0.00  0.00    +0.000 HD
BRANCH  20  24
ATOM     24  C   UNL     1       6.283   3.993  13.479  0.00  0.00    +0.000 C 
BRANCH  24  26
ATOM     25  C   UNL     1       8.269   5.577  12.671  0.00  0.00    +0.000 C 
ATOM     26  C   UNL     1       7.370   4.879  13.043  0.00  0.00    +0.000 C 
ENDBRANCH  24  26
ENDBRANCH  20  24
ENDBRANCH   1  21
TORSDOF 4
ENDMDL
MODEL 7
REMARK VINA RESULT:      -7.4      2.781     10.611
REMARK  Name = 
REMARK  4 active torsions:
REMARK  status: ('A' for Active; 'I' for Inactive)
REMARK    1  A    between atoms: C_2  and  C_3
REMARK    2  A    between atoms: C_3  and  N_4
REMARK    3  A    between atoms: C_5  and  C_7
REMARK    4  A    between atoms: C_10  and  N_11
REMARK                            x       y       z     vdW  Elec       q    Type
REMARK                         _______ _______ _______ _____ _____    ______ ____
ROOT
ATOM      1  C   UNL     1      -1.305  11.276  22.583  0.00  0.00    +0.000 A 
ATOM      2  C   UNL     1      -1.008  11.398  21.233  0.00  0.00    +0.000 A 
ATOM      3  C   UNL     1      -0.217  10.429  20.608  0.00  0.00    +0.000 A 
ATOM      4  C   UNL     1       0.321   9.323  21.289  0.00  0.00    +0.000 A 
ATOM      5  C   UNL     1       0.047   9.241  22.661  0.00  0.00    +0.000 A 
ATOM      6  C   UNL     1      -0.753  10.213  23.303  0.00  0.00    +0.000 A 
ENDROOT
BRANCH   4   7
ATOM      7  N   UNL     1       1.123   8.311  20.646  0.00  0.00    +0.000 N 
ATOM      8  C   UNL     1       1.677   8.455  19.398  0.00  0.00    +0.000 C 
ATOM      9  O   UNL     1       1.523   9.464  18.709  0.00  0.00    +0.000 OA
ATOM     10  N   UNL     1       2.473   7.472  18.875  0.00  0.00    +0.000 N 
ATOM     11  C   UNL     1       3.138   7.860  17.635  0.00  0.00    +0.000 C 
ATOM     12  C   UNL     1       4.046   6.731  17.330  0.00  0.00    +0.000 A 
ATOM     13  C   UNL     1       5.103   6.711  16.439  0.00  0.00    +0.000 A 
ATOM     14  C   UNL     1       5.663   5.479  16.134  0.00  0.00    +0.000 A 
ATOM     15  C   UNL     1       5.101   4.305  16.665  0.00  0.00    +0.000 A 
ATOM     16  C   UNL     1       4.093   4.362  17.645  0.00  0.00    +0.000 A 
ATOM     17  C   UNL     1       3.632   5.606  18.043  0.00  0.00    +0.000 A 
ATOM     18  C   UNL     1       2.799   6.073  19.221  0.00  0.00    +0.000 C 
ATOM     19  H   UNL     1       1.351   7.485  21.179  0.00  0.00    +0.000 HD
ENDBRANCH   4   7
BRANCH   1  21
ATOM     20  N   UNL     1      -1.664  13.561  23.376  0.00  0.00    +0.000 N 
ATOM     21  C   UNL     1      -2.176  12.286  23.265  0.00  0.00    +0.000 C 
ATOM     22  O   UNL     1      -3.289  11.968  23.667  0.00  0.00    +0.000 OA
ATOM     23  H   UNL     1      -0.818  13.812  22.885  0.00  0.00    +0.000 HD
BRANCH  20  24
ATOM     24  C   UNL     1      -2.436  14.627  23.968  0.00  0.00    +0.000 C 
BRANCH  24  26
ATOM     25  C   UNL     1      -1.183  15.639  26.093  0.00  0.00    +0.000 C 
ATOM     26  C   UNL     1      -1.734  15.171  25.139  0.00  0.00    +0.000 C 
ENDBRANCH  24  26
ENDBRANCH  20  24
ENDBRANCH   1  21
TORSDOF 4
ENDMDL
MODEL 8
REMARK VINA RESULT:      -7.4      2.715     10.511
REMARK  Name = 
REMARK  4 active torsions:
REMARK  status: ('A' for Active; 'I' for Inactive)
REMARK    1  A    between atoms: C_2  and  C_3
REMARK    2  A    between atoms: C_3  and  N_4
REMARK    3  A    between atoms: C_5  and  C_7
REMARK    4  A    between atoms: C_10  and  N_11
REMARK                            x       y       z     vdW  Elec       q    Type
REMARK                         _______ _______ _______ _____ _____    ______ ____
ROOT
ATOM      1  C   UNL     1      -1.103  11.342  22.498  0.00  0.00    +0.000 A 
ATOM      2  C   UNL     1      -0.553  10.308  23.243  0.00  0.00    +0.000 A 
ATOM      3  C   UNL     1       0.150   9.287  22.595  0.00  0.00    +0.000 A 
ATOM      4  C   UNL     1       0.322   9.240  21.200  0.00  0.00    +0.000 A 
ATOM      5  C   UNL     1      -0.279  10.268  20.462  0.00  0.00    +0.000 A 
ATOM      6  C   UNL     1      -0.990  11.307  21.106  0.00  0.00    +0.000 A 
ENDROOT
BRANCH   4   7
ATOM      7  N   UNL     1       1.061   8.198  20.528  0.00  0.00    +0.000 N 
ATOM      8  C   UNL     1       1.721   8.378  19.338  0.00  0.00    +0.000 C 
ATOM      9  O   UNL     1       1.727   9.449  18.730  0.00  0.00    +0.000 OA
ATOM     10  N   UNL     1       2.447   7.357  18.788  0.00  0.00    +0.000 N 
ATOM     11  C   UNL     1       3.242   7.765  17.634  0.00  0.00    +0.000 C 
ATOM     12  C   UNL     1       4.049   6.570  17.295  0.00  0.00    +0.000 A 
ATOM     13  C   UNL     1       5.163   6.502  16.480  0.00  0.00    +0.000 A 
ATOM     14  C   UNL     1       5.612   5.243  16.108  0.00  0.00    +0.000 A 
ATOM     15  C   UNL     1       4.891   4.102  16.497  0.00  0.00    +0.000 A 
ATOM     16  C   UNL     1       3.822   4.192  17.407  0.00  0.00    +0.000 A 
ATOM     17  C   UNL     1       3.466   5.445  17.878  0.00  0.00    +0.000 A 
ATOM     18  C   UNL     1       2.597   5.907  19.033  0.00  0.00    +0.000 C 
ATOM     19  H   UNL     1       1.159   7.313  21.003  0.00  0.00    +0.000 HD
ENDBRANCH   4   7
BRANCH   1  21
ATOM     20  N   UNL     1      -3.191  12.294  23.340  0.00  0.00    +0.000 N 
ATOM     21  C   UNL     1      -1.833  12.461  23.174  0.00  0.00    +0.000 C 
ATOM     22  O   UNL     1      -1.220  13.447  23.570  0.00  0.00    +0.000 OA
ATOM     23  H   UNL     1      -3.620  11.400  23.149  0.00  0.00    +0.000 HD
BRANCH  20  24
ATOM     24  C   UNL     1      -3.988  13.285  24.024  0.00  0.00    +0.000 C 
BRANCH  24  26
ATOM     25  C   UNL     1      -6.571  12.626  23.975  0.00  0.00    +0.000 C 
ATOM     26  C   UNL     1      -5.408  12.909  23.985  0.00  0.00    +0.000 C 
ENDBRANCH  24  26
ENDBRANCH  20  24
ENDBRANCH   1  21
TORSDOF 4
ENDMDL
MODEL 9
REMARK VINA RESULT:      -7.3      1.467      2.081
REMARK  Name = 
REMARK  4 active torsions:
REMARK  status: ('A' for Active; 'I' for Inactive)
REMARK    1  A    between atoms: C_2  and  C_3
REMARK    2  A    between atoms: C_3  and  N_4
REMARK    3  A    between atoms: C_5  and  C_7
REMARK    4  A    between atoms: C_10  and  N_11
REMARK                            x       y       z     vdW  Elec       q    Type
REMARK                         _______ _______ _______ _____ _____    ______ ____
ROOT
ATOM      1  C   UNL     1       3.745   5.534  17.985  0.00  0.00    +0.000 A 
ATOM      2  C   UNL     1       3.616   6.835  17.520  0.00  0.00    +0.000 A 
ATOM      3  C   UNL     1       2.880   7.765  18.261  0.00  0.00    +0.000 A 
ATOM      4  C   UNL     1       2.233   7.444  19.468  0.00  0.00    +0.000 A 
ATOM      5  C   UNL     1       2.337   6.113  19.897  0.00  0.00    +0.000 A 
ATOM      6  C   UNL     1       3.081   5.166  19.158  0.00  0.00    +0.000 A 
ENDROOT
BRANCH   4   7
ATOM      7  N   UNL     1       1.486   8.402  20.245  0.00  0.00    +0.000 N 
ATOM      8  C   UNL     1       0.787   9.450  19.698  0.00  0.00    +0.000 C 
ATOM      9  O   UNL     1       0.752   9.671  18.487  0.00  0.00    +0.000 OA
ATOM     10  N   UNL     1       0.057  10.288  20.496  0.00  0.00    +0.000 N 
ATOM     11  C   UNL     1      -0.778  11.223  19.748  0.00  0.00    +0.000 C 
ATOM     12  C   UNL     1      -1.580  11.916  20.781  0.00  0.00    +0.000 A 
ATOM     13  C   UNL     1      -2.718  12.680  20.600  0.00  0.00    +0.000 A 
ATOM     14  C   UNL     1      -3.164  13.434  21.676  0.00  0.00    +0.000 A 
ATOM     15  C   UNL     1      -2.419  13.461  22.867  0.00  0.00    +0.000 A 
ATOM     16  C   UNL     1      -1.324  12.599  23.058  0.00  0.00    +0.000 A 
ATOM     17  C   UNL     1      -0.967  11.750  22.023  0.00  0.00    +0.000 A 
ATOM     18  C   UNL     1      -0.070  10.530  21.948  0.00  0.00    +0.000 C 
ATOM     19  H   UNL     1       1.412   8.244  21.239  0.00  0.00    +0.000 HD
ENDBRANCH   4   7
BRANCH   1  21
ATOM     20  N   UNL     1       5.684   5.008  16.591  0.00  0.00    +0.000 N 
ATOM     21  C   UNL     1       4.556   4.530  17.223  0.00  0.00    +0.000 C 
ATOM     22  O   UNL     1       4.220   3.352  17.206  0.00  0.00    +0.000 OA
ATOM     23  H   UNL     1       6.006   5.948  16.771  0.00  0.00    +0.000 HD
BRANCH  20  24
ATOM     24  C   UNL     1       6.568   4.123  15.871  0.00  0.00    +0.000 C 
BRANCH  24  26
ATOM     25  C   UNL     1       5.791   3.875  13.332  0.00  0.00    +0.000 C 
ATOM     26  C   UNL     1       6.136   4.004  14.472  0.00  0.00    +0.000 C 
ENDBRANCH  24  26
ENDBRANCH  20  24
ENDBRANCH   1  21
TORSDOF 4
ENDMDL
