MODEL 1
REMARK VINA RESULT:      -8.0      0.000      0.000
REMARK  Name = 
REMARK  10 active torsions:
REMARK  status: ('A' for Active; 'I' for Inactive)
REMARK    1  A    between atoms: C_1  and  O_2
REMARK    2  A    between atoms: O_2  and  C_3
REMARK    3  A    between atoms: C_7  and  C_8
REMARK    4  A    between atoms: N_9  and  N_10
REMARK    5  A    between atoms: C_16  and  N_17
REMARK    6  A    between atoms: N_17  and  C_18
REMARK    7  A    between atoms: C_23  and  S_24
REMARK    8  A    between atoms: S_24  and  C_27
REMARK    9  A    between atoms: C_27  and  C_28
REMARK   10  A    between atoms: C_27  and  C_29
REMARK                            x       y       z     vdW  Elec       q    Type
REMARK                         _______ _______ _______ _____ _____    ______ ____
ROOT
ATOM      1  N   UNL     1       0.253   9.144  22.434  0.00  0.00    +0.000 N 
ATOM      2  C   UNL     1       0.884   8.857  21.207  0.00  0.00    +0.000 A 
ATOM      3  N   UNL     1       0.715   9.697  20.165  0.00  0.00    +0.000 NA
ATOM      4  C   UNL     1       1.281   9.359  18.996  0.00  0.00    +0.000 A 
ATOM      5  C   UNL     1       2.032   8.225  18.826  0.00  0.00    +0.000 A 
ATOM      6 CL   UNL     1       2.665   7.823  17.282  0.00  0.00    +0.000 Cl
ATOM      7  C   UNL     1       2.207   7.430  19.954  0.00  0.00    +0.000 A 
ATOM      8  N   UNL     1       1.616   7.733  21.136  0.00  0.00    +0.000 NA
ATOM      9  H   UNL     1       0.212   8.284  22.974  0.00  0.00    +0.000 HD
ENDROOT
BRANCH   1  11
ATOM     10  C   UNL     1      -0.766  11.115  22.884  0.00  0.00    +0.000 C 
ATOM     11  N   UNL     1      -0.844   9.942  22.351  0.00  0.00    +0.000 NA
BRANCH  10  16
ATOM     12  C   UNL     1      -4.125  12.722  23.468  0.00  0.00    +0.000 A 
ATOM     13  C   UNL     1      -4.075  13.770  22.540  0.00  0.00    +0.000 A 
ATOM     14  C   UNL     1      -2.952  13.958  21.738  0.00  0.00    +0.000 A 
ATOM     15  C   UNL     1      -1.873  13.090  21.852  0.00  0.00    +0.000 A 
ATOM     16  C   UNL     1      -1.917  12.035  22.776  0.00  0.00    +0.000 A 
ATOM     17  C   UNL     1      -3.036  11.856  23.594  0.00  0.00    +0.000 A 
BRANCH  12  19
ATOM     18  C   UNL     1      -6.482  13.050  23.503  0.00  0.00    +0.000 C 
ATOM     19  O   UNL     1      -5.294  12.656  24.176  0.00  0.00    +0.000 OA
ENDBRANCH  12  19
ENDBRANCH  10  16
ENDBRANCH   1  11
BRANCH   7  20
ATOM     20  N   UNL     1       3.069   6.303  19.909  0.00  0.00    +0.000 N 
ATOM     21  H   UNL     1       4.034   6.586  19.714  0.00  0.00    +0.000 HD
BRANCH  20  22
ATOM     22  C   UNL     1       2.788   5.062  19.290  0.00  0.00    +0.000 A 
ATOM     23  C   UNL     1       1.490   4.518  19.358  0.00  0.00    +0.000 A 
ATOM     24  C   UNL     1       1.140   3.374  18.636  0.00  0.00    +0.000 A 
ATOM     25  C   UNL     1       2.075   2.750  17.821  0.00  0.00    +0.000 A 
ATOM     26  C   UNL     1       3.369   3.261  17.742  0.00  0.00    +0.000 A 
ATOM     27  C   UNL     1       3.728   4.402  18.478  0.00  0.00    +0.000 A 
BRANCH  27  28
ATOM     28  S   UNL     1       5.392   5.014  18.291  0.00  0.00    +0.000 S 
ATOM     29  O   UNL     1       5.315   6.463  18.230  0.00  0.00    +0.000 OA
ATOM     30  O   UNL     1       6.167   4.370  19.342  0.00  0.00    +0.000 OA
BRANCH  28  31
ATOM     31  C   UNL     1       5.998   4.442  16.701  0.00  0.00    +0.000 C 
ATOM     32  C   UNL     1       5.459   5.258  15.532  0.00  0.00    +0.000 C 
ATOM     33  C   UNL     1       7.530   4.487  16.692  0.00  0.00    +0.000 C 
ENDBRANCH  28  31
ENDBRANCH  27  28
ENDBRANCH  20  22
ENDBRANCH   7  20
TORSDOF 7
ENDMDL
MODEL 2
REMARK VINA RESULT:      -8.0      5.850      9.075
REMARK  Name = 
REMARK  10 active torsions:
REMARK  status: ('A' for Active; 'I' for Inactive)
REMARK    1  A    between atoms: C_1  and  O_2
REMARK    2  A    between atoms: O_2  and  C_3
REMARK    3  A    between atoms: C_7  and  C_8
REMARK    4  A    between atoms: N_9  and  N_10
REMARK    5  A    between atoms: C_16  and  N_17
REMARK    6  A    between atoms: N_17  and  C_18
REMARK    7  A    between atoms: C_23  and  S_24
REMARK    8  A    between atoms: S_24  and  C_27
REMARK    9  A    between atoms: C_27  and  C_28
REMARK   10  A    between atoms: C_27  and  C_29
REMARK                            x       y       z     vdW  Elec       q    Type
REMARK                         _______ _______ _______ _____ _____    ______ ____
ROOT
ATOM      1  N   UNL     1       8.398   7.867  18.983  0.00  0.00    +0.000 N 
ATOM      2  C   UNL     1       7.593   7.080  18.133  0.00  0.00    +0.000 A 
ATOM      3  N   UNL     1       7.829   7.091  16.805  0.00  0.00    +0.000 NA
ATOM      4  C   UNL     1       7.003   6.378  16.022  0.00  0.00    +0.000 A 
ATOM      5  C   UNL     1       5.963   5.632  16.511  0.00  0.00    +0.000 A 
ATOM      6 CL   UNL     1       4.906   4.803  15.442  0.00  0.00    +0.000 Cl
ATOM      7  C   UNL     1       5.808   5.627  17.893  0.00  0.00    +0.000 A 
ATOM      8  N   UNL     1       6.607   6.367  18.701  0.00  0.00    +0.000 NA
ATOM      9  H   UNL     1       7.896   7.997  19.856  0.00  0.00    +0.000 HD
ENDROOT
BRANCH   1  11
ATOM     10  C   UNL     1       8.968  10.057  19.012  0.00  0.00    +0.000 C 
ATOM     11  N   UNL     1       9.006   8.928  18.388  0.00  0.00    +0.000 NA
BRANCH  10  16
ATOM     12  C   UNL     1       9.679  13.568  17.837  0.00  0.00    +0.000 A 
ATOM     13  C   UNL     1      10.965  13.407  17.307  0.00  0.00    +0.000 A 
ATOM     14  C   UNL     1      11.600  12.169  17.342  0.00  0.00    +0.000 A 
ATOM     15  C   UNL     1      10.946  11.077  17.899  0.00  0.00    +0.000 A 
ATOM     16  C   UNL     1       9.656  11.228  18.428  0.00  0.00    +0.000 A 
ATOM     17  C   UNL     1       9.024  12.474  18.410  0.00  0.00    +0.000 A 
BRANCH  12  19
ATOM     18  C   UNL     1       9.661  15.808  18.640  0.00  0.00    +0.000 C 
ATOM     19  O   UNL     1       9.180  14.837  17.722  0.00  0.00    +0.000 OA
ENDBRANCH  12  19
ENDBRANCH  10  16
ENDBRANCH   1  11
BRANCH   7  20
ATOM     20  N   UNL     1       4.838   4.788  18.503  0.00  0.00    +0.000 N 
ATOM     21  H   UNL     1       4.520   4.062  17.854  0.00  0.00    +0.000 HD
BRANCH  20  22
ATOM     22  C   UNL     1       3.769   5.211  19.327  0.00  0.00    +0.000 A 
ATOM     23  C   UNL     1       3.271   6.524  19.218  0.00  0.00    +0.000 A 
ATOM     24  C   UNL     1       2.125   6.930  19.907  0.00  0.00    +0.000 A 
ATOM     25  C   UNL     1       1.441   6.029  20.713  0.00  0.00    +0.000 A 
ATOM     26  C   UNL     1       1.916   4.727  20.847  0.00  0.00    +0.000 A 
ATOM     27  C   UNL     1       3.077   4.321  20.168  0.00  0.00    +0.000 A 
BRANCH  27  28
ATOM     28  S   UNL     1       3.595   2.626  20.362  0.00  0.00    +0.000 S 
ATOM     29  O   UNL     1       5.017   2.574  20.069  0.00  0.00    +0.000 OA
ATOM     30  O   UNL     1       3.106   2.213  21.669  0.00  0.00    +0.000 OA
BRANCH  28  31
ATOM     31  C   UNL     1       2.753   1.660  19.104  0.00  0.00    +0.000 C 
ATOM     32  C   UNL     1       1.350   2.176  18.801  0.00  0.00    +0.000 C 
ATOM     33  C   UNL     1       3.586   1.659  17.818  0.00  0.00    +0.000 C 
ENDBRANCH  28  31
ENDBRANCH  27  28
ENDBRANCH  20  22
ENDBRANCH   7  20
TORSDOF 7
ENDMDL
MODEL 3
REMARK VINA RESULT:      -7.9      0.989      1.084
REMARK  Name = 
REMARK  10 active torsions:
REMARK  status: ('A' for Active; 'I' for Inactive)
REMARK    1  A    between atoms: C_1  and  O_2
REMARK    2  A    between atoms: O_2  and  C_3
REMARK    3  A    between atoms: C_7  and  C_8
REMARK    4  A    between atoms: N_9  and  N_10
REMARK    5  A    between atoms: C_16  and  N_17
REMARK    6  A    between atoms: N_17  and  C_18
REMARK    7  A    between atoms: C_23  and  S_24
REMARK    8  A    between atoms: S_24  and  C_27
REMARK    9  A    between atoms: C_27  and  C_28
REMARK   10  A    between atoms: C_27  and  C_29
REMARK                            x       y       z     vdW  Elec       q    Type
REMARK                         _______ _______ _______ _____ _____    ______ ____
ROOT
ATOM      1  N   UNL     1       0.141   9.573  22.602  0.00  0.00    +0.000 N 
ATOM      2  C   UNL     1       0.720   9.216  21.367  0.00  0.00    +0.000 A 
ATOM      3  N   UNL     1       0.494   9.989  20.284  0.00  0.00    +0.000 NA
ATOM      4  C   UNL     1       1.010   9.583  19.114  0.00  0.00    +0.000 A 
ATOM      5  C   UNL     1       1.767   8.448  18.980  0.00  0.00    +0.000 A 
ATOM      6 CL   UNL     1       2.335   7.956  17.436  0.00  0.00    +0.000 Cl
ATOM      7  C   UNL     1       2.002   7.727  20.145  0.00  0.00    +0.000 A 
ATOM      8  N   UNL     1       1.461   8.097  21.332  0.00  0.00    +0.000 NA
ATOM      9  H   UNL     1       0.134   8.748  23.194  0.00  0.00    +0.000 HD
ENDROOT
BRANCH   1  11
ATOM     10  C   UNL     1      -0.856  11.584  22.894  0.00  0.00    +0.000 C 
ATOM     11  N   UNL     1      -0.969  10.354  22.519  0.00  0.00    +0.000 NA
BRANCH  10  16
ATOM     12  C   UNL     1      -4.367  12.935  23.133  0.00  0.00    +0.000 A 
ATOM     13  C   UNL     1      -4.203  14.188  22.529  0.00  0.00    +0.000 A 
ATOM     14  C   UNL     1      -2.958  14.593  22.057  0.00  0.00    +0.000 A 
ATOM     15  C   UNL     1      -1.867  13.742  22.177  0.00  0.00    +0.000 A 
ATOM     16  C   UNL     1      -2.023  12.484  22.778  0.00  0.00    +0.000 A 
ATOM     17  C   UNL     1      -3.269  12.082  23.267  0.00  0.00    +0.000 A 
BRANCH  12  19
ATOM     18  C   UNL     1      -6.481  13.786  23.820  0.00  0.00    +0.000 C 
ATOM     19  O   UNL     1      -5.648  12.671  23.536  0.00  0.00    +0.000 OA
ENDBRANCH  12  19
ENDBRANCH  10  16
ENDBRANCH   1  11
BRANCH   7  20
ATOM     20  N   UNL     1       2.875   6.607  20.130  0.00  0.00    +0.000 N 
ATOM     21  H   UNL     1       3.679   6.775  19.518  0.00  0.00    +0.000 HD
BRANCH  20  22
ATOM     22  C   UNL     1       2.486   5.248  20.067  0.00  0.00    +0.000 A 
ATOM     23  C   UNL     1       1.200   4.861  20.492  0.00  0.00    +0.000 A 
ATOM     24  C   UNL     1       0.732   3.557  20.306  0.00  0.00    +0.000 A 
ATOM     25  C   UNL     1       1.533   2.611  19.681  0.00  0.00    +0.000 A 
ATOM     26  C   UNL     1       2.813   2.963  19.260  0.00  0.00    +0.000 A 
ATOM     27  C   UNL     1       3.292   4.268  19.459  0.00  0.00    +0.000 A 
BRANCH  27  28
ATOM     28  S   UNL     1       4.926   4.648  18.855  0.00  0.00    +0.000 S 
ATOM     29  O   UNL     1       5.481   5.671  19.723  0.00  0.00    +0.000 OA
ATOM     30  O   UNL     1       5.602   3.366  18.717  0.00  0.00    +0.000 OA
BRANCH  28  31
ATOM     31  C   UNL     1       4.739   5.374  17.223  0.00  0.00    +0.000 C 
ATOM     32  C   UNL     1       5.660   6.568  16.997  0.00  0.00    +0.000 C 
ATOM     33  C   UNL     1       5.012   4.309  16.156  0.00  0.00    +0.000 C 
ENDBRANCH  28  31
ENDBRANCH  27  28
ENDBRANCH  20  22
ENDBRANCH   7  20
TORSDOF 7
ENDMDL
MODEL 4
REMARK VINA RESULT:      -7.8      0.937      1.472
REMARK  Name = 
REMARK  10 active torsions:
REMARK  status: ('A' for Active; 'I' for Inactive)
REMARK    1  A    between atoms: C_1  and  O_2
REMARK    2  A    between atoms: O_2  and  C_3
REMARK    3  A    between atoms: C_7  and  C_8
REMARK    4  A    between atoms: N_9  and  N_10
REMARK    5  A    between atoms: C_16  and  N_17
REMARK    6  A    between atoms: N_17  and  C_18
REMARK    7  A    between atoms: C_23  and  S_24
REMARK    8  A    between atoms: S_24  and  C_27
REMARK    9  A    between atoms: C_27  and  C_28
REMARK   10  A    between atoms: C_27  and  C_29
REMARK                            x       y       z     vdW  Elec       q    Type
REMARK                         _______ _______ _______ _____ _____    ______ ____
ROOT
ATOM      1  N   UNL     1       0.257   9.249  22.353  0.00  0.00    +0.000 N 
ATOM      2  C   UNL     1       0.901   8.903  21.148  0.00  0.00    +0.000 A 
ATOM      3  N   UNL     1       0.767   9.707  20.073  0.00  0.00    +0.000 NA
ATOM      4  C   UNL     1       1.343   9.312  18.926  0.00  0.00    +0.000 A 
ATOM      5  C   UNL     1       2.071   8.157  18.811  0.00  0.00    +0.000 A 
ATOM      6 CL   UNL     1       2.719   7.683  17.293  0.00  0.00    +0.000 Cl
ATOM      7  C   UNL     1       2.211   7.402  19.970  0.00  0.00    +0.000 A 
ATOM      8  N   UNL     1       1.609   7.761  21.130  0.00  0.00    +0.000 NA
ATOM      9  H   UNL     1       0.188   8.411  22.923  0.00  0.00    +0.000 HD
ENDROOT
BRANCH   1  11
ATOM     10  C   UNL     1      -0.868  11.111  22.980  0.00  0.00    +0.000 C 
ATOM     11  N   UNL     1      -0.821  10.067  22.222  0.00  0.00    +0.000 NA
BRANCH  10  16
ATOM     12  C   UNL     1      -3.063  13.895  21.699  0.00  0.00    +0.000 A 
ATOM     13  C   UNL     1      -4.123  13.828  22.611  0.00  0.00    +0.000 A 
ATOM     14  C   UNL     1      -4.129  12.877  23.628  0.00  0.00    +0.000 A 
ATOM     15  C   UNL     1      -3.065  11.991  23.747  0.00  0.00    +0.000 A 
ATOM     16  C   UNL     1      -1.997  12.054  22.840  0.00  0.00    +0.000 A 
ATOM     17  C   UNL     1      -1.998  12.997  21.807  0.00  0.00    +0.000 A 
BRANCH  12  19
ATOM     18  C   UNL     1      -3.752  16.116  21.195  0.00  0.00    +0.000 C 
ATOM     19  O   UNL     1      -3.191  14.885  20.763  0.00  0.00    +0.000 OA
ENDBRANCH  12  19
ENDBRANCH  10  16
ENDBRANCH   1  11
BRANCH   7  20
ATOM     20  N   UNL     1       3.049   6.255  19.981  0.00  0.00    +0.000 N 
ATOM     21  H   UNL     1       4.024   6.511  19.803  0.00  0.00    +0.000 HD
BRANCH  20  22
ATOM     22  C   UNL     1       2.755   5.002  19.394  0.00  0.00    +0.000 A 
ATOM     23  C   UNL     1       1.460   4.458  19.502  0.00  0.00    +0.000 A 
ATOM     24  C   UNL     1       1.095   3.299  18.811  0.00  0.00    +0.000 A 
ATOM     25  C   UNL     1       2.012   2.662  17.986  0.00  0.00    +0.000 A 
ATOM     26  C   UNL     1       3.302   3.172  17.867  0.00  0.00    +0.000 A 
ATOM     27  C   UNL     1       3.676   4.328  18.572  0.00  0.00    +0.000 A 
BRANCH  27  28
ATOM     28  S   UNL     1       5.334   4.938  18.334  0.00  0.00    +0.000 S 
ATOM     29  O   UNL     1       5.261   6.388  18.305  0.00  0.00    +0.000 OA
ATOM     30  O   UNL     1       6.147   4.271  19.341  0.00  0.00    +0.000 OA
BRANCH  28  31
ATOM     31  C   UNL     1       5.877   4.397  16.710  0.00  0.00    +0.000 C 
ATOM     32  C   UNL     1       5.259   5.208  15.577  0.00  0.00    +0.000 C 
ATOM     33  C   UNL     1       7.405   4.485  16.627  0.00  0.00    +0.000 C 
ENDBRANCH  28  31
ENDBRANCH  27  28
ENDBRANCH  20  22
ENDBRANCH   7  20
TORSDOF 7
ENDMDL
MODEL 5
REMARK VINA RESULT:      -7.7      0.897      1.069
REMARK  Name = 
REMARK  10 active torsions:
REMARK  status: ('A' for Active; 'I' for Inactive)
REMARK    1  A    between atoms: C_1  and  O_2
REMARK    2  A    between atoms: O_2  and  C_3
REMARK    3  A    between atoms: C_7  and  C_8
REMARK    4  A    between atoms: N_9  and  N_10
REMARK    5  A    between atoms: C_16  and  N_17
REMARK    6  A    between atoms: N_17  and  C_18
REMARK    7  A    between atoms: C_23  and  S_24
REMARK    8  A    between atoms: S_24  and  C_27
REMARK    9  A    between atoms: C_27  and  C_28
REMARK   10  A    between atoms: C_27  and  C_29
REMARK                            x       y       z     vdW  Elec       q    Type
REMARK                         _______ _______ _______ _____ _____    ______ ____
ROOT
ATOM      1  N   UNL     1       0.258   9.320  22.249  0.00  0.00    +0.000 N 
ATOM      2  C   UNL     1       0.916   8.946  21.060  0.00  0.00    +0.000 A 
ATOM      3  N   UNL     1       0.816   9.739  19.973  0.00  0.00    +0.000 NA
ATOM      4  C   UNL     1       1.405   9.320  18.842  0.00  0.00    +0.000 A 
ATOM      5  C   UNL     1       2.115   8.150  18.754  0.00  0.00    +0.000 A 
ATOM      6 CL   UNL     1       2.781   7.646  17.254  0.00  0.00    +0.000 Cl
ATOM      7  C   UNL     1       2.219   7.407  19.925  0.00  0.00    +0.000 A 
ATOM      8  N   UNL     1       1.603   7.792  21.069  0.00  0.00    +0.000 NA
ATOM      9  H   UNL     1       0.163   8.490  22.828  0.00  0.00    +0.000 HD
ENDROOT
BRANCH   1  11
ATOM     10  C   UNL     1      -0.695  11.348  22.569  0.00  0.00    +0.000 C 
ATOM     11  N   UNL     1      -0.803  10.155  22.088  0.00  0.00    +0.000 NA
BRANCH  10  16
ATOM     12  C   UNL     1      -3.277  14.010  23.244  0.00  0.00    +0.000 A 
ATOM     13  C   UNL     1      -3.901  14.088  21.992  0.00  0.00    +0.000 A 
ATOM     14  C   UNL     1      -3.477  13.288  20.934  0.00  0.00    +0.000 A 
ATOM     15  C   UNL     1      -2.430  12.395  21.125  0.00  0.00    +0.000 A 
ATOM     16  C   UNL     1      -1.802  12.307  22.376  0.00  0.00    +0.000 A 
ATOM     17  C   UNL     1      -2.216  13.122  23.435  0.00  0.00    +0.000 A 
BRANCH  12  19
ATOM     18  C   UNL     1      -3.011  15.125  25.330  0.00  0.00    +0.000 C 
ATOM     19  O   UNL     1      -3.808  14.847  24.187  0.00  0.00    +0.000 OA
ENDBRANCH  12  19
ENDBRANCH  10  16
ENDBRANCH   1  11
BRANCH   7  20
ATOM     20  N   UNL     1       3.035   6.246  19.965  0.00  0.00    +0.000 N 
ATOM     21  H   UNL     1       4.023   6.486  19.842  0.00  0.00    +0.000 HD
BRANCH  20  22
ATOM     22  C   UNL     1       2.751   5.006  19.346  0.00  0.00    +0.000 A 
ATOM     23  C   UNL     1       1.455   4.460  19.420  0.00  0.00    +0.000 A 
ATOM     24  C   UNL     1       1.102   3.316  18.699  0.00  0.00    +0.000 A 
ATOM     25  C   UNL     1       2.034   2.696  17.876  0.00  0.00    +0.000 A 
ATOM     26  C   UNL     1       3.326   3.208  17.791  0.00  0.00    +0.000 A 
ATOM     27  C   UNL     1       3.687   4.348  18.527  0.00  0.00    +0.000 A 
BRANCH  27  28
ATOM     28  S   UNL     1       5.349   4.963  18.331  0.00  0.00    +0.000 S 
ATOM     29  O   UNL     1       5.271   6.412  18.282  0.00  0.00    +0.000 OA
ATOM     30  O   UNL     1       6.134   4.311  19.370  0.00  0.00    +0.000 OA
BRANCH  28  31
ATOM     31  C   UNL     1       5.943   4.404  16.731  0.00  0.00    +0.000 C 
ATOM     32  C   UNL     1       5.403   5.237  15.574  0.00  0.00    +0.000 C 
ATOM     33  C   UNL     1       7.475   4.438  16.715  0.00  0.00    +0.000 C 
ENDBRANCH  28  31
ENDBRANCH  27  28
ENDBRANCH  20  22
ENDBRANCH   7  20
TORSDOF 7
ENDMDL
MODEL 6
REMARK VINA RESULT:      -7.6      0.856      1.039
REMARK  Name = 
REMARK  10 active torsions:
REMARK  status: ('A' for Active; 'I' for Inactive)
REMARK    1  A    between atoms: C_1  and  O_2
REMARK    2  A    between atoms: O_2  and  C_3
REMARK    3  A    between atoms: C_7  and  C_8
REMARK    4  A    between atoms: N_9  and  N_10
REMARK    5  A    between atoms: C_16  and  N_17
REMARK    6  A    between atoms: N_17  and  C_18
REMARK    7  A    between atoms: C_23  and  S_24
REMARK    8  A    between atoms: S_24  and  C_27
REMARK    9  A    between atoms: C_27  and  C_28
REMARK   10  A    between atoms: C_27  and  C_29
REMARK                            x       y       z     vdW  Elec       q    Type
REMARK                         _______ _______ _______ _____ _____    ______ ____
ROOT
ATOM      1  N   UNL     1       0.405   9.246  22.235  0.00  0.00    +0.000 N 
ATOM      2  C   UNL     1       1.022   8.917  21.012  0.00  0.00    +0.000 A 
ATOM      3  N   UNL     1       0.827   9.711  19.939  0.00  0.00    +0.000 NA
ATOM      4  C   UNL     1       1.380   9.333  18.776  0.00  0.00    +0.000 A 
ATOM      5  C   UNL     1       2.145   8.203  18.642  0.00  0.00    +0.000 A 
ATOM      6 CL   UNL     1       2.762   7.746  17.106  0.00  0.00    +0.000 Cl
ATOM      7  C   UNL     1       2.347   7.458  19.799  0.00  0.00    +0.000 A 
ATOM      8  N   UNL     1       1.769   7.801  20.976  0.00  0.00    +0.000 NA
ATOM      9  H   UNL     1       0.383   8.408  22.810  0.00  0.00    +0.000 HD
ENDROOT
BRANCH   1  11
ATOM     10  C   UNL     1      -0.573  11.281  22.402  0.00  0.00    +0.000 C 
ATOM     11  N   UNL     1      -0.705  10.025  22.135  0.00  0.00    +0.000 NA
BRANCH  10  16
ATOM     12  C   UNL     1      -4.010  12.768  22.831  0.00  0.00    +0.000 A 
ATOM     13  C   UNL     1      -3.927  13.864  21.962  0.00  0.00    +0.000 A 
ATOM     14  C   UNL     1      -2.759  14.122  21.251  0.00  0.00    +0.000 A 
ATOM     15  C   UNL     1      -1.665  13.278  21.396  0.00  0.00    +0.000 A 
ATOM     16  C   UNL     1      -1.740  12.176  22.261  0.00  0.00    +0.000 A 
ATOM     17  C   UNL     1      -2.907  11.925  22.989  0.00  0.00    +0.000 A 
BRANCH  12  19
ATOM     18  C   UNL     1      -5.921  13.830  23.770  0.00  0.00    +0.000 C 
ATOM     19  O   UNL     1      -5.223  12.636  23.450  0.00  0.00    +0.000 OA
ENDBRANCH  12  19
ENDBRANCH  10  16
ENDBRANCH   1  11
BRANCH   7  20
ATOM     20  N   UNL     1       3.224   6.342  19.787  0.00  0.00    +0.000 N 
ATOM     21  H   UNL     1       4.199   6.641  19.689  0.00  0.00    +0.000 HD
BRANCH  20  22
ATOM     22  C   UNL     1       3.014   5.123  19.100  0.00  0.00    +0.000 A 
ATOM     23  C   UNL     1       1.710   4.609  18.957  0.00  0.00    +0.000 A 
ATOM     24  C   UNL     1       1.450   3.491  18.160  0.00  0.00    +0.000 A 
ATOM     25  C   UNL     1       2.485   2.865  17.477  0.00  0.00    +0.000 A 
ATOM     26  C   UNL     1       3.785   3.347  17.607  0.00  0.00    +0.000 A 
ATOM     27  C   UNL     1       4.052   4.461  18.419  0.00  0.00    +0.000 A 
BRANCH  27  28
ATOM     28  S   UNL     1       5.737   5.038  18.500  0.00  0.00    +0.000 S 
ATOM     29  O   UNL     1       5.964   5.520  19.850  0.00  0.00    +0.000 OA
ATOM     30  O   UNL     1       6.549   3.952  17.969  0.00  0.00    +0.000 OA
BRANCH  28  31
ATOM     31  C   UNL     1       5.875   6.447  17.396  0.00  0.00    +0.000 C 
ATOM     32  C   UNL     1       7.231   7.139  17.485  0.00  0.00    +0.000 C 
ATOM     33  C   UNL     1       5.627   5.992  15.954  0.00  0.00    +0.000 C 
ENDBRANCH  28  31
ENDBRANCH  27  28
ENDBRANCH  20  22
ENDBRANCH   7  20
TORSDOF 7
ENDMDL
MODEL 7
REMARK VINA RESULT:      -7.5      1.309      1.606
REMARK  Name = 
REMARK  10 active torsions:
REMARK  status: ('A' for Active; 'I' for Inactive)
REMARK    1  A    between atoms: C_1  and  O_2
REMARK    2  A    between atoms: O_2  and  C_3
REMARK    3  A    between atoms: C_7  and  C_8
REMARK    4  A    between atoms: N_9  and  N_10
REMARK    5  A    between atoms: C_16  and  N_17
REMARK    6  A    between atoms: N_17  and  C_18
REMARK    7  A    between atoms: C_23  and  S_24
REMARK    8  A    between atoms: S_24  and  C_27
REMARK    9  A    between atoms: C_27  and  C_28
REMARK   10  A    between atoms: C_27  and  C_29
REMARK                            x       y       z     vdW  Elec       q    Type
REMARK                         _______ _______ _______ _____ _____    ______ ____
ROOT
ATOM      1  N   UNL     1       0.375   9.400  22.127  0.00  0.00    +0.000 N 
ATOM      2  C   UNL     1       1.010   9.024  20.926  0.00  0.00    +0.000 A 
ATOM      3  N   UNL     1       0.872   9.804  19.834  0.00  0.00    +0.000 NA
ATOM      4  C   UNL     1       1.439   9.382  18.693  0.00  0.00    +0.000 A 
ATOM      5  C   UNL     1       2.164   8.222  18.599  0.00  0.00    +0.000 A 
ATOM      6 CL   UNL     1       2.801   7.712  17.089  0.00  0.00    +0.000 Cl
ATOM      7  C   UNL     1       2.308   7.493  19.774  0.00  0.00    +0.000 A 
ATOM      8  N   UNL     1       1.714   7.881  20.930  0.00  0.00    +0.000 NA
ATOM      9  H   UNL     1       0.307   8.575  22.716  0.00  0.00    +0.000 HD
ENDROOT
BRANCH   1  11
ATOM     10  C   UNL     1      -0.737  11.283  22.711  0.00  0.00    +0.000 C 
ATOM     11  N   UNL     1      -0.702  10.218  21.983  0.00  0.00    +0.000 NA
BRANCH  10  16
ATOM     12  C   UNL     1      -3.838  12.960  21.377  0.00  0.00    +0.000 A 
ATOM     13  C   UNL     1      -3.962  14.026  22.276  0.00  0.00    +0.000 A 
ATOM     14  C   UNL     1      -3.050  14.192  23.315  0.00  0.00    +0.000 A 
ATOM     15  C   UNL     1      -1.998  13.296  23.455  0.00  0.00    +0.000 A 
ATOM     16  C   UNL     1      -1.864  12.227  22.556  0.00  0.00    +0.000 A 
ATOM     17  C   UNL     1      -2.789  12.049  21.523  0.00  0.00    +0.000 A 
BRANCH  12  19
ATOM     18  C   UNL     1      -4.520  12.175  19.236  0.00  0.00    +0.000 C 
ATOM     19  O   UNL     1      -4.800  12.933  20.405  0.00  0.00    +0.000 OA
ENDBRANCH  12  19
ENDBRANCH  10  16
ENDBRANCH   1  11
BRANCH   7  20
ATOM     20  N   UNL     1       3.143   6.345  19.807  0.00  0.00    +0.000 N 
ATOM     21  H   UNL     1       4.132   6.607  19.767  0.00  0.00    +0.000 HD
BRANCH  20  22
ATOM     22  C   UNL     1       2.927   5.138  19.100  0.00  0.00    +0.000 A 
ATOM     23  C   UNL     1       1.622   4.627  18.956  0.00  0.00    +0.000 A 
ATOM     24  C   UNL     1       1.356   3.523  18.142  0.00  0.00    +0.000 A 
ATOM     25  C   UNL     1       2.387   2.908  17.443  0.00  0.00    +0.000 A 
ATOM     26  C   UNL     1       3.689   3.385  17.574  0.00  0.00    +0.000 A 
ATOM     27  C   UNL     1       3.961   4.486  18.403  0.00  0.00    +0.000 A 
BRANCH  27  28
ATOM     28  S   UNL     1       5.647   5.059  18.485  0.00  0.00    +0.000 S 
ATOM     29  O   UNL     1       5.854   5.605  19.814  0.00  0.00    +0.000 OA
ATOM     30  O   UNL     1       6.463   3.946  18.020  0.00  0.00    +0.000 OA
BRANCH  28  31
ATOM     31  C   UNL     1       5.810   6.414  17.318  0.00  0.00    +0.000 C 
ATOM     32  C   UNL     1       7.154   7.126  17.420  0.00  0.00    +0.000 C 
ATOM     33  C   UNL     1       5.619   5.885  15.892  0.00  0.00    +0.000 C 
ENDBRANCH  28  31
ENDBRANCH  27  28
ENDBRANCH  20  22
ENDBRANCH   7  20
TORSDOF 7
ENDMDL
MODEL 8
REMARK VINA RESULT:      -7.4      1.374      1.605
REMARK  Name = 
REMARK  10 active torsions:
REMARK  status: ('A' for Active; 'I' for Inactive)
REMARK    1  A    between atoms: C_1  and  O_2
REMARK    2  A    between atoms: O_2  and  C_3
REMARK    3  A    between atoms: C_7  and  C_8
REMARK    4  A    between atoms: N_9  and  N_10
REMARK    5  A    between atoms: C_16  and  N_17
REMARK    6  A    between atoms: N_17  and  C_18
REMARK    7  A    between atoms: C_23  and  S_24
REMARK    8  A    between atoms: S_24  and  C_27
REMARK    9  A    between atoms: C_27  and  C_28
REMARK   10  A    between atoms: C_27  and  C_29
REMARK                            x       y       z     vdW  Elec       q    Type
REMARK                         _______ _______ _______ _____ _____    ______ ____
ROOT
ATOM      1  N   UNL     1       0.049   9.765  23.059  0.00  0.00    +0.000 N 
ATOM      2  C   UNL     1       0.475   9.539  21.734  0.00  0.00    +0.000 A 
ATOM      3  N   UNL     1       0.048  10.361  20.754  0.00  0.00    +0.000 NA
ATOM      4  C   UNL     1       0.425  10.078  19.497  0.00  0.00    +0.000 A 
ATOM      5  C   UNL     1       1.235   9.020  19.177  0.00  0.00    +0.000 A 
ATOM      6 CL   UNL     1       1.618   8.679  17.539  0.00  0.00    +0.000 Cl
ATOM      7  C   UNL     1       1.679   8.243  20.242  0.00  0.00    +0.000 A 
ATOM      8  N   UNL     1       1.283   8.489  21.515  0.00  0.00    +0.000 NA
ATOM      9  H   UNL     1       0.183   8.904  23.582  0.00  0.00    +0.000 HD
ENDROOT
BRANCH   1  11
ATOM     10  C   UNL     1      -1.056  11.741  23.066  0.00  0.00    +0.000 C 
ATOM     11  N   UNL     1      -1.115  10.457  23.185  0.00  0.00    +0.000 NA
BRANCH  10  16
ATOM     12  C   UNL     1      -4.604  12.752  23.837  0.00  0.00    +0.000 A 
ATOM     13  C   UNL     1      -4.637  14.033  23.270  0.00  0.00    +0.000 A 
ATOM     14  C   UNL     1      -3.509  14.566  22.651  0.00  0.00    +0.000 A 
ATOM     15  C   UNL     1      -2.342  13.816  22.586  0.00  0.00    +0.000 A 
ATOM     16  C   UNL     1      -2.301  12.531  23.148  0.00  0.00    +0.000 A 
ATOM     17  C   UNL     1      -3.427  12.001  23.785  0.00  0.00    +0.000 A 
BRANCH  12  19
ATOM     18  C   UNL     1      -6.940  13.132  24.093  0.00  0.00    +0.000 C 
ATOM     19  O   UNL     1      -5.788  12.359  24.399  0.00  0.00    +0.000 OA
ENDBRANCH  12  19
ENDBRANCH  10  16
ENDBRANCH   1  11
BRANCH   7  20
ATOM     20  N   UNL     1       2.620   7.202  20.026  0.00  0.00    +0.000 N 
ATOM     21  H   UNL     1       3.379   7.513  19.412  0.00  0.00    +0.000 HD
BRANCH  20  22
ATOM     22  C   UNL     1       2.316   5.842  19.780  0.00  0.00    +0.000 A 
ATOM     23  C   UNL     1       1.295   5.203  20.511  0.00  0.00    +0.000 A 
ATOM     24  C   UNL     1       0.869   3.911  20.193  0.00  0.00    +0.000 A 
ATOM     25  C   UNL     1       1.445   3.229  19.130  0.00  0.00    +0.000 A 
ATOM     26  C   UNL     1       2.463   3.832  18.395  0.00  0.00    +0.000 A 
ATOM     27  C   UNL     1       2.904   5.125  18.722  0.00  0.00    +0.000 A 
BRANCH  27  28
ATOM     28  S   UNL     1       4.184   5.840  17.708  0.00  0.00    +0.000 S 
ATOM     29  O   UNL     1       4.376   4.959  16.570  0.00  0.00    +0.000 OA
ATOM     30  O   UNL     1       3.789   7.226  17.496  0.00  0.00    +0.000 OA
BRANCH  28  31
ATOM     31  C   UNL     1       5.703   5.819  18.666  0.00  0.00    +0.000 C 
ATOM     32  C   UNL     1       6.028   4.440  19.229  0.00  0.00    +0.000 C 
ATOM     33  C   UNL     1       6.864   6.301  17.791  0.00  0.00    +0.000 C 
ENDBRANCH  28  31
ENDBRANCH  27  28
ENDBRANCH  20  22
ENDBRANCH   7  20
TORSDOF 7
ENDMDL
MODEL 9
REMARK VINA RESULT:      -7.4      2.975      4.698
REMARK  Name = 
REMARK  10 active torsions:
REMARK  status: ('A' for Active; 'I' for Inactive)
REMARK    1  A    between atoms: C_1  and  O_2
REMARK    2  A    between atoms: O_2  and  C_3
REMARK    3  A    between atoms: C_7  and  C_8
REMARK    4  A    between atoms: N_9  and  N_10
REMARK    5  A    between atoms: C_16  and  N_17
REMARK    6  A    between atoms: N_17  and  C_18
REMARK    7  A    between atoms: C_23  and  S_24
REMARK    8  A    between atoms: S_24  and  C_27
REMARK    9  A    between atoms: C_27  and  C_28
REMARK   10  A    between atoms: C_27  and  C_29
REMARK                            x       y       z     vdW  Elec       q    Type
REMARK                         _______ _______ _______ _____ _____    ______ ____
ROOT
ATOM      1  N   UNL     1       2.491   7.556  17.808  0.00  0.00    +0.000 N 
ATOM      2  C   UNL     1       2.658   6.232  18.262  0.00  0.00    +0.000 A 
ATOM      3  N   UNL     1       1.898   5.783  19.282  0.00  0.00    +0.000 NA
ATOM      4  C   UNL     1       2.128   4.538  19.728  0.00  0.00    +0.000 A 
ATOM      5  C   UNL     1       3.072   3.708  19.181  0.00  0.00    +0.000 A 
ATOM      6 CL   UNL     1       3.358   2.153  19.851  0.00  0.00    +0.000 Cl
ATOM      7  C   UNL     1       3.785   4.217  18.101  0.00  0.00    +0.000 A 
ATOM      8  N   UNL     1       3.595   5.483  17.657  0.00  0.00    +0.000 NA
ATOM      9  H   UNL     1       3.328   7.818  17.294  0.00  0.00    +0.000 HD
ENDROOT
BRANCH   1  11
ATOM     10  C   UNL     1       1.305   9.432  18.251  0.00  0.00    +0.000 C 
ATOM     11  N   UNL     1       1.956   8.418  18.713  0.00  0.00    +0.000 NA
BRANCH  10  16
ATOM     12  C   UNL     1       0.067  10.995  21.451  0.00  0.00    +0.000 A 
ATOM     13  C   UNL     1      -0.562  12.142  20.951  0.00  0.00    +0.000 A 
ATOM     14  C   UNL     1      -0.574  12.409  19.585  0.00  0.00    +0.000 A 
ATOM     15  C   UNL     1       0.036  11.524  18.705  0.00  0.00    +0.000 A 
ATOM     16  C   UNL     1       0.665  10.370  19.197  0.00  0.00    +0.000 A 
ATOM     17  C   UNL     1       0.693  10.108  20.570  0.00  0.00    +0.000 A 
BRANCH  12  19
ATOM     18  C   UNL     1      -0.070   9.538  23.328  0.00  0.00    +0.000 C 
ATOM     19  O   UNL     1      -0.012  10.860  22.810  0.00  0.00    +0.000 OA
ENDBRANCH  12  19
ENDBRANCH  10  16
ENDBRANCH   1  11
BRANCH   7  20
ATOM     20  N   UNL     1       4.696   3.391  17.391  0.00  0.00    +0.000 N 
ATOM     21  H   UNL     1       5.304   2.876  18.034  0.00  0.00    +0.000 HD
BRANCH  20  22
ATOM     22  C   UNL     1       5.409   3.748  16.222  0.00  0.00    +0.000 A 
ATOM     23  C   UNL     1       4.828   3.552  14.954  0.00  0.00    +0.000 A 
ATOM     24  C   UNL     1       5.439   4.029  13.790  0.00  0.00    +0.000 A 
ATOM     25  C   UNL     1       6.639   4.723  13.867  0.00  0.00    +0.000 A 
ATOM     26  C   UNL     1       7.241   4.923  15.107  0.00  0.00    +0.000 A 
ATOM     27  C   UNL     1       6.637   4.432  16.277  0.00  0.00    +0.000 A 
BRANCH  27  28
ATOM     28  S   UNL     1       7.451   4.766  17.827  0.00  0.00    +0.000 S 
ATOM     29  O   UNL     1       6.493   4.497  18.885  0.00  0.00    +0.000 OA
ATOM     30  O   UNL     1       8.706   4.030  17.778  0.00  0.00    +0.000 OA
BRANCH  28  31
ATOM     31  C   UNL     1       7.820   6.523  17.872  0.00  0.00    +0.000 C 
ATOM     32  C   UNL     1       6.622   7.390  17.501  0.00  0.00    +0.000 C 
ATOM     33  C   UNL     1       8.313   6.905  19.272  0.00  0.00    +0.000 C 
ENDBRANCH  28  31
ENDBRANCH  27  28
ENDBRANCH  20  22
ENDBRANCH   7  20
TORSDOF 7
ENDMDL
