MODEL 1
REMARK VINA RESULT:      -8.1      0.000      0.000
REMARK  Name = 
REMARK  6 active torsions:
REMARK  status: ('A' for Active; 'I' for Inactive)
REMARK    1  A    between atoms: C_1  and  O_2
REMARK    2  A    between atoms: O_2  and  C_3
REMARK    3  A    between atoms: C_3  and  C_5
REMARK    4  A    between atoms: C_9  and  N_10
REMARK    5  A    between atoms: C_11  and  C_13
REMARK    6  A    between atoms: C_17  and  N_18
REMARK                            x       y       z     vdW  Elec       q    Type
REMARK                         _______ _______ _______ _____ _____    ______ ____
ROOT
ATOM      1  N   UNL     1       6.985   7.704  17.040  0.00  0.00    +0.000 N 
ATOM      2  C   UNL     1       7.895   7.872  18.085  0.00  0.00    +0.000 C 
ATOM      3  O   UNL     1       8.243   6.912  18.776  0.00  0.00    +0.000 OA
ATOM      4  H   UNL     1       6.922   8.427  16.339  0.00  0.00    +0.000 HD
ENDROOT
BRANCH   2   5
ATOM      5  C   UNL     1       8.528   9.144  18.416  0.00  0.00    +0.000 A 
ATOM      6  C   UNL     1       8.403  10.248  17.586  0.00  0.00    +0.000 A 
ATOM      7  C   UNL     1       9.107  11.309  18.149  0.00  0.00    +0.000 A 
ATOM      8  C   UNL     1       9.303  12.637  17.739  0.00  0.00    +0.000 A 
ATOM      9  C   UNL     1      10.108  13.459  18.529  0.00  0.00    +0.000 A 
ATOM     10  C   UNL     1      10.699  12.968  19.701  0.00  0.00    +0.000 A 
ATOM     11  C   UNL     1      10.485  11.628  20.127  0.00  0.00    +0.000 A 
ATOM     12  C   UNL     1       9.680  10.819  19.320  0.00  0.00    +0.000 A 
ATOM     13  O   UNL     1       9.319   9.481  19.496  0.00  0.00    +0.000 OA
BRANCH   9  14
ATOM     14  N   UNL     1      10.321  14.850  18.083  0.00  0.00    +0.000 N 
ATOM     15  O   UNL     1      10.873  15.030  16.991  0.00  0.00    +0.000 OA
ATOM     16  O   UNL     1       9.931  15.752  18.836  0.00  0.00    +0.000 OA
ENDBRANCH   9  14
ENDBRANCH   2   5
BRANCH   1  21
ATOM     17  C   UNL     1       4.384   4.967  17.072  0.00  0.00    +0.000 A 
ATOM     18  C   UNL     1       4.979   4.011  16.240  0.00  0.00    +0.000 A 
ATOM     19  C   UNL     1       6.245   4.236  15.731  0.00  0.00    +0.000 A 
ATOM     20  C   UNL     1       6.905   5.424  16.040  0.00  0.00    +0.000 A 
ATOM     21  C   UNL     1       6.320   6.443  16.817  0.00  0.00    +0.000 A 
ATOM     22  C   UNL     1       5.054   6.184  17.364  0.00  0.00    +0.000 A 
BRANCH  17  23
ATOM     23  C   UNL     1       3.040   4.604  17.606  0.00  0.00    +0.000 C 
ATOM     24  O   UNL     1       2.352   5.353  18.278  0.00  0.00    +0.000 OA
BRANCH  23  26
ATOM     25  C   UNL     1       1.903   2.664  18.212  0.00  0.00    +0.000 C 
ATOM     26  O   UNL     1       2.705   3.336  17.240  0.00  0.00    +0.000 OA
ENDBRANCH  23  26
ENDBRANCH  17  23
ENDBRANCH   1  21
TORSDOF 5
ENDMDL
MODEL 2
REMARK VINA RESULT:      -7.7      5.824      8.171
REMARK  Name = 
REMARK  6 active torsions:
REMARK  status: ('A' for Active; 'I' for Inactive)
REMARK    1  A    between atoms: C_1  and  O_2
REMARK    2  A    between atoms: O_2  and  C_3
REMARK    3  A    between atoms: C_3  and  C_5
REMARK    4  A    between atoms: C_9  and  N_10
REMARK    5  A    between atoms: C_11  and  C_13
REMARK    6  A    between atoms: C_17  and  N_18
REMARK                            x       y       z     vdW  Elec       q    Type
REMARK                         _______ _______ _______ _____ _____    ______ ____
ROOT
ATOM      1  N   UNL     1       2.799   6.207  19.348  0.00  0.00    +0.000 N 
ATOM      2  C   UNL     1       2.242   7.444  19.023  0.00  0.00    +0.000 C 
ATOM      3  O   UNL     1       2.330   7.892  17.878  0.00  0.00    +0.000 OA
ATOM      4  H   UNL     1       2.493   5.750  20.194  0.00  0.00    +0.000 HD
ENDROOT
BRANCH   2   5
ATOM      5  C   UNL     1       1.492   8.271  19.964  0.00  0.00    +0.000 A 
ATOM      6  C   UNL     1       1.044   9.535  19.612  0.00  0.00    +0.000 A 
ATOM      7  C   UNL     1       0.367  10.084  20.699  0.00  0.00    +0.000 A 
ATOM      8  C   UNL     1      -0.283  11.313  20.884  0.00  0.00    +0.000 A 
ATOM      9  C   UNL     1      -0.848  11.579  22.132  0.00  0.00    +0.000 A 
ATOM     10  C   UNL     1      -0.769  10.638  23.168  0.00  0.00    +0.000 A 
ATOM     11  C   UNL     1      -0.127   9.384  22.974  0.00  0.00    +0.000 A 
ATOM     12  C   UNL     1       0.437   9.138  21.719  0.00  0.00    +0.000 A 
ATOM     13  O   UNL     1       1.125   8.009  21.268  0.00  0.00    +0.000 OA
BRANCH   9  14
ATOM     14  N   UNL     1      -1.517  12.881  22.324  0.00  0.00    +0.000 N 
ATOM     15  O   UNL     1      -1.503  13.377  23.456  0.00  0.00    +0.000 OA
ATOM     16  O   UNL     1      -2.053  13.394  21.333  0.00  0.00    +0.000 OA
ENDBRANCH   9  14
ENDBRANCH   2   5
BRANCH   1  21
ATOM     17  C   UNL     1       5.769   4.991  17.358  0.00  0.00    +0.000 A 
ATOM     18  C   UNL     1       5.206   3.925  16.645  0.00  0.00    +0.000 A 
ATOM     19  C   UNL     1       3.856   3.654  16.769  0.00  0.00    +0.000 A 
ATOM     20  C   UNL     1       3.076   4.437  17.617  0.00  0.00    +0.000 A 
ATOM     21  C   UNL     1       3.610   5.476  18.404  0.00  0.00    +0.000 A 
ATOM     22  C   UNL     1       4.972   5.771  18.237  0.00  0.00    +0.000 A 
BRANCH  17  23
ATOM     23  C   UNL     1       7.221   5.228  17.115  0.00  0.00    +0.000 C 
ATOM     24  O   UNL     1       8.092   4.411  17.361  0.00  0.00    +0.000 OA
BRANCH  23  26
ATOM     25  C   UNL     1       7.752   7.448  17.574  0.00  0.00    +0.000 C 
ATOM     26  O   UNL     1       7.425   6.467  16.589  0.00  0.00    +0.000 OA
ENDBRANCH  23  26
ENDBRANCH  17  23
ENDBRANCH   1  21
TORSDOF 5
ENDMDL
MODEL 3
REMARK VINA RESULT:      -7.7      5.955      8.304
REMARK  Name = 
REMARK  6 active torsions:
REMARK  status: ('A' for Active; 'I' for Inactive)
REMARK    1  A    between atoms: C_1  and  O_2
REMARK    2  A    between atoms: O_2  and  C_3
REMARK    3  A    between atoms: C_3  and  C_5
REMARK    4  A    between atoms: C_9  and  N_10
REMARK    5  A    between atoms: C_11  and  C_13
REMARK    6  A    between atoms: C_17  and  N_18
REMARK                            x       y       z     vdW  Elec       q    Type
REMARK                         _______ _______ _______ _____ _____    ______ ____
ROOT
ATOM      1  N   UNL     1       2.886   7.238  18.053  0.00  0.00    +0.000 N 
ATOM      2  C   UNL     1       2.284   7.336  19.309  0.00  0.00    +0.000 C 
ATOM      3  O   UNL     1       2.459   6.462  20.159  0.00  0.00    +0.000 OA
ATOM      4  H   UNL     1       2.947   8.069  17.485  0.00  0.00    +0.000 HD
ENDROOT
BRANCH   2   5
ATOM      5  C   UNL     1       1.460   8.465  19.730  0.00  0.00    +0.000 A 
ATOM      6  C   UNL     1       1.059   8.611  21.049  0.00  0.00    +0.000 A 
ATOM      7  C   UNL     1       0.290   9.766  21.154  0.00  0.00    +0.000 A 
ATOM      8  C   UNL     1      -0.350  10.381  22.241  0.00  0.00    +0.000 A 
ATOM      9  C   UNL     1      -1.088  11.540  22.002  0.00  0.00    +0.000 A 
ATOM     10  C   UNL     1      -1.182  12.076  20.711  0.00  0.00    +0.000 A 
ATOM     11  C   UNL     1      -0.518  11.464  19.612  0.00  0.00    +0.000 A 
ATOM     12  C   UNL     1       0.212  10.301  19.870  0.00  0.00    +0.000 A 
ATOM     13  O   UNL     1       0.943   9.504  18.984  0.00  0.00    +0.000 OA
BRANCH   9  14
ATOM     14  N   UNL     1      -1.770  12.173  23.149  0.00  0.00    +0.000 N 
ATOM     15  O   UNL     1      -2.847  11.690  23.520  0.00  0.00    +0.000 OA
ATOM     16  O   UNL     1      -1.217  13.150  23.669  0.00  0.00    +0.000 OA
ENDBRANCH   9  14
ENDBRANCH   2   5
BRANCH   1  21
ATOM     17  C   UNL     1       5.685   4.943  16.977  0.00  0.00    +0.000 A 
ATOM     18  C   UNL     1       5.054   3.694  17.029  0.00  0.00    +0.000 A 
ATOM     19  C   UNL     1       3.711   3.617  17.349  0.00  0.00    +0.000 A 
ATOM     20  C   UNL     1       3.007   4.785  17.634  0.00  0.00    +0.000 A 
ATOM     21  C   UNL     1       3.614   6.056  17.658  0.00  0.00    +0.000 A 
ATOM     22  C   UNL     1       4.966   6.127  17.289  0.00  0.00    +0.000 A 
BRANCH  17  23
ATOM     23  C   UNL     1       7.120   4.919  16.574  0.00  0.00    +0.000 C 
ATOM     24  O   UNL     1       7.989   4.330  17.194  0.00  0.00    +0.000 OA
BRANCH  23  26
ATOM     25  C   UNL     1       7.050   4.889  14.246  0.00  0.00    +0.000 C 
ATOM     26  O   UNL     1       7.311   5.637  15.434  0.00  0.00    +0.000 OA
ENDBRANCH  23  26
ENDBRANCH  17  23
ENDBRANCH   1  21
TORSDOF 5
ENDMDL
MODEL 4
REMARK VINA RESULT:      -7.7      5.862      8.928
REMARK  Name = 
REMARK  6 active torsions:
REMARK  status: ('A' for Active; 'I' for Inactive)
REMARK    1  A    between atoms: C_1  and  O_2
REMARK    2  A    between atoms: O_2  and  C_3
REMARK    3  A    between atoms: C_3  and  C_5
REMARK    4  A    between atoms: C_9  and  N_10
REMARK    5  A    between atoms: C_11  and  C_13
REMARK    6  A    between atoms: C_17  and  N_18
REMARK                            x       y       z     vdW  Elec       q    Type
REMARK                         _______ _______ _______ _____ _____    ______ ____
ROOT
ATOM      1  N   UNL     1       0.688   9.112  19.378  0.00  0.00    +0.000 N 
ATOM      2  C   UNL     1       1.627   8.909  18.365  0.00  0.00    +0.000 C 
ATOM      3  O   UNL     1       1.678   9.668  17.395  0.00  0.00    +0.000 OA
ATOM      4  H   UNL     1       0.835   8.656  20.265  0.00  0.00    +0.000 HD
ENDROOT
BRANCH   2   5
ATOM      5  C   UNL     1       2.626   7.846  18.383  0.00  0.00    +0.000 A 
ATOM      6  C   UNL     1       3.690   7.843  17.494  0.00  0.00    +0.000 A 
ATOM      7  C   UNL     1       4.471   6.717  17.741  0.00  0.00    +0.000 A 
ATOM      8  C   UNL     1       5.650   6.237  17.151  0.00  0.00    +0.000 A 
ATOM      9  C   UNL     1       6.178   5.032  17.617  0.00  0.00    +0.000 A 
ATOM     10  C   UNL     1       5.546   4.327  18.650  0.00  0.00    +0.000 A 
ATOM     11  C   UNL     1       4.362   4.823  19.262  0.00  0.00    +0.000 A 
ATOM     12  C   UNL     1       3.846   6.029  18.778  0.00  0.00    +0.000 A 
ATOM     13  O   UNL     1       2.706   6.727  19.186  0.00  0.00    +0.000 OA
BRANCH   9  14
ATOM     14  N   UNL     1       7.410   4.526  16.981  0.00  0.00    +0.000 N 
ATOM     15  O   UNL     1       8.300   4.081  17.715  0.00  0.00    +0.000 OA
ATOM     16  O   UNL     1       7.474   4.580  15.746  0.00  0.00    +0.000 OA
ENDBRANCH   9  14
ENDBRANCH   2   5
BRANCH   1  21
ATOM     17  C   UNL     1      -2.364  11.009  18.218  0.00  0.00    +0.000 A 
ATOM     18  C   UNL     1      -2.416  12.048  19.156  0.00  0.00    +0.000 A 
ATOM     19  C   UNL     1      -1.425  12.158  20.114  0.00  0.00    +0.000 A 
ATOM     20  C   UNL     1      -0.394  11.221  20.143  0.00  0.00    +0.000 A 
ATOM     21  C   UNL     1      -0.336  10.123  19.263  0.00  0.00    +0.000 A 
ATOM     22  C   UNL     1      -1.322  10.046  18.268  0.00  0.00    +0.000 A 
BRANCH  17  23
ATOM     23  C   UNL     1      -3.453  11.011  17.200  0.00  0.00    +0.000 C 
ATOM     24  O   UNL     1      -4.364  11.821  17.183  0.00  0.00    +0.000 OA
BRANCH  23  26
ATOM     25  C   UNL     1      -3.053  10.446  14.976  0.00  0.00    +0.000 C 
ATOM     26  O   UNL     1      -3.282   9.994  16.312  0.00  0.00    +0.000 OA
ENDBRANCH  23  26
ENDBRANCH  17  23
ENDBRANCH   1  21
TORSDOF 5
ENDMDL
MODEL 5
REMARK VINA RESULT:      -7.6      5.993      8.097
REMARK  Name = 
REMARK  6 active torsions:
REMARK  status: ('A' for Active; 'I' for Inactive)
REMARK    1  A    between atoms: C_1  and  O_2
REMARK    2  A    between atoms: O_2  and  C_3
REMARK    3  A    between atoms: C_3  and  C_5
REMARK    4  A    between atoms: C_9  and  N_10
REMARK    5  A    between atoms: C_11  and  C_13
REMARK    6  A    between atoms: C_17  and  N_18
REMARK                            x       y       z     vdW  Elec       q    Type
REMARK                         _______ _______ _______ _____ _____    ______ ____
ROOT
ATOM      1  N   UNL     1       2.789   7.021  18.518  0.00  0.00    +0.000 N 
ATOM      2  C   UNL     1       2.318   6.931  19.829  0.00  0.00    +0.000 C 
ATOM      3  O   UNL     1       2.602   5.960  20.533  0.00  0.00    +0.000 OA
ATOM      4  H   UNL     1       2.770   7.921  18.063  0.00  0.00    +0.000 HD
ENDROOT
BRANCH   2   5
ATOM      5  C   UNL     1       1.512   7.961  20.476  0.00  0.00    +0.000 A 
ATOM      6  C   UNL     1       1.037   9.054  19.768  0.00  0.00    +0.000 A 
ATOM      7  C   UNL     1       0.308   9.863  20.636  0.00  0.00    +0.000 A 
ATOM      8  C   UNL     1      -0.386  11.067  20.447  0.00  0.00    +0.000 A 
ATOM      9  C   UNL     1      -0.999  11.656  21.554  0.00  0.00    +0.000 A 
ATOM     10  C   UNL     1      -0.925  11.053  22.817  0.00  0.00    +0.000 A 
ATOM     11  C   UNL     1      -0.237   9.823  23.005  0.00  0.00    +0.000 A 
ATOM     12  C   UNL     1       0.374   9.252  21.886  0.00  0.00    +0.000 A 
ATOM     13  O   UNL     1       1.112   8.068  21.792  0.00  0.00    +0.000 OA
BRANCH   9  14
ATOM     14  N   UNL     1      -1.715  12.931  21.350  0.00  0.00    +0.000 N 
ATOM     15  O   UNL     1      -1.437  13.596  20.345  0.00  0.00    +0.000 OA
ATOM     16  O   UNL     1      -2.551  13.254  22.203  0.00  0.00    +0.000 OA
ENDBRANCH   9  14
ENDBRANCH   2   5
BRANCH   1  21
ATOM     17  C   UNL     1       5.568   4.940  17.033  0.00  0.00    +0.000 A 
ATOM     18  C   UNL     1       4.914   3.720  16.817  0.00  0.00    +0.000 A 
ATOM     19  C   UNL     1       3.564   3.606  17.095  0.00  0.00    +0.000 A 
ATOM     20  C   UNL     1       2.875   4.706  17.604  0.00  0.00    +0.000 A 
ATOM     21  C   UNL     1       3.504   5.931  17.899  0.00  0.00    +0.000 A 
ATOM     22  C   UNL     1       4.864   6.049  17.571  0.00  0.00    +0.000 A 
BRANCH  17  23
ATOM     23  C   UNL     1       7.009   4.969  16.654  0.00  0.00    +0.000 C 
ATOM     24  O   UNL     1       7.889   4.416  17.292  0.00  0.00    +0.000 OA
BRANCH  23  26
ATOM     25  C   UNL     1       7.066   4.908  14.327  0.00  0.00    +0.000 C 
ATOM     26  O   UNL     1       7.193   5.691  15.515  0.00  0.00    +0.000 OA
ENDBRANCH  23  26
ENDBRANCH  17  23
ENDBRANCH   1  21
TORSDOF 5
ENDMDL
MODEL 6
REMARK VINA RESULT:      -7.5      5.955      8.367
REMARK  Name = 
REMARK  6 active torsions:
REMARK  status: ('A' for Active; 'I' for Inactive)
REMARK    1  A    between atoms: C_1  and  O_2
REMARK    2  A    between atoms: O_2  and  C_3
REMARK    3  A    between atoms: C_3  and  C_5
REMARK    4  A    between atoms: C_9  and  N_10
REMARK    5  A    between atoms: C_11  and  C_13
REMARK    6  A    between atoms: C_17  and  N_18
REMARK                            x       y       z     vdW  Elec       q    Type
REMARK                         _______ _______ _______ _____ _____    ______ ____
ROOT
ATOM      1  N   UNL     1       2.734   7.203  18.173  0.00  0.00    +0.000 N 
ATOM      2  C   UNL     1       2.200   7.357  19.454  0.00  0.00    +0.000 C 
ATOM      3  O   UNL     1       2.437   6.530  20.337  0.00  0.00    +0.000 OA
ATOM      4  H   UNL     1       2.749   8.004  17.561  0.00  0.00    +0.000 HD
ENDROOT
BRANCH   2   5
ATOM      5  C   UNL     1       1.380   8.492  19.862  0.00  0.00    +0.000 A 
ATOM      6  C   UNL     1       0.955   8.639  21.174  0.00  0.00    +0.000 A 
ATOM      7  C   UNL     1       0.195   9.802  21.267  0.00  0.00    +0.000 A 
ATOM      8  C   UNL     1      -0.459  10.420  22.344  0.00  0.00    +0.000 A 
ATOM      9  C   UNL     1      -1.181  11.587  22.095  0.00  0.00    +0.000 A 
ATOM     10  C   UNL     1      -1.245  12.127  20.803  0.00  0.00    +0.000 A 
ATOM     11  C   UNL     1      -0.566  11.511  19.715  0.00  0.00    +0.000 A 
ATOM     12  C   UNL     1       0.147  10.340  19.984  0.00  0.00    +0.000 A 
ATOM     13  O   UNL     1       0.886   9.538  19.110  0.00  0.00    +0.000 OA
BRANCH   9  14
ATOM     14  N   UNL     1      -1.879  12.224  23.230  0.00  0.00    +0.000 N 
ATOM     15  O   UNL     1      -1.347  13.207  23.758  0.00  0.00    +0.000 OA
ATOM     16  O   UNL     1      -2.956  11.728  23.583  0.00  0.00    +0.000 OA
ENDBRANCH   9  14
ENDBRANCH   2   5
BRANCH   1  21
ATOM     17  C   UNL     1       5.559   4.849  17.319  0.00  0.00    +0.000 A 
ATOM     18  C   UNL     1       4.879   3.629  17.208  0.00  0.00    +0.000 A 
ATOM     19  C   UNL     1       3.504   3.596  17.348  0.00  0.00    +0.000 A 
ATOM     20  C   UNL     1       2.814   4.777  17.615  0.00  0.00    +0.000 A 
ATOM     21  C   UNL     1       3.461   6.014  17.800  0.00  0.00    +0.000 A 
ATOM     22  C   UNL     1       4.852   6.044  17.612  0.00  0.00    +0.000 A 
BRANCH  17  23
ATOM     23  C   UNL     1       7.033   4.781  17.102  0.00  0.00    +0.000 C 
ATOM     24  O   UNL     1       7.568   4.955  16.021  0.00  0.00    +0.000 OA
BRANCH  23  26
ATOM     25  C   UNL     1       7.903   5.654  19.078  0.00  0.00    +0.000 C 
ATOM     26  O   UNL     1       7.678   4.500  18.267  0.00  0.00    +0.000 OA
ENDBRANCH  23  26
ENDBRANCH  17  23
ENDBRANCH   1  21
TORSDOF 5
ENDMDL
MODEL 7
REMARK VINA RESULT:      -7.4      6.191      9.222
REMARK  Name = 
REMARK  6 active torsions:
REMARK  status: ('A' for Active; 'I' for Inactive)
REMARK    1  A    between atoms: C_1  and  O_2
REMARK    2  A    between atoms: O_2  and  C_3
REMARK    3  A    between atoms: C_3  and  C_5
REMARK    4  A    between atoms: C_9  and  N_10
REMARK    5  A    between atoms: C_11  and  C_13
REMARK    6  A    between atoms: C_17  and  N_18
REMARK                            x       y       z     vdW  Elec       q    Type
REMARK                         _______ _______ _______ _____ _____    ______ ____
ROOT
ATOM      1  N   UNL     1       0.636   9.185  19.430  0.00  0.00    +0.000 N 
ATOM      2  C   UNL     1       1.603   9.040  18.434  0.00  0.00    +0.000 C 
ATOM      3  O   UNL     1       1.717   9.883  17.541  0.00  0.00    +0.000 OA
ATOM      4  H   UNL     1       0.733   8.644  20.275  0.00  0.00    +0.000 HD
ENDROOT
BRANCH   2   5
ATOM      5  C   UNL     1       2.561   7.941  18.385  0.00  0.00    +0.000 A 
ATOM      6  C   UNL     1       3.480   7.833  17.353  0.00  0.00    +0.000 A 
ATOM      7  C   UNL     1       4.256   6.697  17.567  0.00  0.00    +0.000 A 
ATOM      8  C   UNL     1       5.319   6.129  16.849  0.00  0.00    +0.000 A 
ATOM      9  C   UNL     1       5.874   4.939  17.321  0.00  0.00    +0.000 A 
ATOM     10  C   UNL     1       5.383   4.334  18.486  0.00  0.00    +0.000 A 
ATOM     11  C   UNL     1       4.318   4.919  19.225  0.00  0.00    +0.000 A 
ATOM     12  C   UNL     1       3.773   6.108  18.733  0.00  0.00    +0.000 A 
ATOM     13  O   UNL     1       2.727   6.879  19.250  0.00  0.00    +0.000 OA
BRANCH   9  14
ATOM     14  N   UNL     1       6.983   4.340  16.551  0.00  0.00    +0.000 N 
ATOM     15  O   UNL     1       6.759   4.002  15.384  0.00  0.00    +0.000 OA
ATOM     16  O   UNL     1       8.071   4.215  17.128  0.00  0.00    +0.000 OA
ENDBRANCH   9  14
ENDBRANCH   2   5
BRANCH   1  21
ATOM     17  C   UNL     1      -2.381  11.231  18.442  0.00  0.00    +0.000 A 
ATOM     18  C   UNL     1      -2.341  12.259  19.392  0.00  0.00    +0.000 A 
ATOM     19  C   UNL     1      -1.300  12.313  20.301  0.00  0.00    +0.000 A 
ATOM     20  C   UNL     1      -0.312  11.331  20.269  0.00  0.00    +0.000 A 
ATOM     21  C   UNL     1      -0.346  10.243  19.376  0.00  0.00    +0.000 A 
ATOM     22  C   UNL     1      -1.382  10.222  18.430  0.00  0.00    +0.000 A 
BRANCH  17  23
ATOM     23  C   UNL     1      -3.517  11.294  17.479  0.00  0.00    +0.000 C 
ATOM     24  O   UNL     1      -3.387  11.212  16.270  0.00  0.00    +0.000 OA
BRANCH  23  26
ATOM     25  C   UNL     1      -5.660  12.203  17.394  0.00  0.00    +0.000 C 
ATOM     26  O   UNL     1      -4.697  11.454  18.138  0.00  0.00    +0.000 OA
ENDBRANCH  23  26
ENDBRANCH  17  23
ENDBRANCH   1  21
TORSDOF 5
ENDMDL
MODEL 8
REMARK VINA RESULT:      -7.4      6.068      8.419
REMARK  Name = 
REMARK  6 active torsions:
REMARK  status: ('A' for Active; 'I' for Inactive)
REMARK    1  A    between atoms: C_1  and  O_2
REMARK    2  A    between atoms: O_2  and  C_3
REMARK    3  A    between atoms: C_3  and  C_5
REMARK    4  A    between atoms: C_9  and  N_10
REMARK    5  A    between atoms: C_11  and  C_13
REMARK    6  A    between atoms: C_17  and  N_18
REMARK                            x       y       z     vdW  Elec       q    Type
REMARK                         _______ _______ _______ _____ _____    ______ ____
ROOT
ATOM      1  N   UNL     1       2.284   6.998  18.786  0.00  0.00    +0.000 N 
ATOM      2  C   UNL     1       2.034   8.263  18.253  0.00  0.00    +0.000 C 
ATOM      3  O   UNL     1       2.498   8.586  17.157  0.00  0.00    +0.000 OA
ATOM      4  H   UNL     1       1.693   6.668  19.533  0.00  0.00    +0.000 HD
ENDROOT
BRANCH   2   5
ATOM      5  C   UNL     1       1.196   9.267  18.899  0.00  0.00    +0.000 A 
ATOM      6  C   UNL     1       1.004   9.269  20.272  0.00  0.00    +0.000 A 
ATOM      7  C   UNL     1       0.165  10.329  20.602  0.00  0.00    +0.000 A 
ATOM      8  C   UNL     1      -0.340  10.790  21.827  0.00  0.00    +0.000 A 
ATOM      9  C   UNL     1      -1.205  11.885  21.815  0.00  0.00    +0.000 A 
ATOM     10  C   UNL     1      -1.554  12.507  20.609  0.00  0.00    +0.000 A 
ATOM     11  C   UNL     1      -1.028  12.053  19.369  0.00  0.00    +0.000 A 
ATOM     12  C   UNL     1      -0.167  10.952  19.401  0.00  0.00    +0.000 A 
ATOM     13  O   UNL     1       0.475  10.304  18.343  0.00  0.00    +0.000 OA
BRANCH   9  14
ATOM     14  N   UNL     1      -1.743  12.354  23.108  0.00  0.00    +0.000 N 
ATOM     15  O   UNL     1      -2.757  11.800  23.548  0.00  0.00    +0.000 OA
ATOM     16  O   UNL     1      -1.141  13.278  23.670  0.00  0.00    +0.000 OA
ENDBRANCH   9  14
ENDBRANCH   2   5
BRANCH   1  21
ATOM     17  C   UNL     1       5.437   5.484  17.361  0.00  0.00    +0.000 A 
ATOM     18  C   UNL     1       4.997   4.198  17.022  0.00  0.00    +0.000 A 
ATOM     19  C   UNL     1       3.668   3.858  17.199  0.00  0.00    +0.000 A 
ATOM     20  C   UNL     1       2.787   4.798  17.731  0.00  0.00    +0.000 A 
ATOM     21  C   UNL     1       3.196   6.079  18.147  0.00  0.00    +0.000 A 
ATOM     22  C   UNL     1       4.537   6.428  17.922  0.00  0.00    +0.000 A 
BRANCH  17  23
ATOM     23  C   UNL     1       6.875   5.762  17.084  0.00  0.00    +0.000 C 
ATOM     24  O   UNL     1       7.758   4.927  17.183  0.00  0.00    +0.000 OA
BRANCH  23  26
ATOM     25  C   UNL     1       7.826   7.811  17.651  0.00  0.00    +0.000 C 
ATOM     26  O   UNL     1       7.051   7.060  16.715  0.00  0.00    +0.000 OA
ENDBRANCH  23  26
ENDBRANCH  17  23
ENDBRANCH   1  21
TORSDOF 5
ENDMDL
MODEL 9
REMARK VINA RESULT:      -7.3      6.136      9.163
REMARK  Name = 
REMARK  6 active torsions:
REMARK  status: ('A' for Active; 'I' for Inactive)
REMARK    1  A    between atoms: C_1  and  O_2
REMARK    2  A    between atoms: O_2  and  C_3
REMARK    3  A    between atoms: C_3  and  C_5
REMARK    4  A    between atoms: C_9  and  N_10
REMARK    5  A    between atoms: C_11  and  C_13
REMARK    6  A    between atoms: C_17  and  N_18
REMARK                            x       y       z     vdW  Elec       q    Type
REMARK                         _______ _______ _______ _____ _____    ______ ____
ROOT
ATOM      1  N   UNL     1       1.090   9.627  18.189  0.00  0.00    +0.000 N 
ATOM      2  C   UNL     1       1.536   8.719  19.151  0.00  0.00    +0.000 C 
ATOM      3  O   UNL     1       1.091   8.749  20.299  0.00  0.00    +0.000 OA
ATOM      4  H   UNL     1       1.262   9.419  17.218  0.00  0.00    +0.000 HD
ENDROOT
BRANCH   2   5
ATOM      5  C   UNL     1       2.504   7.660  18.882  0.00  0.00    +0.000 A 
ATOM      6  C   UNL     1       3.238   7.638  17.705  0.00  0.00    +0.000 A 
ATOM      7  C   UNL     1       4.071   6.522  17.723  0.00  0.00    +0.000 A 
ATOM      8  C   UNL     1       5.013   6.031  16.807  0.00  0.00    +0.000 A 
ATOM      9  C   UNL     1       5.673   4.840  17.114  0.00  0.00    +0.000 A 
ATOM     10  C   UNL     1       5.403   4.160  18.309  0.00  0.00    +0.000 A 
ATOM     11  C   UNL     1       4.462   4.667  19.247  0.00  0.00    +0.000 A 
ATOM     12  C   UNL     1       3.808   5.858  18.919  0.00  0.00    +0.000 A 
ATOM     13  O   UNL     1       2.843   6.562  19.645  0.00  0.00    +0.000 OA
BRANCH   9  14
ATOM     14  N   UNL     1       6.652   4.323  16.137  0.00  0.00    +0.000 N 
ATOM     15  O   UNL     1       7.853   4.421  16.414  0.00  0.00    +0.000 OA
ATOM     16  O   UNL     1       6.205   3.820  15.098  0.00  0.00    +0.000 OA
ENDBRANCH   9  14
ENDBRANCH   2   5
BRANCH   1  21
ATOM     17  C   UNL     1      -2.049  11.638  18.791  0.00  0.00    +0.000 A 
ATOM     18  C   UNL     1      -1.524  12.806  19.358  0.00  0.00    +0.000 A 
ATOM     19  C   UNL     1      -0.155  12.955  19.480  0.00  0.00    +0.000 A 
ATOM     20  C   UNL     1       0.685  11.929  19.050  0.00  0.00    +0.000 A 
ATOM     21  C   UNL     1       0.202  10.711  18.534  0.00  0.00    +0.000 A 
ATOM     22  C   UNL     1      -1.187  10.589  18.375  0.00  0.00    +0.000 A 
BRANCH  17  23
ATOM     23  C   UNL     1      -3.534  11.601  18.661  0.00  0.00    +0.000 C 
ATOM     24  O   UNL     1      -4.290  12.290  19.324  0.00  0.00    +0.000 OA
BRANCH  23  26
ATOM     25  C   UNL     1      -4.240  11.306  16.461  0.00  0.00    +0.000 C 
ATOM     26  O   UNL     1      -3.911  10.701  17.713  0.00  0.00    +0.000 OA
ENDBRANCH  23  26
ENDBRANCH  17  23
ENDBRANCH   1  21
TORSDOF 5
ENDMDL
