MODEL 1
REMARK VINA RESULT:      -8.9      0.000      0.000
REMARK  Name = 
REMARK  4 active torsions:
REMARK  status: ('A' for Active; 'I' for Inactive)
REMARK    1  A    between atoms: C_1  and  C_2
REMARK    2  A    between atoms: C_2  and  C_3
REMARK    3  A    between atoms: C_3  and  N_4
REMARK    4  A    between atoms: C_11  and  C_12
REMARK                            x       y       z     vdW  Elec       q    Type
REMARK                         _______ _______ _______ _____ _____    ______ ____
ROOT
ATOM      1  N   UNL     1       6.830   5.746  15.242  0.00  0.00    +0.000 N 
ATOM      2  C   UNL     1       5.886   5.423  16.155  0.00  0.00    +0.000 A 
ATOM      3  N   UNL     1       5.726   4.267  16.750  0.00  0.00    +0.000 NA
ATOM      4  C   UNL     1       4.721   4.366  17.697  0.00  0.00    +0.000 A 
ATOM      5  N   UNL     1       4.399   3.304  18.466  0.00  0.00    +0.000 NA
ATOM      6  C   UNL     1       3.422   3.488  19.374  0.00  0.00    +0.000 A 
ATOM      7  C   UNL     1       2.746   4.707  19.583  0.00  0.00    +0.000 A 
ATOM      8  C   UNL     1       3.058   5.834  18.767  0.00  0.00    +0.000 A 
ATOM      9  C   UNL     1       4.084   5.604  17.809  0.00  0.00    +0.000 A 
ATOM     10  S   UNL     1       4.767   6.635  16.602  0.00  0.00    +0.000 S 
ATOM     11  C   UNL     1       1.652   4.771  20.633  0.00  0.00    +0.000 C 
ATOM     12  C   UNL     1       1.669   3.648  21.664  0.00  0.00    +0.000 C 
ATOM     13  C   UNL     1       1.810   2.311  20.958  0.00  0.00    +0.000 C 
ATOM     14  C   UNL     1       3.144   2.268  20.227  0.00  0.00    +0.000 C 
ATOM     15  H   UNL     1       6.712   6.668  14.835  0.00  0.00    +0.000 HD
ENDROOT
BRANCH   8  16
ATOM     16  C   UNL     1       2.404   7.173  18.868  0.00  0.00    +0.000 A 
ATOM     17  C   UNL     1       2.174   7.980  17.733  0.00  0.00    +0.000 A 
ATOM     18  C   UNL     1       1.503   9.206  17.813  0.00  0.00    +0.000 A 
ATOM     19  C   UNL     1       1.120   9.708  19.048  0.00  0.00    +0.000 A 
ATOM     20  C   UNL     1       1.368   8.964  20.193  0.00  0.00    +0.000 A 
ATOM     21  C   UNL     1       1.961   7.700  20.093  0.00  0.00    +0.000 A 
ENDBRANCH   8  16
BRANCH   1  22
ATOM     22  C   UNL     1       7.246   4.741  14.278  0.00  0.00    +0.000 C 
BRANCH  22  24
ATOM     23  C   UNL     1       6.288   3.486  12.307  0.00  0.00    +0.000 C 
ATOM     24  C   UNL     1       5.994   4.119  13.654  0.00  0.00    +0.000 C 
ENDBRANCH  22  24
ENDBRANCH   1  22
TORSDOF 3
ENDMDL
MODEL 2
REMARK VINA RESULT:      -8.8      0.094      1.001
REMARK  Name = 
REMARK  4 active torsions:
REMARK  status: ('A' for Active; 'I' for Inactive)
REMARK    1  A    between atoms: C_1  and  C_2
REMARK    2  A    between atoms: C_2  and  C_3
REMARK    3  A    between atoms: C_3  and  N_4
REMARK    4  A    between atoms: C_11  and  C_12
REMARK                            x       y       z     vdW  Elec       q    Type
REMARK                         _______ _______ _______ _____ _____    ______ ____
ROOT
ATOM      1  N   UNL     1       6.942   5.760  15.317  0.00  0.00    +0.000 N 
ATOM      2  C   UNL     1       5.983   5.433  16.212  0.00  0.00    +0.000 A 
ATOM      3  N   UNL     1       5.819   4.277  16.806  0.00  0.00    +0.000 NA
ATOM      4  C   UNL     1       4.795   4.370  17.732  0.00  0.00    +0.000 A 
ATOM      5  N   UNL     1       4.465   3.307  18.497  0.00  0.00    +0.000 NA
ATOM      6  C   UNL     1       3.469   3.487  19.385  0.00  0.00    +0.000 A 
ATOM      7  C   UNL     1       2.781   4.701  19.578  0.00  0.00    +0.000 A 
ATOM      8  C   UNL     1       3.101   5.828  18.767  0.00  0.00    +0.000 A 
ATOM      9  C   UNL     1       4.147   5.604  17.830  0.00  0.00    +0.000 A 
ATOM     10  S   UNL     1       4.847   6.637  16.635  0.00  0.00    +0.000 S 
ATOM     11  C   UNL     1       1.666   4.759  20.606  0.00  0.00    +0.000 C 
ATOM     12  C   UNL     1       1.670   3.638  21.640  0.00  0.00    +0.000 C 
ATOM     13  C   UNL     1       1.834   2.301  20.939  0.00  0.00    +0.000 C 
ATOM     14  C   UNL     1       3.182   2.266  20.235  0.00  0.00    +0.000 C 
ATOM     15  H   UNL     1       6.826   6.682  14.907  0.00  0.00    +0.000 HD
ENDROOT
BRANCH   8  16
ATOM     16  C   UNL     1       2.436   7.164  18.852  0.00  0.00    +0.000 A 
ATOM     17  C   UNL     1       1.951   7.680  20.072  0.00  0.00    +0.000 A 
ATOM     18  C   UNL     1       1.386   8.958  20.169  0.00  0.00    +0.000 A 
ATOM     19  C   UNL     1       1.205   9.725  19.028  0.00  0.00    +0.000 A 
ATOM     20  C   UNL     1       1.630   9.233  17.801  0.00  0.00    +0.000 A 
ATOM     21  C   UNL     1       2.272   7.991  17.728  0.00  0.00    +0.000 A 
ENDBRANCH   8  16
BRANCH   1  22
ATOM     22  C   UNL     1       7.384   4.757  14.364  0.00  0.00    +0.000 C 
BRANCH  22  24
ATOM     23  C   UNL     1       6.398   3.584  12.356  0.00  0.00    +0.000 C 
ATOM     24  C   UNL     1       6.149   4.074  13.771  0.00  0.00    +0.000 C 
ENDBRANCH  22  24
ENDBRANCH   1  22
TORSDOF 3
ENDMDL
MODEL 3
REMARK VINA RESULT:      -8.5      2.377      5.892
REMARK  Name = 
REMARK  4 active torsions:
REMARK  status: ('A' for Active; 'I' for Inactive)
REMARK    1  A    between atoms: C_1  and  C_2
REMARK    2  A    between atoms: C_2  and  C_3
REMARK    3  A    between atoms: C_3  and  N_4
REMARK    4  A    between atoms: C_11  and  C_12
REMARK                            x       y       z     vdW  Elec       q    Type
REMARK                         _______ _______ _______ _____ _____    ______ ____
ROOT
ATOM      1  N   UNL     1       1.875  10.028  17.765  0.00  0.00    +0.000 N 
ATOM      2  C   UNL     1       2.224   8.802  18.219  0.00  0.00    +0.000 A 
ATOM      3  N   UNL     1       1.689   8.151  19.222  0.00  0.00    +0.000 NA
ATOM      4  C   UNL     1       2.246   6.886  19.305  0.00  0.00    +0.000 A 
ATOM      5  N   UNL     1       1.825   6.013  20.246  0.00  0.00    +0.000 NA
ATOM      6  C   UNL     1       2.406   4.798  20.248  0.00  0.00    +0.000 A 
ATOM      7  C   UNL     1       3.390   4.383  19.329  0.00  0.00    +0.000 A 
ATOM      8  C   UNL     1       3.862   5.297  18.342  0.00  0.00    +0.000 A 
ATOM      9  C   UNL     1       3.239   6.575  18.373  0.00  0.00    +0.000 A 
ATOM     10  S   UNL     1       3.496   7.991  17.418  0.00  0.00    +0.000 S 
ATOM     11  C   UNL     1       3.972   2.987  19.456  0.00  0.00    +0.000 C 
ATOM     12  C   UNL     1       3.147   2.007  20.283  0.00  0.00    +0.000 C 
ATOM     13  C   UNL     1       2.744   2.661  21.593  0.00  0.00    +0.000 C 
ATOM     14  C   UNL     1       1.855   3.861  21.302  0.00  0.00    +0.000 C 
ATOM     15  H   UNL     1       2.485  10.387  17.038  0.00  0.00    +0.000 HD
ENDROOT
BRANCH   8  16
ATOM     16  C   UNL     1       4.914   4.993  17.325  0.00  0.00    +0.000 A 
ATOM     17  C   UNL     1       4.591   4.543  16.027  0.00  0.00    +0.000 A 
ATOM     18  C   UNL     1       5.569   4.320  15.050  0.00  0.00    +0.000 A 
ATOM     19  C   UNL     1       6.912   4.454  15.370  0.00  0.00    +0.000 A 
ATOM     20  C   UNL     1       7.271   4.853  16.649  0.00  0.00    +0.000 A 
ATOM     21  C   UNL     1       6.284   5.158  17.593  0.00  0.00    +0.000 A 
ENDBRANCH   8  16
BRANCH   1  22
ATOM     22  C   UNL     1       1.462  11.039  18.722  0.00  0.00    +0.000 C 
BRANCH  22  24
ATOM     23  C   UNL     1      -0.795  10.717  19.810  0.00  0.00    +0.000 C 
ATOM     24  C   UNL     1      -0.050  11.240  18.596  0.00  0.00    +0.000 C 
ENDBRANCH  22  24
ENDBRANCH   1  22
TORSDOF 3
ENDMDL
MODEL 4
REMARK VINA RESULT:      -8.5      2.405      5.919
REMARK  Name = 
REMARK  4 active torsions:
REMARK  status: ('A' for Active; 'I' for Inactive)
REMARK    1  A    between atoms: C_1  and  C_2
REMARK    2  A    between atoms: C_2  and  C_3
REMARK    3  A    between atoms: C_3  and  N_4
REMARK    4  A    between atoms: C_11  and  C_12
REMARK                            x       y       z     vdW  Elec       q    Type
REMARK                         _______ _______ _______ _____ _____    ______ ____
ROOT
ATOM      1  N   UNL     1       1.802  10.060  17.845  0.00  0.00    +0.000 N 
ATOM      2  C   UNL     1       2.169   8.834  18.283  0.00  0.00    +0.000 A 
ATOM      3  N   UNL     1       1.644   8.162  19.278  0.00  0.00    +0.000 NA
ATOM      4  C   UNL     1       2.219   6.905  19.345  0.00  0.00    +0.000 A 
ATOM      5  N   UNL     1       1.811   6.014  20.275  0.00  0.00    +0.000 NA
ATOM      6  C   UNL     1       2.409   4.808  20.262  0.00  0.00    +0.000 A 
ATOM      7  C   UNL     1       3.397   4.417  19.337  0.00  0.00    +0.000 A 
ATOM      8  C   UNL     1       3.856   5.350  18.361  0.00  0.00    +0.000 A 
ATOM      9  C   UNL     1       3.215   6.619  18.408  0.00  0.00    +0.000 A 
ATOM     10  S   UNL     1       3.452   8.050  17.471  0.00  0.00    +0.000 S 
ATOM     11  C   UNL     1       3.999   3.029  19.446  0.00  0.00    +0.000 C 
ATOM     12  C   UNL     1       3.188   2.027  20.262  0.00  0.00    +0.000 C 
ATOM     13  C   UNL     1       2.778   2.659  21.580  0.00  0.00    +0.000 C 
ATOM     14  C   UNL     1       1.872   3.850  21.304  0.00  0.00    +0.000 C 
ATOM     15  H   UNL     1       2.407  10.436  17.122  0.00  0.00    +0.000 HD
ENDROOT
BRANCH   8  16
ATOM     16  C   UNL     1       4.911   5.074  17.339  0.00  0.00    +0.000 A 
ATOM     17  C   UNL     1       6.281   5.277  17.607  0.00  0.00    +0.000 A 
ATOM     18  C   UNL     1       7.278   4.958  16.677  0.00  0.00    +0.000 A 
ATOM     19  C   UNL     1       6.928   4.510  15.412  0.00  0.00    +0.000 A 
ATOM     20  C   UNL     1       5.588   4.338  15.095  0.00  0.00    +0.000 A 
ATOM     21  C   UNL     1       4.603   4.576  16.061  0.00  0.00    +0.000 A 
ENDBRANCH   8  16
BRANCH   1  22
ATOM     22  C   UNL     1       1.377  11.053  18.815  0.00  0.00    +0.000 C 
BRANCH  22  24
ATOM     23  C   UNL     1      -1.063  10.441  19.051  0.00  0.00    +0.000 C 
ATOM     24  C   UNL     1      -0.069  11.449  18.503  0.00  0.00    +0.000 C 
ENDBRANCH  22  24
ENDBRANCH   1  22
TORSDOF 3
ENDMDL
MODEL 5
REMARK VINA RESULT:      -8.4      2.811      6.538
REMARK  Name = 
REMARK  4 active torsions:
REMARK  status: ('A' for Active; 'I' for Inactive)
REMARK    1  A    between atoms: C_1  and  C_2
REMARK    2  A    between atoms: C_2  and  C_3
REMARK    3  A    between atoms: C_3  and  N_4
REMARK    4  A    between atoms: C_11  and  C_12
REMARK                            x       y       z     vdW  Elec       q    Type
REMARK                         _______ _______ _______ _____ _____    ______ ____
ROOT
ATOM      1  N   UNL     1       0.904  10.423  19.686  0.00  0.00    +0.000 N 
ATOM      2  C   UNL     1       1.525   9.366  19.115  0.00  0.00    +0.000 A 
ATOM      3  N   UNL     1       2.364   9.392  18.110  0.00  0.00    +0.000 NA
ATOM      4  C   UNL     1       2.866   8.121  17.888  0.00  0.00    +0.000 A 
ATOM      5  N   UNL     1       3.781   7.906  16.919  0.00  0.00    +0.000 NA
ATOM      6  C   UNL     1       4.230   6.644  16.780  0.00  0.00    +0.000 A 
ATOM      7  C   UNL     1       3.829   5.560  17.586  0.00  0.00    +0.000 A 
ATOM      8  C   UNL     1       2.848   5.764  18.601  0.00  0.00    +0.000 A 
ATOM      9  C   UNL     1       2.384   7.103  18.715  0.00  0.00    +0.000 A 
ATOM     10  S   UNL     1       1.199   7.814  19.753  0.00  0.00    +0.000 S 
ATOM     11  C   UNL     1       4.405   4.184  17.310  0.00  0.00    +0.000 C 
ATOM     12  C   UNL     1       5.682   4.165  16.476  0.00  0.00    +0.000 C 
ATOM     13  C   UNL     1       5.505   5.050  15.255  0.00  0.00    +0.000 C 
ATOM     14  C   UNL     1       5.284   6.486  15.704  0.00  0.00    +0.000 C 
ATOM     15  H   UNL     1       0.218  10.167  20.390  0.00  0.00    +0.000 HD
ENDROOT
BRANCH   8  16
ATOM     16  C   UNL     1       2.319   4.701  19.509  0.00  0.00    +0.000 A 
ATOM     17  C   UNL     1       2.801   4.533  20.823  0.00  0.00    +0.000 A 
ATOM     18  C   UNL     1       2.263   3.582  21.700  0.00  0.00    +0.000 A 
ATOM     19  C   UNL     1       1.285   2.705  21.256  0.00  0.00    +0.000 A 
ATOM     20  C   UNL     1       0.815   2.810  19.954  0.00  0.00    +0.000 A 
ATOM     21  C   UNL     1       1.296   3.821  19.114  0.00  0.00    +0.000 A 
ENDBRANCH   8  16
BRANCH   1  22
ATOM     22  C   UNL     1       0.481  11.527  18.843  0.00  0.00    +0.000 C 
BRANCH  22  24
ATOM     23  C   UNL     1      -1.595  10.497  17.837  0.00  0.00    +0.000 C 
ATOM     24  C   UNL     1      -1.049  11.542  18.794  0.00  0.00    +0.000 C 
ENDBRANCH  22  24
ENDBRANCH   1  22
TORSDOF 3
ENDMDL
MODEL 6
REMARK VINA RESULT:      -8.3      2.846      6.502
REMARK  Name = 
REMARK  4 active torsions:
REMARK  status: ('A' for Active; 'I' for Inactive)
REMARK    1  A    between atoms: C_1  and  C_2
REMARK    2  A    between atoms: C_2  and  C_3
REMARK    3  A    between atoms: C_3  and  N_4
REMARK    4  A    between atoms: C_11  and  C_12
REMARK                            x       y       z     vdW  Elec       q    Type
REMARK                         _______ _______ _______ _____ _____    ______ ____
ROOT
ATOM      1  N   UNL     1       1.003  10.443  19.669  0.00  0.00    +0.000 N 
ATOM      2  C   UNL     1       1.603   9.376  19.095  0.00  0.00    +0.000 A 
ATOM      3  N   UNL     1       2.441   9.389  18.089  0.00  0.00    +0.000 NA
ATOM      4  C   UNL     1       2.919   8.109  17.863  0.00  0.00    +0.000 A 
ATOM      5  N   UNL     1       3.829   7.879  16.892  0.00  0.00    +0.000 NA
ATOM      6  C   UNL     1       4.255   6.610  16.750  0.00  0.00    +0.000 A 
ATOM      7  C   UNL     1       3.835   5.532  17.555  0.00  0.00    +0.000 A 
ATOM      8  C   UNL     1       2.860   5.751  18.572  0.00  0.00    +0.000 A 
ATOM      9  C   UNL     1       2.420   7.099  18.689  0.00  0.00    +0.000 A 
ATOM     10  S   UNL     1       1.250   7.829  19.730  0.00  0.00    +0.000 S 
ATOM     11  C   UNL     1       4.385   4.146  17.274  0.00  0.00    +0.000 C 
ATOM     12  C   UNL     1       5.661   4.106  16.438  0.00  0.00    +0.000 C 
ATOM     13  C   UNL     1       5.497   4.996  15.219  0.00  0.00    +0.000 C 
ATOM     14  C   UNL     1       5.303   6.436  15.671  0.00  0.00    +0.000 C 
ATOM     15  H   UNL     1       0.313  10.198  20.373  0.00  0.00    +0.000 HD
ENDROOT
BRANCH   8  16
ATOM     16  C   UNL     1       2.313   4.696  19.477  0.00  0.00    +0.000 A 
ATOM     17  C   UNL     1       2.769   4.539  20.803  0.00  0.00    +0.000 A 
ATOM     18  C   UNL     1       2.215   3.596  21.677  0.00  0.00    +0.000 A 
ATOM     19  C   UNL     1       1.245   2.716  21.221  0.00  0.00    +0.000 A 
ATOM     20  C   UNL     1       0.800   2.810  19.910  0.00  0.00    +0.000 A 
ATOM     21  C   UNL     1       1.298   3.813  19.070  0.00  0.00    +0.000 A 
ENDBRANCH   8  16
BRANCH   1  22
ATOM     22  C   UNL     1       0.598  11.556  18.829  0.00  0.00    +0.000 C 
BRANCH  22  24
ATOM     23  C   UNL     1       2.505  13.081  18.182  0.00  0.00    +0.000 C 
ATOM     24  C   UNL     1       1.431  12.782  19.212  0.00  0.00    +0.000 C 
ENDBRANCH  22  24
ENDBRANCH   1  22
TORSDOF 3
ENDMDL
MODEL 7
REMARK VINA RESULT:      -8.3      2.874      6.657
REMARK  Name = 
REMARK  4 active torsions:
REMARK  status: ('A' for Active; 'I' for Inactive)
REMARK    1  A    between atoms: C_1  and  C_2
REMARK    2  A    between atoms: C_2  and  C_3
REMARK    3  A    between atoms: C_3  and  N_4
REMARK    4  A    between atoms: C_11  and  C_12
REMARK                            x       y       z     vdW  Elec       q    Type
REMARK                         _______ _______ _______ _____ _____    ______ ____
ROOT
ATOM      1  N   UNL     1       0.883  10.478  19.720  0.00  0.00    +0.000 N 
ATOM      2  C   UNL     1       1.500   9.420  19.147  0.00  0.00    +0.000 A 
ATOM      3  N   UNL     1       2.342   9.446  18.144  0.00  0.00    +0.000 NA
ATOM      4  C   UNL     1       2.838   8.173  17.919  0.00  0.00    +0.000 A 
ATOM      5  N   UNL     1       3.755   7.957  16.951  0.00  0.00    +0.000 NA
ATOM      6  C   UNL     1       4.198   6.693  16.809  0.00  0.00    +0.000 A 
ATOM      7  C   UNL     1       3.790   5.609  17.611  0.00  0.00    +0.000 A 
ATOM      8  C   UNL     1       2.808   5.814  18.624  0.00  0.00    +0.000 A 
ATOM      9  C   UNL     1       2.350   7.155  18.741  0.00  0.00    +0.000 A 
ATOM     10  S   UNL     1       1.166   7.868  19.778  0.00  0.00    +0.000 S 
ATOM     11  C   UNL     1       4.361   4.231  17.331  0.00  0.00    +0.000 C 
ATOM     12  C   UNL     1       5.640   4.209  16.500  0.00  0.00    +0.000 C 
ATOM     13  C   UNL     1       5.469   5.099  15.281  0.00  0.00    +0.000 C 
ATOM     14  C   UNL     1       5.254   6.535  15.734  0.00  0.00    +0.000 C 
ATOM     15  H   UNL     1       0.194  10.223  20.421  0.00  0.00    +0.000 HD
ENDROOT
BRANCH   8  16
ATOM     16  C   UNL     1       2.272   4.750  19.526  0.00  0.00    +0.000 A 
ATOM     17  C   UNL     1       1.277   3.844  19.104  0.00  0.00    +0.000 A 
ATOM     18  C   UNL     1       0.818   2.804  19.922  0.00  0.00    +0.000 A 
ATOM     19  C   UNL     1       1.277   2.695  21.227  0.00  0.00    +0.000 A 
ATOM     20  C   UNL     1       2.224   3.595  21.694  0.00  0.00    +0.000 A 
ATOM     21  C   UNL     1       2.741   4.577  20.840  0.00  0.00    +0.000 A 
ENDBRANCH   8  16
BRANCH   1  22
ATOM     22  C   UNL     1       0.467  11.587  18.880  0.00  0.00    +0.000 C 
BRANCH  22  24
ATOM     23  C   UNL     1      -1.912  12.076  19.575  0.00  0.00    +0.000 C 
ATOM     24  C   UNL     1      -1.017  11.412  18.545  0.00  0.00    +0.000 C 
ENDBRANCH  22  24
ENDBRANCH   1  22
TORSDOF 3
ENDMDL
MODEL 8
REMARK VINA RESULT:      -8.3      2.892      6.498
REMARK  Name = 
REMARK  4 active torsions:
REMARK  status: ('A' for Active; 'I' for Inactive)
REMARK    1  A    between atoms: C_1  and  C_2
REMARK    2  A    between atoms: C_2  and  C_3
REMARK    3  A    between atoms: C_3  and  N_4
REMARK    4  A    between atoms: C_11  and  C_12
REMARK                            x       y       z     vdW  Elec       q    Type
REMARK                         _______ _______ _______ _____ _____    ______ ____
ROOT
ATOM      1  N   UNL     1       0.899  10.498  19.781  0.00  0.00    +0.000 N 
ATOM      2  C   UNL     1       1.516   9.442  19.204  0.00  0.00    +0.000 A 
ATOM      3  N   UNL     1       2.368   9.472  18.210  0.00  0.00    +0.000 NA
ATOM      4  C   UNL     1       2.860   8.199  17.978  0.00  0.00    +0.000 A 
ATOM      5  N   UNL     1       3.786   7.987  17.019  0.00  0.00    +0.000 NA
ATOM      6  C   UNL     1       4.223   6.722  16.869  0.00  0.00    +0.000 A 
ATOM      7  C   UNL     1       3.801   5.633  17.656  0.00  0.00    +0.000 A 
ATOM      8  C   UNL     1       2.809   5.833  18.661  0.00  0.00    +0.000 A 
ATOM      9  C   UNL     1       2.357   7.176  18.786  0.00  0.00    +0.000 A 
ATOM     10  S   UNL     1       1.166   7.886  19.818  0.00  0.00    +0.000 S 
ATOM     11  C   UNL     1       4.367   4.254  17.369  0.00  0.00    +0.000 C 
ATOM     12  C   UNL     1       5.654   4.233  16.552  0.00  0.00    +0.000 C 
ATOM     13  C   UNL     1       5.501   5.135  15.340  0.00  0.00    +0.000 C 
ATOM     14  C   UNL     1       5.289   6.568  15.804  0.00  0.00    +0.000 C 
ATOM     15  H   UNL     1       0.201  10.240  20.472  0.00  0.00    +0.000 HD
ENDROOT
BRANCH   8  16
ATOM     16  C   UNL     1       2.258   4.764  19.548  0.00  0.00    +0.000 A 
ATOM     17  C   UNL     1       1.219   3.908  19.128  0.00  0.00    +0.000 A 
ATOM     18  C   UNL     1       0.744   2.862  19.929  0.00  0.00    +0.000 A 
ATOM     19  C   UNL     1       1.232   2.699  21.217  0.00  0.00    +0.000 A 
ATOM     20  C   UNL     1       2.224   3.550  21.683  0.00  0.00    +0.000 A 
ATOM     21  C   UNL     1       2.754   4.536  20.843  0.00  0.00    +0.000 A 
ENDBRANCH   8  16
BRANCH   1  22
ATOM     22  C   UNL     1       0.497  11.617  18.947  0.00  0.00    +0.000 C 
BRANCH  22  24
ATOM     23  C   UNL     1       2.339  13.143  18.135  0.00  0.00    +0.000 C 
ATOM     24  C   UNL     1       1.392  12.814  19.275  0.00  0.00    +0.000 C 
ENDBRANCH  22  24
ENDBRANCH   1  22
TORSDOF 3
ENDMDL
MODEL 9
REMARK VINA RESULT:      -8.3      2.560      5.893
REMARK  Name = 
REMARK  4 active torsions:
REMARK  status: ('A' for Active; 'I' for Inactive)
REMARK    1  A    between atoms: C_1  and  C_2
REMARK    2  A    between atoms: C_2  and  C_3
REMARK    3  A    between atoms: C_3  and  N_4
REMARK    4  A    between atoms: C_11  and  C_12
REMARK                            x       y       z     vdW  Elec       q    Type
REMARK                         _______ _______ _______ _____ _____    ______ ____
ROOT
ATOM      1  N   UNL     1       1.898  10.193  17.882  0.00  0.00    +0.000 N 
ATOM      2  C   UNL     1       2.230   8.954  18.310  0.00  0.00    +0.000 A 
ATOM      3  N   UNL     1       1.679   8.284  19.290  0.00  0.00    +0.000 NA
ATOM      4  C   UNL     1       2.222   7.012  19.349  0.00  0.00    +0.000 A 
ATOM      5  N   UNL     1       1.783   6.121  20.263  0.00  0.00    +0.000 NA
ATOM      6  C   UNL     1       2.352   4.901  20.242  0.00  0.00    +0.000 A 
ATOM      7  C   UNL     1       3.342   4.498  19.324  0.00  0.00    +0.000 A 
ATOM      8  C   UNL     1       3.833   5.431  18.364  0.00  0.00    +0.000 A 
ATOM      9  C   UNL     1       3.222   6.714  18.420  0.00  0.00    +0.000 A 
ATOM     10  S   UNL     1       3.504   8.150  17.502  0.00  0.00    +0.000 S 
ATOM     11  C   UNL     1       3.909   3.094  19.423  0.00  0.00    +0.000 C 
ATOM     12  C   UNL     1       3.066   2.102  20.217  0.00  0.00    +0.000 C 
ATOM     13  C   UNL     1       2.655   2.728  21.538  0.00  0.00    +0.000 C 
ATOM     14  C   UNL     1       1.781   3.943  21.267  0.00  0.00    +0.000 C 
ATOM     15  H   UNL     1       2.520  10.564  17.171  0.00  0.00    +0.000 HD
ENDROOT
BRANCH   8  16
ATOM     16  C   UNL     1       4.893   5.142  17.351  0.00  0.00    +0.000 A 
ATOM     17  C   UNL     1       4.609   4.475  16.141  0.00  0.00    +0.000 A 
ATOM     18  C   UNL     1       5.585   4.260  15.160  0.00  0.00    +0.000 A 
ATOM     19  C   UNL     1       6.901   4.626  15.400  0.00  0.00    +0.000 A 
ATOM     20  C   UNL     1       7.229   5.245  16.598  0.00  0.00    +0.000 A 
ATOM     21  C   UNL     1       6.230   5.534  17.535  0.00  0.00    +0.000 A 
ENDBRANCH   8  16
BRANCH   1  22
ATOM     22  C   UNL     1       1.485  11.185  18.859  0.00  0.00    +0.000 C 
BRANCH  22  24
ATOM     23  C   UNL     1       2.670  13.403  19.097  0.00  0.00    +0.000 C 
ATOM     24  C   UNL     1       1.708  12.577  18.263  0.00  0.00    +0.000 C 
ENDBRANCH  22  24
ENDBRANCH   1  22
TORSDOF 3
ENDMDL
