MODEL 1
REMARK VINA RESULT:      -7.5      0.000      0.000
REMARK  Name = 
REMARK  4 active torsions:
REMARK  status: ('A' for Active; 'I' for Inactive)
REMARK    1  A    between atoms: C_4  and  C_5
REMARK    2  A    between atoms: C_8  and  O_9
REMARK    3  A    between atoms: C_16  and  O_17
REMARK    4  A    between atoms: C_19  and  O_20
REMARK                            x       y       z     vdW  Elec       q    Type
REMARK                         _______ _______ _______ _____ _____    ______ ____
ROOT
ATOM      1  O   UNL     1       1.466   9.299  17.153  0.00  0.00    +0.000 OA
ATOM      2  C   UNL     1       1.777   8.712  18.179  0.00  0.00    +0.000 C 
ATOM      3  C   UNL     1       2.761   7.599  18.159  0.00  0.00    +0.000 C 
ATOM      4  C   UNL     1       3.827   7.708  17.351  0.00  0.00    +0.000 C 
ATOM      5  C   UNL     1       2.410   6.517  19.118  0.00  0.00    +0.000 C 
ATOM      6  O   UNL     1       2.354   7.022  20.455  0.00  0.00    +0.000 OA
ATOM      7  C   UNL     1       1.608   8.166  20.596  0.00  0.00    +0.000 A 
ATOM      8  C   UNL     1       1.250   8.474  21.910  0.00  0.00    +0.000 A 
ATOM      9  C   UNL     1       0.506   9.620  22.162  0.00  0.00    +0.000 A 
ATOM     10  C   UNL     1       0.109  10.456  21.125  0.00  0.00    +0.000 A 
ATOM     11  C   UNL     1       0.482  10.157  19.812  0.00  0.00    +0.000 A 
ATOM     12  C   UNL     1       1.248   9.016  19.537  0.00  0.00    +0.000 A 
ENDROOT
BRANCH   4  13
ATOM     13  C   UNL     1       4.916   6.735  17.297  0.00  0.00    +0.000 A 
ATOM     14  C   UNL     1       4.649   5.396  16.994  0.00  0.00    +0.000 A 
ATOM     15  C   UNL     1       5.696   4.472  16.913  0.00  0.00    +0.000 A 
ATOM     16  C   UNL     1       7.002   4.898  17.140  0.00  0.00    +0.000 A 
ATOM     17  C   UNL     1       7.276   6.222  17.459  0.00  0.00    +0.000 A 
ATOM     18  C   UNL     1       6.232   7.143  17.540  0.00  0.00    +0.000 A 
BRANCH  16  19
ATOM     19  O   UNL     1       8.053   4.034  17.051  0.00  0.00    +0.000 OA
ATOM     20  H   UNL     1       8.596   4.121  17.851  0.00  0.00    +0.000 HD
ENDBRANCH  16  19
ENDBRANCH   4  13
BRANCH   9  21
ATOM     21  O   UNL     1       0.145   9.966  23.430  0.00  0.00    +0.000 OA
ATOM     22  H   UNL     1       0.654   9.427  24.061  0.00  0.00    +0.000 HD
ENDBRANCH   9  21
BRANCH  11  23
ATOM     23  O   UNL     1       0.107  11.010  18.813  0.00  0.00    +0.000 OA
ATOM     24  H   UNL     1      -0.780  11.362  18.989  0.00  0.00    +0.000 HD
ENDBRANCH  11  23
TORSDOF 4
ENDMDL
MODEL 2
REMARK VINA RESULT:      -7.5      0.071      1.058
REMARK  Name = 
REMARK  4 active torsions:
REMARK  status: ('A' for Active; 'I' for Inactive)
REMARK    1  A    between atoms: C_4  and  C_5
REMARK    2  A    between atoms: C_8  and  O_9
REMARK    3  A    between atoms: C_16  and  O_17
REMARK    4  A    between atoms: C_19  and  O_20
REMARK                            x       y       z     vdW  Elec       q    Type
REMARK                         _______ _______ _______ _____ _____    ______ ____
ROOT
ATOM      1  O   UNL     1       1.387   9.235  17.142  0.00  0.00    +0.000 OA
ATOM      2  C   UNL     1       1.739   8.667  18.165  0.00  0.00    +0.000 C 
ATOM      3  C   UNL     1       2.753   7.582  18.132  0.00  0.00    +0.000 C 
ATOM      4  C   UNL     1       3.795   7.712  17.297  0.00  0.00    +0.000 C 
ATOM      5  C   UNL     1       2.455   6.501  19.110  0.00  0.00    +0.000 C 
ATOM      6  O   UNL     1       2.418   7.018  20.443  0.00  0.00    +0.000 OA
ATOM      7  C   UNL     1       1.644   8.142  20.591  0.00  0.00    +0.000 A 
ATOM      8  C   UNL     1       1.310   8.454  21.910  0.00  0.00    +0.000 A 
ATOM      9  C   UNL     1       0.541   9.581  22.170  0.00  0.00    +0.000 A 
ATOM     10  C   UNL     1       0.095  10.396  21.134  0.00  0.00    +0.000 A 
ATOM     11  C   UNL     1       0.445  10.093  19.816  0.00  0.00    +0.000 A 
ATOM     12  C   UNL     1       1.235   8.970  19.533  0.00  0.00    +0.000 A 
ENDROOT
BRANCH   4  13
ATOM     13  C   UNL     1       4.909   6.770  17.225  0.00  0.00    +0.000 A 
ATOM     14  C   UNL     1       6.214   7.200  17.482  0.00  0.00    +0.000 A 
ATOM     15  C   UNL     1       7.275   6.290  17.443  0.00  0.00    +0.000 A 
ATOM     16  C   UNL     1       7.020   4.955  17.141  0.00  0.00    +0.000 A 
ATOM     17  C   UNL     1       5.729   4.520  16.866  0.00  0.00    +0.000 A 
ATOM     18  C   UNL     1       4.671   5.428  16.905  0.00  0.00    +0.000 A 
BRANCH  16  19
ATOM     19  O   UNL     1       8.023   4.032  17.112  0.00  0.00    +0.000 OA
ATOM     20  H   UNL     1       7.707   3.215  17.532  0.00  0.00    +0.000 HD
ENDBRANCH  16  19
ENDBRANCH   4  13
BRANCH   9  21
ATOM     21  O   UNL     1       0.202   9.930  23.443  0.00  0.00    +0.000 OA
ATOM     22  H   UNL     1       0.156   9.126  23.989  0.00  0.00    +0.000 HD
ENDBRANCH   9  21
BRANCH  11  23
ATOM     23  O   UNL     1       0.021  10.925  18.818  0.00  0.00    +0.000 OA
ATOM     24  H   UNL     1      -0.914  10.761  18.620  0.00  0.00    +0.000 HD
ENDBRANCH  11  23
TORSDOF 4
ENDMDL
MODEL 3
REMARK VINA RESULT:      -7.4      2.565      6.949
REMARK  Name = 
REMARK  4 active torsions:
REMARK  status: ('A' for Active; 'I' for Inactive)
REMARK    1  A    between atoms: C_4  and  C_5
REMARK    2  A    between atoms: C_8  and  O_9
REMARK    3  A    between atoms: C_16  and  O_17
REMARK    4  A    between atoms: C_19  and  O_20
REMARK                            x       y       z     vdW  Elec       q    Type
REMARK                         _______ _______ _______ _____ _____    ______ ____
ROOT
ATOM      1  O   UNL     1       4.408   7.091  16.950  0.00  0.00    +0.000 OA
ATOM      2  C   UNL     1       3.512   6.729  17.698  0.00  0.00    +0.000 C 
ATOM      3  C   UNL     1       2.618   7.715  18.360  0.00  0.00    +0.000 C 
ATOM      4  C   UNL     1       2.225   8.787  17.655  0.00  0.00    +0.000 C 
ATOM      5  C   UNL     1       2.253   7.307  19.743  0.00  0.00    +0.000 C 
ATOM      6  O   UNL     1       1.578   6.046  19.740  0.00  0.00    +0.000 OA
ATOM      7  C   UNL     1       2.212   5.070  19.011  0.00  0.00    +0.000 A 
ATOM      8  C   UNL     1       1.778   3.768  19.274  0.00  0.00    +0.000 A 
ATOM      9  C   UNL     1       2.346   2.708  18.580  0.00  0.00    +0.000 A 
ATOM     10  C   UNL     1       3.342   2.925  17.634  0.00  0.00    +0.000 A 
ATOM     11  C   UNL     1       3.763   4.228  17.359  0.00  0.00    +0.000 A 
ATOM     12  C   UNL     1       3.192   5.315  18.036  0.00  0.00    +0.000 A 
ENDROOT
BRANCH   4  13
ATOM     13  C   UNL     1       1.279   9.787  18.147  0.00  0.00    +0.000 A 
ATOM     14  C   UNL     1       1.744  10.959  18.750  0.00  0.00    +0.000 A 
ATOM     15  C   UNL     1       0.838  11.929  19.193  0.00  0.00    +0.000 A 
ATOM     16  C   UNL     1      -0.528  11.713  19.031  0.00  0.00    +0.000 A 
ATOM     17  C   UNL     1      -1.001  10.543  18.449  0.00  0.00    +0.000 A 
ATOM     18  C   UNL     1      -0.098   9.576  18.008  0.00  0.00    +0.000 A 
BRANCH  16  19
ATOM     19  O   UNL     1      -1.443  12.640  19.430  0.00  0.00    +0.000 OA
ATOM     20  H   UNL     1      -2.204  12.179  19.821  0.00  0.00    +0.000 HD
ENDBRANCH  16  19
ENDBRANCH   4  13
BRANCH   9  21
ATOM     21  O   UNL     1       1.944   1.423  18.795  0.00  0.00    +0.000 OA
ATOM     22  H   UNL     1       2.697   0.910  19.138  0.00  0.00    +0.000 HD
ENDBRANCH   9  21
BRANCH  11  23
ATOM     23  O   UNL     1       4.722   4.420  16.405  0.00  0.00    +0.000 OA
ATOM     24  H   UNL     1       5.511   3.896  16.613  0.00  0.00    +0.000 HD
ENDBRANCH  11  23
TORSDOF 4
ENDMDL
MODEL 4
REMARK VINA RESULT:      -7.4      2.414      6.963
REMARK  Name = 
REMARK  4 active torsions:
REMARK  status: ('A' for Active; 'I' for Inactive)
REMARK    1  A    between atoms: C_4  and  C_5
REMARK    2  A    between atoms: C_8  and  O_9
REMARK    3  A    between atoms: C_16  and  O_17
REMARK    4  A    between atoms: C_19  and  O_20
REMARK                            x       y       z     vdW  Elec       q    Type
REMARK                         _______ _______ _______ _____ _____    ______ ____
ROOT
ATOM      1  O   UNL     1       4.369   7.315  17.007  0.00  0.00    +0.000 OA
ATOM      2  C   UNL     1       3.509   6.842  17.735  0.00  0.00    +0.000 C 
ATOM      3  C   UNL     1       2.521   7.712  18.424  0.00  0.00    +0.000 C 
ATOM      4  C   UNL     1       2.028   8.765  17.753  0.00  0.00    +0.000 C 
ATOM      5  C   UNL     1       2.191   7.223  19.789  0.00  0.00    +0.000 C 
ATOM      6  O   UNL     1       1.642   5.903  19.737  0.00  0.00    +0.000 OA
ATOM      7  C   UNL     1       2.371   5.019  18.980  0.00  0.00    +0.000 A 
ATOM      8  C   UNL     1       2.065   3.673  19.195  0.00  0.00    +0.000 A 
ATOM      9  C   UNL     1       2.736   2.698  18.469  0.00  0.00    +0.000 A 
ATOM     10  C   UNL     1       3.710   3.044  17.539  0.00  0.00    +0.000 A 
ATOM     11  C   UNL     1       4.004   4.390  17.312  0.00  0.00    +0.000 A 
ATOM     12  C   UNL     1       3.326   5.392  18.021  0.00  0.00    +0.000 A 
ENDROOT
BRANCH   4  13
ATOM     13  C   UNL     1       0.987   9.650  18.272  0.00  0.00    +0.000 A 
ATOM     14  C   UNL     1      -0.334   9.519  17.831  0.00  0.00    +0.000 A 
ATOM     15  C   UNL     1      -1.334  10.347  18.350  0.00  0.00    +0.000 A 
ATOM     16  C   UNL     1      -1.001  11.303  19.305  0.00  0.00    +0.000 A 
ATOM     17  C   UNL     1       0.311  11.455  19.737  0.00  0.00    +0.000 A 
ATOM     18  C   UNL     1       1.308  10.629  19.219  0.00  0.00    +0.000 A 
BRANCH  16  19
ATOM     19  O   UNL     1      -1.949  12.117  19.852  0.00  0.00    +0.000 OA
ATOM     20  H   UNL     1      -2.749  11.593  20.022  0.00  0.00    +0.000 HD
ENDBRANCH  16  19
ENDBRANCH   4  13
BRANCH   9  21
ATOM     21  O   UNL     1       2.460   1.373  18.637  0.00  0.00    +0.000 OA
ATOM     22  H   UNL     1       1.662   1.150  18.128  0.00  0.00    +0.000 HD
ENDBRANCH   9  21
BRANCH  11  23
ATOM     23  O   UNL     1       4.943   4.707  16.372  0.00  0.00    +0.000 OA
ATOM     24  H   UNL     1       4.875   5.645  16.132  0.00  0.00    +0.000 HD
ENDBRANCH  11  23
TORSDOF 4
ENDMDL
MODEL 5
REMARK VINA RESULT:      -7.2      2.615      6.761
REMARK  Name = 
REMARK  4 active torsions:
REMARK  status: ('A' for Active; 'I' for Inactive)
REMARK    1  A    between atoms: C_4  and  C_5
REMARK    2  A    between atoms: C_8  and  O_9
REMARK    3  A    between atoms: C_16  and  O_17
REMARK    4  A    between atoms: C_19  and  O_20
REMARK                            x       y       z     vdW  Elec       q    Type
REMARK                         _______ _______ _______ _____ _____    ______ ____
ROOT
ATOM      1  O   UNL     1       3.796   7.205  17.426  0.00  0.00    +0.000 OA
ATOM      2  C   UNL     1       3.000   7.034  18.337  0.00  0.00    +0.000 C 
ATOM      3  C   UNL     1       2.103   8.128  18.790  0.00  0.00    +0.000 C 
ATOM      4  C   UNL     1       1.570   8.937  17.861  0.00  0.00    +0.000 C 
ATOM      5  C   UNL     1       1.897   8.118  20.263  0.00  0.00    +0.000 C 
ATOM      6  O   UNL     1       1.317   6.880  20.686  0.00  0.00    +0.000 OA
ATOM      7  C   UNL     1       1.949   5.764  20.195  0.00  0.00    +0.000 A 
ATOM      8  C   UNL     1       1.636   4.575  20.857  0.00  0.00    +0.000 A 
ATOM      9  C   UNL     1       2.212   3.386  20.430  0.00  0.00    +0.000 A 
ATOM     10  C   UNL     1       3.099   3.366  19.359  0.00  0.00    +0.000 A 
ATOM     11  C   UNL     1       3.398   4.553  18.686  0.00  0.00    +0.000 A 
ATOM     12  C   UNL     1       2.815   5.762  19.089  0.00  0.00    +0.000 A 
ENDROOT
BRANCH   4  13
ATOM     13  C   UNL     1       0.605   9.994  18.153  0.00  0.00    +0.000 A 
ATOM     14  C   UNL     1      -0.747   9.818  17.843  0.00  0.00    +0.000 A 
ATOM     15  C   UNL     1      -1.675  10.818  18.150  0.00  0.00    +0.000 A 
ATOM     16  C   UNL     1      -1.239  11.990  18.763  0.00  0.00    +0.000 A 
ATOM     17  C   UNL     1       0.105  12.183  19.058  0.00  0.00    +0.000 A 
ATOM     18  C   UNL     1       1.030  11.185  18.751  0.00  0.00    +0.000 A 
BRANCH  16  19
ATOM     19  O   UNL     1      -2.113  12.981  19.097  0.00  0.00    +0.000 OA
ATOM     20  H   UNL     1      -2.854  12.590  19.588  0.00  0.00    +0.000 HD
ENDBRANCH  16  19
ENDBRANCH   4  13
BRANCH   9  21
ATOM     21  O   UNL     1       1.925   2.200  21.038  0.00  0.00    +0.000 OA
ATOM     22  H   UNL     1       1.059   1.886  20.725  0.00  0.00    +0.000 HD
ENDBRANCH   9  21
BRANCH  11  23
ATOM     23  O   UNL     1       4.248   4.505  17.618  0.00  0.00    +0.000 OA
ATOM     24  H   UNL     1       4.744   5.336  17.546  0.00  0.00    +0.000 HD
ENDBRANCH  11  23
TORSDOF 4
ENDMDL
MODEL 6
REMARK VINA RESULT:      -7.2      2.626      6.841
REMARK  Name = 
REMARK  4 active torsions:
REMARK  status: ('A' for Active; 'I' for Inactive)
REMARK    1  A    between atoms: C_4  and  C_5
REMARK    2  A    between atoms: C_8  and  O_9
REMARK    3  A    between atoms: C_16  and  O_17
REMARK    4  A    between atoms: C_19  and  O_20
REMARK                            x       y       z     vdW  Elec       q    Type
REMARK                         _______ _______ _______ _____ _____    ______ ____
ROOT
ATOM      1  O   UNL     1       3.811   7.184  17.404  0.00  0.00    +0.000 OA
ATOM      2  C   UNL     1       3.013   7.009  18.312  0.00  0.00    +0.000 C 
ATOM      3  C   UNL     1       2.138   8.111  18.790  0.00  0.00    +0.000 C 
ATOM      4  C   UNL     1       1.621   8.950  17.879  0.00  0.00    +0.000 C 
ATOM      5  C   UNL     1       1.932   8.072  20.262  0.00  0.00    +0.000 C 
ATOM      6  O   UNL     1       1.328   6.837  20.658  0.00  0.00    +0.000 OA
ATOM      7  C   UNL     1       1.938   5.720  20.143  0.00  0.00    +0.000 A 
ATOM      8  C   UNL     1       1.601   4.523  20.779  0.00  0.00    +0.000 A 
ATOM      9  C   UNL     1       2.153   3.332  20.325  0.00  0.00    +0.000 A 
ATOM     10  C   UNL     1       3.039   3.318  19.253  0.00  0.00    +0.000 A 
ATOM     11  C   UNL     1       3.362   4.514  18.606  0.00  0.00    +0.000 A 
ATOM     12  C   UNL     1       2.803   5.725  19.036  0.00  0.00    +0.000 A 
ENDROOT
BRANCH   4  13
ATOM     13  C   UNL     1       0.677  10.019  18.195  0.00  0.00    +0.000 A 
ATOM     14  C   UNL     1       1.128  11.210  18.773  0.00  0.00    +0.000 A 
ATOM     15  C   UNL     1       0.228  12.244  19.048  0.00  0.00    +0.000 A 
ATOM     16  C   UNL     1      -1.120  12.075  18.743  0.00  0.00    +0.000 A 
ATOM     17  C   UNL     1      -1.582  10.890  18.184  0.00  0.00    +0.000 A 
ATOM     18  C   UNL     1      -0.684   9.858  17.911  0.00  0.00    +0.000 A 
BRANCH  16  19
ATOM     19  O   UNL     1      -2.027  13.065  18.976  0.00  0.00    +0.000 OA
ATOM     20  H   UNL     1      -1.626  13.918  18.738  0.00  0.00    +0.000 HD
ENDBRANCH  16  19
ENDBRANCH   4  13
BRANCH   9  21
ATOM     21  O   UNL     1       1.843   2.139  20.907  0.00  0.00    +0.000 OA
ATOM     22  H   UNL     1       1.064   2.260  21.477  0.00  0.00    +0.000 HD
ENDBRANCH   9  21
BRANCH  11  23
ATOM     23  O   UNL     1       4.210   4.472  17.536  0.00  0.00    +0.000 OA
ATOM     24  H   UNL     1       4.956   5.077  17.676  0.00  0.00    +0.000 HD
ENDBRANCH  11  23
TORSDOF 4
ENDMDL
MODEL 7
REMARK VINA RESULT:      -7.2      2.807      4.266
REMARK  Name = 
REMARK  4 active torsions:
REMARK  status: ('A' for Active; 'I' for Inactive)
REMARK    1  A    between atoms: C_4  and  C_5
REMARK    2  A    between atoms: C_8  and  O_9
REMARK    3  A    between atoms: C_16  and  O_17
REMARK    4  A    between atoms: C_19  and  O_20
REMARK                            x       y       z     vdW  Elec       q    Type
REMARK                         _______ _______ _______ _____ _____    ______ ____
ROOT
ATOM      1  O   UNL     1       1.539   8.996  22.317  0.00  0.00    +0.000 OA
ATOM      2  C   UNL     1       1.311   8.895  21.121  0.00  0.00    +0.000 C 
ATOM      3  C   UNL     1       1.722   7.688  20.359  0.00  0.00    +0.000 C 
ATOM      4  C   UNL     1       1.598   6.490  20.953  0.00  0.00    +0.000 C 
ATOM      5  C   UNL     1       2.180   8.016  18.982  0.00  0.00    +0.000 C 
ATOM      6  O   UNL     1       1.140   8.663  18.242  0.00  0.00    +0.000 OA
ATOM      7  C   UNL     1       0.542   9.706  18.903  0.00  0.00    +0.000 A 
ATOM      8  C   UNL     1      -0.210  10.560  18.092  0.00  0.00    +0.000 A 
ATOM      9  C   UNL     1      -0.867  11.640  18.666  0.00  0.00    +0.000 A 
ATOM     10  C   UNL     1      -0.781  11.885  20.032  0.00  0.00    +0.000 A 
ATOM     11  C   UNL     1      -0.044  11.022  20.846  0.00  0.00    +0.000 A 
ATOM     12  C   UNL     1       0.614   9.915  20.290  0.00  0.00    +0.000 A 
ENDROOT
BRANCH   4  13
ATOM     13  C   UNL     1       1.878   5.217  20.293  0.00  0.00    +0.000 A 
ATOM     14  C   UNL     1       3.148   4.959  19.770  0.00  0.00    +0.000 A 
ATOM     15  C   UNL     1       3.423   3.729  19.165  0.00  0.00    +0.000 A 
ATOM     16  C   UNL     1       2.420   2.767  19.086  0.00  0.00    +0.000 A 
ATOM     17  C   UNL     1       1.148   3.019  19.587  0.00  0.00    +0.000 A 
ATOM     18  C   UNL     1       0.874   4.247  20.190  0.00  0.00    +0.000 A 
BRANCH  16  19
ATOM     19  O   UNL     1       2.651   1.547  18.523  0.00  0.00    +0.000 OA
ATOM     20  H   UNL     1       1.801   1.089  18.412  0.00  0.00    +0.000 HD
ENDBRANCH  16  19
ENDBRANCH   4  13
BRANCH   9  21
ATOM     21  O   UNL     1      -1.623  12.491  17.914  0.00  0.00    +0.000 OA
ATOM     22  H   UNL     1      -1.417  13.406  18.172  0.00  0.00    +0.000 HD
ENDBRANCH   9  21
BRANCH  11  23
ATOM     23  O   UNL     1       0.002  11.265  22.189  0.00  0.00    +0.000 OA
ATOM     24  H   UNL     1       0.538  12.054  22.369  0.00  0.00    +0.000 HD
ENDBRANCH  11  23
TORSDOF 4
ENDMDL
MODEL 8
REMARK VINA RESULT:      -7.2      1.564      7.405
REMARK  Name = 
REMARK  4 active torsions:
REMARK  status: ('A' for Active; 'I' for Inactive)
REMARK    1  A    between atoms: C_4  and  C_5
REMARK    2  A    between atoms: C_8  and  O_9
REMARK    3  A    between atoms: C_16  and  O_17
REMARK    4  A    between atoms: C_19  and  O_20
REMARK                            x       y       z     vdW  Elec       q    Type
REMARK                         _______ _______ _______ _____ _____    ______ ____
ROOT
ATOM      1  O   UNL     1       3.074   4.551  20.229  0.00  0.00    +0.000 OA
ATOM      2  C   UNL     1       3.293   5.466  19.449  0.00  0.00    +0.000 C 
ATOM      3  C   UNL     1       2.441   6.684  19.434  0.00  0.00    +0.000 C 
ATOM      4  C   UNL     1       2.013   7.172  20.609  0.00  0.00    +0.000 C 
ATOM      5  C   UNL     1       2.232   7.211  18.060  0.00  0.00    +0.000 C 
ATOM      6  O   UNL     1       3.481   7.550  17.450  0.00  0.00    +0.000 OA
ATOM      7  C   UNL     1       4.437   6.568  17.540  0.00  0.00    +0.000 A 
ATOM      8  C   UNL     1       5.518   6.722  16.669  0.00  0.00    +0.000 A 
ATOM      9  C   UNL     1       6.547   5.789  16.690  0.00  0.00    +0.000 A 
ATOM     10  C   UNL     1       6.511   4.705  17.560  0.00  0.00    +0.000 A 
ATOM     11  C   UNL     1       5.438   4.561  18.443  0.00  0.00    +0.000 A 
ATOM     12  C   UNL     1       4.397   5.500  18.451  0.00  0.00    +0.000 A 
ENDROOT
BRANCH   4  13
ATOM     13  C   UNL     1       1.247   8.408  20.751  0.00  0.00    +0.000 A 
ATOM     14  C   UNL     1       1.138   9.296  19.676  0.00  0.00    +0.000 A 
ATOM     15  C   UNL     1       0.380  10.464  19.803  0.00  0.00    +0.000 A 
ATOM     16  C   UNL     1      -0.261  10.735  21.009  0.00  0.00    +0.000 A 
ATOM     17  C   UNL     1      -0.144   9.869  22.089  0.00  0.00    +0.000 A 
ATOM     18  C   UNL     1       0.612   8.704  21.962  0.00  0.00    +0.000 A 
BRANCH  16  19
ATOM     19  O   UNL     1      -1.026  11.852  21.169  0.00  0.00    +0.000 OA
ATOM     20  H   UNL     1      -1.187  12.247  20.296  0.00  0.00    +0.000 HD
ENDBRANCH  16  19
ENDBRANCH   4  13
BRANCH   9  21
ATOM     21  O   UNL     1       7.628   5.907  15.867  0.00  0.00    +0.000 OA
ATOM     22  H   UNL     1       7.994   5.022  15.699  0.00  0.00    +0.000 HD
ENDBRANCH   9  21
BRANCH  11  23
ATOM     23  O   UNL     1       5.438   3.505  19.309  0.00  0.00    +0.000 OA
ATOM     24  H   UNL     1       5.107   2.708  18.865  0.00  0.00    +0.000 HD
ENDBRANCH  11  23
TORSDOF 4
ENDMDL
MODEL 9
REMARK VINA RESULT:      -7.2      2.791      4.154
REMARK  Name = 
REMARK  4 active torsions:
REMARK  status: ('A' for Active; 'I' for Inactive)
REMARK    1  A    between atoms: C_4  and  C_5
REMARK    2  A    between atoms: C_8  and  O_9
REMARK    3  A    between atoms: C_16  and  O_17
REMARK    4  A    between atoms: C_19  and  O_20
REMARK                            x       y       z     vdW  Elec       q    Type
REMARK                         _______ _______ _______ _____ _____    ______ ____
ROOT
ATOM      1  O   UNL     1       1.555   8.972  22.321  0.00  0.00    +0.000 OA
ATOM      2  C   UNL     1       1.323   8.876  21.125  0.00  0.00    +0.000 C 
ATOM      3  C   UNL     1       1.723   7.668  20.359  0.00  0.00    +0.000 C 
ATOM      4  C   UNL     1       1.593   6.470  20.951  0.00  0.00    +0.000 C 
ATOM      5  C   UNL     1       2.180   7.996  18.982  0.00  0.00    +0.000 C 
ATOM      6  O   UNL     1       1.143   8.652  18.246  0.00  0.00    +0.000 OA
ATOM      7  C   UNL     1       0.553   9.698  18.912  0.00  0.00    +0.000 A 
ATOM      8  C   UNL     1      -0.195  10.558  18.105  0.00  0.00    +0.000 A 
ATOM      9  C   UNL     1      -0.843  11.642  18.683  0.00  0.00    +0.000 A 
ATOM     10  C   UNL     1      -0.752  11.883  20.049  0.00  0.00    +0.000 A 
ATOM     11  C   UNL     1      -0.018  11.013  20.859  0.00  0.00    +0.000 A 
ATOM     12  C   UNL     1       0.630   9.903  20.299  0.00  0.00    +0.000 A 
ENDROOT
BRANCH   4  13
ATOM     13  C   UNL     1       1.862   5.196  20.287  0.00  0.00    +0.000 A 
ATOM     14  C   UNL     1       0.859   4.226  20.191  0.00  0.00    +0.000 A 
ATOM     15  C   UNL     1       1.109   3.020  19.530  0.00  0.00    +0.000 A 
ATOM     16  C   UNL     1       2.364   2.794  18.972  0.00  0.00    +0.000 A 
ATOM     17  C   UNL     1       3.373   3.743  19.077  0.00  0.00    +0.000 A 
ATOM     18  C   UNL     1       3.124   4.946  19.737  0.00  0.00    +0.000 A 
BRANCH  16  19
ATOM     19  O   UNL     1       2.643   1.640  18.301  0.00  0.00    +0.000 OA
ATOM     20  H   UNL     1       3.246   1.844  17.568  0.00  0.00    +0.000 HD
ENDBRANCH  16  19
ENDBRANCH   4  13
BRANCH   9  21
ATOM     21  O   UNL     1      -1.595  12.500  17.935  0.00  0.00    +0.000 OA
ATOM     22  H   UNL     1      -2.487  12.128  17.830  0.00  0.00    +0.000 HD
ENDBRANCH   9  21
BRANCH  11  23
ATOM     23  O   UNL     1       0.033  11.253  22.202  0.00  0.00    +0.000 OA
ATOM     24  H   UNL     1      -0.754  11.745  22.485  0.00  0.00    +0.000 HD
ENDBRANCH  11  23
TORSDOF 4
ENDMDL
