MODEL 1
REMARK VINA RESULT:      -6.5      0.000      0.000
REMARK  Name = 
REMARK  5 active torsions:
REMARK  status: ('A' for Active; 'I' for Inactive)
REMARK    1  A    between atoms: C_2  and  C_3
REMARK    2  A    between atoms: C_3  and  C_4
REMARK    3  A    between atoms: C_4  and  C_5
REMARK    4  A    between atoms: C_5  and  N_6
REMARK    5  A    between atoms: C_17  and  C_18
REMARK                            x       y       z     vdW  Elec       q    Type
REMARK                         _______ _______ _______ _____ _____    ______ ____
ROOT
ATOM      1  N   UNL     1       1.692  13.384  20.127  0.00  0.00    +0.000 N 
ATOM      2  C   UNL     1       1.653  12.802  18.896  0.00  0.00    +0.000 C 
ATOM      3  O   UNL     1       2.603  12.483  18.197  0.00  0.00    +0.000 OA
ATOM      4  C   UNL     1       0.231  12.514  18.549  0.00  0.00    +0.000 C 
ATOM      5  C   UNL     1      -0.063  11.007  18.740  0.00  0.00    +0.000 C 
ATOM      6  C   UNL     1      -1.485  10.875  18.215  0.00  0.00    +0.000 A 
ATOM      7  C   UNL     1      -1.867  10.019  17.191  0.00  0.00    +0.000 A 
ATOM      8  C   UNL     1      -3.215   9.941  16.861  0.00  0.00    +0.000 A 
ATOM      9  C   UNL     1      -4.160  10.717  17.542  0.00  0.00    +0.000 A 
ATOM     10  C   UNL     1      -3.773  11.593  18.567  0.00  0.00    +0.000 A 
ATOM     11  C   UNL     1      -2.427  11.684  18.913  0.00  0.00    +0.000 A 
ATOM     12  C   UNL     1      -1.798  12.481  20.101  0.00  0.00    +0.000 C 
ATOM     13  C   UNL     1      -1.104  11.413  20.973  0.00  0.00    +0.000 A 
ATOM     14  C   UNL     1      -1.259  11.219  22.342  0.00  0.00    +0.000 A 
ATOM     15  C   UNL     1      -0.408  10.323  22.988  0.00  0.00    +0.000 A 
ATOM     16  C   UNL     1       0.578   9.626  22.276  0.00  0.00    +0.000 A 
ATOM     17  C   UNL     1       0.719   9.790  20.896  0.00  0.00    +0.000 A 
ATOM     18  C   UNL     1      -0.123  10.675  20.242  0.00  0.00    +0.000 A 
ATOM     19  C   UNL     1      -0.604  13.352  19.549  0.00  0.00    +0.000 C 
ATOM     20  C   UNL     1       0.443  13.712  20.603  0.00  0.00    +0.000 C 
ATOM     21  O   UNL     1       0.196  14.194  21.699  0.00  0.00    +0.000 OA
ENDROOT
BRANCH  12  22
ATOM     22  C   UNL     1      -2.814  13.369  20.796  0.00  0.00    +0.000 C 
ATOM     23  O   UNL     1      -2.934  14.569  20.592  0.00  0.00    +0.000 OA
ENDBRANCH  12  22
BRANCH   1  24
ATOM     24  C   UNL     1       2.938  13.502  20.868  0.00  0.00    +0.000 C 
BRANCH  24  25
ATOM     25  C   UNL     1       3.525  14.910  20.791  0.00  0.00    +0.000 C 
BRANCH  25  26
ATOM     26  C   UNL     1       4.533  15.030  19.646  0.00  0.00    +0.000 C 
BRANCH  26  28
ATOM     27  C   UNL     1       3.425  15.835  17.541  0.00  0.00    +0.000 C 
ATOM     28  C   UNL     1       4.111  16.084  18.663  0.00  0.00    +0.000 C 
ENDBRANCH  26  28
ENDBRANCH  25  26
ENDBRANCH  24  25
ENDBRANCH   1  24
TORSDOF 5
ENDMDL
MODEL 2
REMARK VINA RESULT:      -6.5      2.968      5.902
REMARK  Name = 
REMARK  5 active torsions:
REMARK  status: ('A' for Active; 'I' for Inactive)
REMARK    1  A    between atoms: C_2  and  C_3
REMARK    2  A    between atoms: C_3  and  C_4
REMARK    3  A    between atoms: C_4  and  C_5
REMARK    4  A    between atoms: C_5  and  N_6
REMARK    5  A    between atoms: C_17  and  C_18
REMARK                            x       y       z     vdW  Elec       q    Type
REMARK                         _______ _______ _______ _____ _____    ______ ____
ROOT
ATOM      1  N   UNL     1      -1.588  15.563  22.494  0.00  0.00    +0.000 N 
ATOM      2  C   UNL     1      -0.958  14.763  23.399  0.00  0.00    +0.000 C 
ATOM      3  O   UNL     1      -0.787  14.983  24.589  0.00  0.00    +0.000 OA
ATOM      4  C   UNL     1      -0.573  13.490  22.724  0.00  0.00    +0.000 C 
ATOM      5  C   UNL     1      -1.551  12.362  23.130  0.00  0.00    +0.000 C 
ATOM      6  C   UNL     1      -0.936  11.135  22.476  0.00  0.00    +0.000 A 
ATOM      7  C   UNL     1      -0.561   9.986  23.161  0.00  0.00    +0.000 A 
ATOM      8  C   UNL     1      -0.081   8.905  22.429  0.00  0.00    +0.000 A 
ATOM      9  C   UNL     1       0.030   8.984  21.035  0.00  0.00    +0.000 A 
ATOM     10  C   UNL     1      -0.334  10.150  20.345  0.00  0.00    +0.000 A 
ATOM     11  C   UNL     1      -0.819  11.241  21.060  0.00  0.00    +0.000 A 
ATOM     12  C   UNL     1      -1.406  12.572  20.490  0.00  0.00    +0.000 C 
ATOM     13  C   UNL     1      -2.855  12.626  21.017  0.00  0.00    +0.000 A 
ATOM     14  C   UNL     1      -4.012  12.829  20.270  0.00  0.00    +0.000 A 
ATOM     15  C   UNL     1      -5.214  13.030  20.946  0.00  0.00    +0.000 A 
ATOM     16  C   UNL     1      -5.263  13.023  22.347  0.00  0.00    +0.000 A 
ATOM     17  C   UNL     1      -4.112  12.787  23.105  0.00  0.00    +0.000 A 
ATOM     18  C   UNL     1      -2.912  12.582  22.444  0.00  0.00    +0.000 A 
ATOM     19  C   UNL     1      -0.698  13.786  21.209  0.00  0.00    +0.000 C 
ATOM     20  C   UNL     1      -1.519  15.074  21.209  0.00  0.00    +0.000 C 
ATOM     21  O   UNL     1      -2.045  15.570  20.224  0.00  0.00    +0.000 OA
ENDROOT
BRANCH  12  22
ATOM     22  C   UNL     1      -1.226  12.679  18.987  0.00  0.00    +0.000 C 
ATOM     23  O   UNL     1      -0.277  13.230  18.444  0.00  0.00    +0.000 OA
ENDBRANCH  12  22
BRANCH   1  24
ATOM     24  C   UNL     1      -2.347  16.730  22.916  0.00  0.00    +0.000 C 
BRANCH  24  25
ATOM     25  C   UNL     1      -3.837  16.429  23.060  0.00  0.00    +0.000 C 
BRANCH  25  26
ATOM     26  C   UNL     1      -4.232  16.266  24.530  0.00  0.00    +0.000 C 
BRANCH  26  28
ATOM     27  C   UNL     1      -4.923  18.406  25.647  0.00  0.00    +0.000 C 
ATOM     28  C   UNL     1      -5.230  17.310  24.941  0.00  0.00    +0.000 C 
ENDBRANCH  26  28
ENDBRANCH  25  26
ENDBRANCH  24  25
ENDBRANCH   1  24
TORSDOF 5
ENDMDL
MODEL 3
REMARK VINA RESULT:      -6.2      2.836      5.543
REMARK  Name = 
REMARK  5 active torsions:
REMARK  status: ('A' for Active; 'I' for Inactive)
REMARK    1  A    between atoms: C_2  and  C_3
REMARK    2  A    between atoms: C_3  and  C_4
REMARK    3  A    between atoms: C_4  and  C_5
REMARK    4  A    between atoms: C_5  and  N_6
REMARK    5  A    between atoms: C_17  and  C_18
REMARK                            x       y       z     vdW  Elec       q    Type
REMARK                         _______ _______ _______ _____ _____    ______ ____
ROOT
ATOM      1  N   UNL     1       1.015   9.304  19.332  0.00  0.00    +0.000 N 
ATOM      2  C   UNL     1       0.809   9.232  20.676  0.00  0.00    +0.000 C 
ATOM      3  O   UNL     1       1.520   8.684  21.506  0.00  0.00    +0.000 OA
ATOM      4  C   UNL     1      -0.408  10.025  21.015  0.00  0.00    +0.000 C 
ATOM      5  C   UNL     1       0.004  11.381  21.637  0.00  0.00    +0.000 C 
ATOM      6  C   UNL     1      -1.333  11.981  22.043  0.00  0.00    +0.000 A 
ATOM      7  C   UNL     1      -1.656  12.377  23.335  0.00  0.00    +0.000 A 
ATOM      8  C   UNL     1      -2.888  12.984  23.554  0.00  0.00    +0.000 A 
ATOM      9  C   UNL     1      -3.782  13.179  22.494  0.00  0.00    +0.000 A 
ATOM     10  C   UNL     1      -3.463  12.766  21.192  0.00  0.00    +0.000 A 
ATOM     11  C   UNL     1      -2.233  12.159  20.953  0.00  0.00    +0.000 A 
ATOM     12  C   UNL     1      -1.621  11.751  19.574  0.00  0.00    +0.000 C 
ATOM     13  C   UNL     1      -0.314  12.565  19.463  0.00  0.00    +0.000 A 
ATOM     14  C   UNL     1       0.081  13.374  18.402  0.00  0.00    +0.000 A 
ATOM     15  C   UNL     1       1.379  13.883  18.400  0.00  0.00    +0.000 A 
ATOM     16  C   UNL     1       2.266  13.594  19.445  0.00  0.00    +0.000 A 
ATOM     17  C   UNL     1       1.868  12.810  20.531  0.00  0.00    +0.000 A 
ATOM     18  C   UNL     1       0.579  12.301  20.546  0.00  0.00    +0.000 A 
ATOM     19  C   UNL     1      -1.127  10.255  19.663  0.00  0.00    +0.000 C 
ATOM     20  C   UNL     1      -0.028   9.902  18.662  0.00  0.00    +0.000 C 
ATOM     21  O   UNL     1      -0.071  10.137  17.463  0.00  0.00    +0.000 OA
ENDROOT
BRANCH  12  22
ATOM     22  C   UNL     1      -2.616  11.905  18.439  0.00  0.00    +0.000 C 
ATOM     23  O   UNL     1      -3.369  11.020  18.057  0.00  0.00    +0.000 OA
ENDBRANCH  12  22
BRANCH   1  24
ATOM     24  C   UNL     1       2.279   8.896  18.738  0.00  0.00    +0.000 C 
BRANCH  24  25
ATOM     25  C   UNL     1       2.155   7.590  17.956  0.00  0.00    +0.000 C 
BRANCH  25  26
ATOM     26  C   UNL     1       2.586   6.391  18.804  0.00  0.00    +0.000 C 
BRANCH  26  28
ATOM     27  C   UNL     1       1.618   4.322  17.763  0.00  0.00    +0.000 C 
ATOM     28  C   UNL     1       2.656   5.140  17.977  0.00  0.00    +0.000 C 
ENDBRANCH  26  28
ENDBRANCH  25  26
ENDBRANCH  24  25
ENDBRANCH   1  24
TORSDOF 5
ENDMDL
MODEL 4
REMARK VINA RESULT:      -6.1      7.836     10.774
REMARK  Name = 
REMARK  5 active torsions:
REMARK  status: ('A' for Active; 'I' for Inactive)
REMARK    1  A    between atoms: C_2  and  C_3
REMARK    2  A    between atoms: C_3  and  C_4
REMARK    3  A    between atoms: C_4  and  C_5
REMARK    4  A    between atoms: C_5  and  N_6
REMARK    5  A    between atoms: C_17  and  C_18
REMARK                            x       y       z     vdW  Elec       q    Type
REMARK                         _______ _______ _______ _____ _____    ______ ____
ROOT
ATOM      1  N   UNL     1       3.670   3.521  18.396  0.00  0.00    +0.000 N 
ATOM      2  C   UNL     1       4.744   3.667  19.221  0.00  0.00    +0.000 C 
ATOM      3  O   UNL     1       5.240   2.820  19.947  0.00  0.00    +0.000 OA
ATOM      4  C   UNL     1       5.304   5.038  19.035  0.00  0.00    +0.000 C 
ATOM      5  C   UNL     1       6.586   4.970  18.171  0.00  0.00    +0.000 C 
ATOM      6  C   UNL     1       7.088   6.405  18.205  0.00  0.00    +0.000 A 
ATOM      7  C   UNL     1       8.348   6.785  18.648  0.00  0.00    +0.000 A 
ATOM      8  C   UNL     1       8.708   8.125  18.553  0.00  0.00    +0.000 A 
ATOM      9  C   UNL     1       7.811   9.066  18.032  0.00  0.00    +0.000 A 
ATOM     10  C   UNL     1       6.533   8.685  17.599  0.00  0.00    +0.000 A 
ATOM     11  C   UNL     1       6.156   7.347  17.684  0.00  0.00    +0.000 A 
ATOM     12  C   UNL     1       4.849   6.687  17.138  0.00  0.00    +0.000 C 
ATOM     13  C   UNL     1       5.332   5.634  16.118  0.00  0.00    +0.000 A 
ATOM     14  C   UNL     1       4.904   5.486  14.802  0.00  0.00    +0.000 A 
ATOM     15  C   UNL     1       5.320   4.361  14.090  0.00  0.00    +0.000 A 
ATOM     16  C   UNL     1       6.154   3.403  14.681  0.00  0.00    +0.000 A 
ATOM     17  C   UNL     1       6.615   3.560  15.991  0.00  0.00    +0.000 A 
ATOM     18  C   UNL     1       6.212   4.676  16.708  0.00  0.00    +0.000 A 
ATOM     19  C   UNL     1       4.199   5.826  18.290  0.00  0.00    +0.000 C 
ATOM     20  C   UNL     1       3.296   4.699  17.790  0.00  0.00    +0.000 C 
ATOM     21  O   UNL     1       2.402   4.831  16.967  0.00  0.00    +0.000 OA
ENDROOT
BRANCH  12  22
ATOM     22  C   UNL     1       3.855   7.717  16.633  0.00  0.00    +0.000 C 
ATOM     23  O   UNL     1       2.972   8.217  17.317  0.00  0.00    +0.000 OA
ENDBRANCH  12  22
BRANCH   1  24
ATOM     24  C   UNL     1       3.101   2.210  18.121  0.00  0.00    +0.000 C 
BRANCH  24  25
ATOM     25  C   UNL     1       2.123   1.766  19.207  0.00  0.00    +0.000 C 
BRANCH  25  26
ATOM     26  C   UNL     1       0.962   2.753  19.346  0.00  0.00    +0.000 C 
BRANCH  26  28
ATOM     27  C   UNL     1       1.918   3.230  21.618  0.00  0.00    +0.000 C 
ATOM     28  C   UNL     1       1.046   3.508  20.641  0.00  0.00    +0.000 C 
ENDBRANCH  26  28
ENDBRANCH  25  26
ENDBRANCH  24  25
ENDBRANCH   1  24
TORSDOF 5
ENDMDL
MODEL 5
REMARK VINA RESULT:      -6.1      0.601      1.011
REMARK  Name = 
REMARK  5 active torsions:
REMARK  status: ('A' for Active; 'I' for Inactive)
REMARK    1  A    between atoms: C_2  and  C_3
REMARK    2  A    between atoms: C_3  and  C_4
REMARK    3  A    between atoms: C_4  and  C_5
REMARK    4  A    between atoms: C_5  and  N_6
REMARK    5  A    between atoms: C_17  and  C_18
REMARK                            x       y       z     vdW  Elec       q    Type
REMARK                         _______ _______ _______ _____ _____    ______ ____
ROOT
ATOM      1  N   UNL     1       1.624  13.497  20.200  0.00  0.00    +0.000 N 
ATOM      2  C   UNL     1       1.585  12.941  18.957  0.00  0.00    +0.000 C 
ATOM      3  O   UNL     1       2.535  12.652  18.245  0.00  0.00    +0.000 OA
ATOM      4  C   UNL     1       0.165  12.640  18.614  0.00  0.00    +0.000 C 
ATOM      5  C   UNL     1      -0.105  11.125  18.774  0.00  0.00    +0.000 C 
ATOM      6  C   UNL     1      -1.528  10.983  18.256  0.00  0.00    +0.000 A 
ATOM      7  C   UNL     1      -1.904  10.143  17.216  0.00  0.00    +0.000 A 
ATOM      8  C   UNL     1      -3.254  10.051  16.893  0.00  0.00    +0.000 A 
ATOM      9  C   UNL     1      -4.205  10.799  17.598  0.00  0.00    +0.000 A 
ATOM     10  C   UNL     1      -3.824  11.658  18.639  0.00  0.00    +0.000 A 
ATOM     11  C   UNL     1      -2.477  11.762  18.978  0.00  0.00    +0.000 A 
ATOM     12  C   UNL     1      -1.852  12.542  20.178  0.00  0.00    +0.000 C 
ATOM     13  C   UNL     1      -1.136  11.466  21.022  0.00  0.00    +0.000 A 
ATOM     14  C   UNL     1      -1.278  11.241  22.387  0.00  0.00    +0.000 A 
ATOM     15  C   UNL     1      -0.409  10.343  23.008  0.00  0.00    +0.000 A 
ATOM     16  C   UNL     1       0.582   9.678  22.275  0.00  0.00    +0.000 A 
ATOM     17  C   UNL     1       0.711   9.873  20.897  0.00  0.00    +0.000 A 
ATOM     18  C   UNL     1      -0.149  10.759  20.268  0.00  0.00    +0.000 A 
ATOM     19  C   UNL     1      -0.675  13.443  19.637  0.00  0.00    +0.000 C 
ATOM     20  C   UNL     1       0.373  13.796  20.692  0.00  0.00    +0.000 C 
ATOM     21  O   UNL     1       0.127  14.251  21.799  0.00  0.00    +0.000 OA
ENDROOT
BRANCH  12  22
ATOM     22  C   UNL     1      -2.876  13.399  20.899  0.00  0.00    +0.000 C 
ATOM     23  O   UNL     1      -3.067  14.586  20.668  0.00  0.00    +0.000 OA
ENDBRANCH  12  22
BRANCH   1  24
ATOM     24  C   UNL     1       2.874  13.618  20.935  0.00  0.00    +0.000 C 
BRANCH  24  25
ATOM     25  C   UNL     1       3.444  15.033  20.876  0.00  0.00    +0.000 C 
BRANCH  25  26
ATOM     26  C   UNL     1       4.575  15.134  19.850  0.00  0.00    +0.000 C 
BRANCH  26  28
ATOM     27  C   UNL     1       7.044  14.876  20.227  0.00  0.00    +0.000 C 
ATOM     28  C   UNL     1       5.880  15.470  20.514  0.00  0.00    +0.000 C 
ENDBRANCH  26  28
ENDBRANCH  25  26
ENDBRANCH  24  25
ENDBRANCH   1  24
TORSDOF 5
ENDMDL
MODEL 6
REMARK VINA RESULT:      -6.1      2.181      3.224
REMARK  Name = 
REMARK  5 active torsions:
REMARK  status: ('A' for Active; 'I' for Inactive)
REMARK    1  A    between atoms: C_2  and  C_3
REMARK    2  A    between atoms: C_3  and  C_4
REMARK    3  A    between atoms: C_4  and  C_5
REMARK    4  A    between atoms: C_5  and  N_6
REMARK    5  A    between atoms: C_17  and  C_18
REMARK                            x       y       z     vdW  Elec       q    Type
REMARK                         _______ _______ _______ _____ _____    ______ ____
ROOT
ATOM      1  N   UNL     1      -0.233  14.950  21.483  0.00  0.00    +0.000 N 
ATOM      2  C   UNL     1      -0.973  15.029  20.342  0.00  0.00    +0.000 C 
ATOM      3  O   UNL     1      -0.589  15.369  19.233  0.00  0.00    +0.000 OA
ATOM      4  C   UNL     1      -2.351  14.536  20.632  0.00  0.00    +0.000 C 
ATOM      5  C   UNL     1      -2.525  13.103  20.072  0.00  0.00    +0.000 C 
ATOM      6  C   UNL     1      -3.998  12.823  20.326  0.00  0.00    +0.000 A 
ATOM      7  C   UNL     1      -4.912  12.476  19.340  0.00  0.00    +0.000 A 
ATOM      8  C   UNL     1      -6.214  12.170  19.721  0.00  0.00    +0.000 A 
ATOM      9  C   UNL     1      -6.591  12.222  21.068  0.00  0.00    +0.000 A 
ATOM     10  C   UNL     1      -5.672  12.587  22.063  0.00  0.00    +0.000 A 
ATOM     11  C   UNL     1      -4.363  12.895  21.702  0.00  0.00    +0.000 A 
ATOM     12  C   UNL     1      -3.154  13.187  22.647  0.00  0.00    +0.000 C 
ATOM     13  C   UNL     1      -2.117  12.092  22.318  0.00  0.00    +0.000 A 
ATOM     14  C   UNL     1      -1.480  11.245  23.219  0.00  0.00    +0.000 A 
ATOM     15  C   UNL     1      -0.436  10.444  22.755  0.00  0.00    +0.000 A 
ATOM     16  C   UNL     1      -0.040  10.485  21.412  0.00  0.00    +0.000 A 
ATOM     17  C   UNL     1      -0.697  11.309  20.493  0.00  0.00    +0.000 A 
ATOM     18  C   UNL     1      -1.737  12.106  20.941  0.00  0.00    +0.000 A 
ATOM     19  C   UNL     1      -2.456  14.521  22.176  0.00  0.00    +0.000 C 
ATOM     20  C   UNL     1      -0.989  14.635  22.590  0.00  0.00    +0.000 C 
ATOM     21  O   UNL     1      -0.564  14.452  23.721  0.00  0.00    +0.000 OA
ENDROOT
BRANCH  12  22
ATOM     22  C   UNL     1      -3.580  13.305  24.100  0.00  0.00    +0.000 C 
ATOM     23  O   UNL     1      -3.793  14.366  24.671  0.00  0.00    +0.000 OA
ENDBRANCH  12  22
BRANCH   1  24
ATOM     24  C   UNL     1       1.217  15.066  21.453  0.00  0.00    +0.000 C 
BRANCH  24  25
ATOM     25  C   UNL     1       1.899  13.721  21.213  0.00  0.00    +0.000 C 
BRANCH  25  26
ATOM     26  C   UNL     1       2.971  13.828  20.125  0.00  0.00    +0.000 C 
BRANCH  26  28
ATOM     27  C   UNL     1       2.208  12.272  18.308  0.00  0.00    +0.000 C 
ATOM     28  C   UNL     1       2.402  13.513  18.772  0.00  0.00    +0.000 C 
ENDBRANCH  26  28
ENDBRANCH  25  26
ENDBRANCH  24  25
ENDBRANCH   1  24
TORSDOF 5
ENDMDL
MODEL 7
REMARK VINA RESULT:      -6.0      0.817      1.128
REMARK  Name = 
REMARK  5 active torsions:
REMARK  status: ('A' for Active; 'I' for Inactive)
REMARK    1  A    between atoms: C_2  and  C_3
REMARK    2  A    between atoms: C_3  and  C_4
REMARK    3  A    between atoms: C_4  and  C_5
REMARK    4  A    between atoms: C_5  and  N_6
REMARK    5  A    between atoms: C_17  and  C_18
REMARK                            x       y       z     vdW  Elec       q    Type
REMARK                         _______ _______ _______ _____ _____    ______ ____
ROOT
ATOM      1  N   UNL     1       1.682  13.407  20.168  0.00  0.00    +0.000 N 
ATOM      2  C   UNL     1       1.649  12.829  18.936  0.00  0.00    +0.000 C 
ATOM      3  O   UNL     1       2.603  12.517  18.239  0.00  0.00    +0.000 OA
ATOM      4  C   UNL     1       0.229  12.537  18.583  0.00  0.00    +0.000 C 
ATOM      5  C   UNL     1      -0.059  11.028  18.769  0.00  0.00    +0.000 C 
ATOM      6  C   UNL     1      -1.478  10.893  18.239  0.00  0.00    +0.000 A 
ATOM      7  C   UNL     1      -1.854  10.038  17.211  0.00  0.00    +0.000 A 
ATOM      8  C   UNL     1      -3.201   9.955  16.876  0.00  0.00    +0.000 A 
ATOM      9  C   UNL     1      -4.151  10.726  17.557  0.00  0.00    +0.000 A 
ATOM     10  C   UNL     1      -3.770  11.600  18.586  0.00  0.00    +0.000 A 
ATOM     11  C   UNL     1      -2.426  11.695  18.937  0.00  0.00    +0.000 A 
ATOM     12  C   UNL     1      -1.804  12.490  20.129  0.00  0.00    +0.000 C 
ATOM     13  C   UNL     1      -1.108  11.422  20.999  0.00  0.00    +0.000 A 
ATOM     14  C   UNL     1      -1.266  11.224  22.367  0.00  0.00    +0.000 A 
ATOM     15  C   UNL     1      -0.414  10.329  23.013  0.00  0.00    +0.000 A 
ATOM     16  C   UNL     1       0.576   9.639  22.302  0.00  0.00    +0.000 A 
ATOM     17  C   UNL     1       0.721   9.807  20.922  0.00  0.00    +0.000 A 
ATOM     18  C   UNL     1      -0.122  10.691  20.269  0.00  0.00    +0.000 A 
ATOM     19  C   UNL     1      -0.611  13.368  19.584  0.00  0.00    +0.000 C 
ATOM     20  C   UNL     1       0.430  13.729  20.642  0.00  0.00    +0.000 C 
ATOM     21  O   UNL     1       0.178  14.207  21.738  0.00  0.00    +0.000 OA
ENDROOT
BRANCH  12  22
ATOM     22  C   UNL     1      -2.826  13.372  20.824  0.00  0.00    +0.000 C 
ATOM     23  O   UNL     1      -2.965  14.568  20.606  0.00  0.00    +0.000 OA
ENDBRANCH  12  22
BRANCH   1  24
ATOM     24  C   UNL     1       2.926  13.528  20.914  0.00  0.00    +0.000 C 
BRANCH  24  25
ATOM     25  C   UNL     1       3.739  14.748  20.487  0.00  0.00    +0.000 C 
BRANCH  25  26
ATOM     26  C   UNL     1       3.503  15.931  21.429  0.00  0.00    +0.000 C 
BRANCH  26  28
ATOM     27  C   UNL     1       2.057  17.983  21.486  0.00  0.00    +0.000 C 
ATOM     28  C   UNL     1       2.448  16.852  20.887  0.00  0.00    +0.000 C 
ENDBRANCH  26  28
ENDBRANCH  25  26
ENDBRANCH  24  25
ENDBRANCH   1  24
TORSDOF 5
ENDMDL
MODEL 8
REMARK VINA RESULT:      -6.0      8.069     10.665
REMARK  Name = 
REMARK  5 active torsions:
REMARK  status: ('A' for Active; 'I' for Inactive)
REMARK    1  A    between atoms: C_2  and  C_3
REMARK    2  A    between atoms: C_3  and  C_4
REMARK    3  A    between atoms: C_4  and  C_5
REMARK    4  A    between atoms: C_5  and  N_6
REMARK    5  A    between atoms: C_17  and  C_18
REMARK                            x       y       z     vdW  Elec       q    Type
REMARK                         _______ _______ _______ _____ _____    ______ ____
ROOT
ATOM      1  N   UNL     1       4.442   3.457  19.608  0.00  0.00    +0.000 N 
ATOM      2  C   UNL     1       4.322   2.591  18.564  0.00  0.00    +0.000 C 
ATOM      3  O   UNL     1       3.604   1.606  18.498  0.00  0.00    +0.000 OA
ATOM      4  C   UNL     1       5.159   3.089  17.433  0.00  0.00    +0.000 C 
ATOM      5  C   UNL     1       4.257   3.750  16.363  0.00  0.00    +0.000 C 
ATOM      6  C   UNL     1       5.240   4.064  15.246  0.00  0.00    +0.000 A 
ATOM      7  C   UNL     1       5.116   3.607  13.940  0.00  0.00    +0.000 A 
ATOM      8  C   UNL     1       6.046   4.033  12.998  0.00  0.00    +0.000 A 
ATOM      9  C   UNL     1       7.087   4.894  13.365  0.00  0.00    +0.000 A 
ATOM     10  C   UNL     1       7.221   5.344  14.687  0.00  0.00    +0.000 A 
ATOM     11  C   UNL     1       6.299   4.930  15.644  0.00  0.00    +0.000 A 
ATOM     12  C   UNL     1       6.179   5.411  17.126  0.00  0.00    +0.000 C 
ATOM     13  C   UNL     1       4.771   6.035  17.228  0.00  0.00    +0.000 A 
ATOM     14  C   UNL     1       4.447   7.296  17.720  0.00  0.00    +0.000 A 
ATOM     15  C   UNL     1       3.101   7.613  17.905  0.00  0.00    +0.000 A 
ATOM     16  C   UNL     1       2.095   6.687  17.598  0.00  0.00    +0.000 A 
ATOM     17  C   UNL     1       2.410   5.430  17.073  0.00  0.00    +0.000 A 
ATOM     18  C   UNL     1       3.743   5.105  16.881  0.00  0.00    +0.000 A 
ATOM     19  C   UNL     1       6.099   4.145  18.064  0.00  0.00    +0.000 C 
ATOM     20  C   UNL     1       5.418   4.407  19.407  0.00  0.00    +0.000 C 
ATOM     21  O   UNL     1       5.690   5.329  20.162  0.00  0.00    +0.000 OA
ENDROOT
BRANCH  12  22
ATOM     22  C   UNL     1       7.344   6.294  17.537  0.00  0.00    +0.000 C 
ATOM     23  O   UNL     1       7.523   7.433  17.128  0.00  0.00    +0.000 OA
ENDBRANCH  12  22
BRANCH   1  24
ATOM     24  C   UNL     1       3.522   3.416  20.734  0.00  0.00    +0.000 C 
BRANCH  24  25
ATOM     25  C   UNL     1       2.665   4.677  20.826  0.00  0.00    +0.000 C 
BRANCH  25  26
ATOM     26  C   UNL     1       1.192   4.369  20.548  0.00  0.00    +0.000 C 
BRANCH  26  28
ATOM     27  C   UNL     1       0.534   2.633  18.857  0.00  0.00    +0.000 C 
ATOM     28  C   UNL     1       1.016   2.959  20.063  0.00  0.00    +0.000 C 
ENDBRANCH  26  28
ENDBRANCH  25  26
ENDBRANCH  24  25
ENDBRANCH   1  24
TORSDOF 5
ENDMDL
MODEL 9
REMARK VINA RESULT:      -6.0      1.120      1.508
REMARK  Name = 
REMARK  5 active torsions:
REMARK  status: ('A' for Active; 'I' for Inactive)
REMARK    1  A    between atoms: C_2  and  C_3
REMARK    2  A    between atoms: C_3  and  C_4
REMARK    3  A    between atoms: C_4  and  C_5
REMARK    4  A    between atoms: C_5  and  N_6
REMARK    5  A    between atoms: C_17  and  C_18
REMARK                            x       y       z     vdW  Elec       q    Type
REMARK                         _______ _______ _______ _____ _____    ______ ____
ROOT
ATOM      1  N   UNL     1       1.200  13.677  20.395  0.00  0.00    +0.000 N 
ATOM      2  C   UNL     1       0.674  13.466  19.157  0.00  0.00    +0.000 C 
ATOM      3  O   UNL     1       1.284  13.298  18.112  0.00  0.00    +0.000 OA
ATOM      4  C   UNL     1      -0.811  13.373  19.279  0.00  0.00    +0.000 C 
ATOM      5  C   UNL     1      -1.254  11.893  19.193  0.00  0.00    +0.000 C 
ATOM      6  C   UNL     1      -2.771  11.999  19.192  0.00  0.00    +0.000 A 
ATOM      7  C   UNL     1      -3.593  11.488  18.196  0.00  0.00    +0.000 A 
ATOM      8  C   UNL     1      -4.971  11.587  18.357  0.00  0.00    +0.000 A 
ATOM      9  C   UNL     1      -5.510  12.198  19.496  0.00  0.00    +0.000 A 
ATOM     10  C   UNL     1      -4.681  12.728  20.495  0.00  0.00    +0.000 A 
ATOM     11  C   UNL     1      -3.299  12.637  20.352  0.00  0.00    +0.000 A 
ATOM     12  C   UNL     1      -2.203  13.030  21.393  0.00  0.00    +0.000 C 
ATOM     13  C   UNL     1      -1.436  11.722  21.677  0.00  0.00    +0.000 A 
ATOM     14  C   UNL     1      -1.164  11.163  22.922  0.00  0.00    +0.000 A 
ATOM     15  C   UNL     1      -0.299  10.072  22.988  0.00  0.00    +0.000 A 
ATOM     16  C   UNL     1       0.283   9.544  21.828  0.00  0.00    +0.000 A 
ATOM     17  C   UNL     1      -0.010  10.078  20.570  0.00  0.00    +0.000 A 
ATOM     18  C   UNL     1      -0.872  11.159  20.491  0.00  0.00    +0.000 A 
ATOM     19  C   UNL     1      -1.134  13.947  20.680  0.00  0.00    +0.000 C 
ATOM     20  C   UNL     1       0.240  13.935  21.348  0.00  0.00    +0.000 C 
ATOM     21  O   UNL     1       0.441  14.106  22.541  0.00  0.00    +0.000 OA
ENDROOT
BRANCH  12  22
ATOM     22  C   UNL     1      -2.788  13.749  22.596  0.00  0.00    +0.000 C 
ATOM     23  O   UNL     1      -2.911  14.964  22.680  0.00  0.00    +0.000 OA
ENDBRANCH  12  22
BRANCH   1  24
ATOM     24  C   UNL     1       2.622  13.508  20.651  0.00  0.00    +0.000 C 
BRANCH  24  25
ATOM     25  C   UNL     1       3.348  14.845  20.783  0.00  0.00    +0.000 C 
BRANCH  25  26
ATOM     26  C   UNL     1       4.620  14.873  19.932  0.00  0.00    +0.000 C 
BRANCH  26  28
ATOM     27  C   UNL     1       3.915  15.582  17.629  0.00  0.00    +0.000 C 
ATOM     28  C   UNL     1       4.308  14.629  18.483  0.00  0.00    +0.000 C 
ENDBRANCH  26  28
ENDBRANCH  25  26
ENDBRANCH  24  25
ENDBRANCH   1  24
TORSDOF 5
ENDMDL
