MODEL 1
REMARK VINA RESULT:      -8.4      0.000      0.000
REMARK  Name = 
REMARK  4 active torsions:
REMARK  status: ('A' for Active; 'I' for Inactive)
REMARK    1  A    between atoms: C_1  and  C_2
REMARK    2  A    between atoms: C_2  and  C_3
REMARK    3  A    between atoms: C_3  and  N_4
REMARK    4  A    between atoms: C_18  and  N_19
REMARK                            x       y       z     vdW  Elec       q    Type
REMARK                         _______ _______ _______ _____ _____    ______ ____
ROOT
ATOM      1  N   UNL     1       1.024  12.510  18.682  0.00  0.00    +0.000 NA
ATOM      2  C   UNL     1       0.540  13.366  19.800  0.00  0.00    +0.000 C 
ATOM      3  C   UNL     1      -0.783  12.881  20.368  0.00  0.00    +0.000 C 
ATOM      4  C   UNL     1      -0.464  11.590  21.060  0.00  0.00    +0.000 A 
ATOM      5  C   UNL     1      -0.969  11.329  22.331  0.00  0.00    +0.000 A 
ATOM      6  C   UNL     1      -0.596  10.165  22.973  0.00  0.00    +0.000 A 
ATOM      7  C   UNL     1       0.240   9.255  22.324  0.00  0.00    +0.000 A 
ATOM      8  C   UNL     1       0.732   9.464  21.013  0.00  0.00    +0.000 A 
ATOM      9  C   UNL     1       0.403  10.684  20.392  0.00  0.00    +0.000 A 
ATOM     10  C   UNL     1       0.809  11.034  18.946  0.00  0.00    +0.000 C 
ATOM     11  C   UNL     1       1.694   9.947  18.257  0.00  0.00    +0.000 C 
ATOM     12  C   UNL     1       1.804   8.582  18.930  0.00  0.00    +0.000 A 
ATOM     13  C   UNL     1       2.326   7.485  18.209  0.00  0.00    +0.000 A 
ATOM     14  C   UNL     1       2.535   6.227  18.808  0.00  0.00    +0.000 A 
ATOM     15  C   UNL     1       2.286   6.050  20.161  0.00  0.00    +0.000 A 
ATOM     16  C   UNL     1       1.757   7.146  20.865  0.00  0.00    +0.000 A 
ATOM     17  C   UNL     1       1.459   8.405  20.276  0.00  0.00    +0.000 A 
ENDROOT
BRANCH  15  18
ATOM     18  N   UNL     1       2.473   4.873  20.929  0.00  0.00    +0.000 N 
ATOM     19  C   UNL     1       1.768   3.743  21.143  0.00  0.00    +0.000 C 
ATOM     20  N   UNL     1       0.640   3.503  20.466  0.00  0.00    +0.000 N 
ATOM     21  O   UNL     1       2.162   2.917  21.968  0.00  0.00    +0.000 OA
ATOM     22  H   UNL     1       3.300   4.862  21.511  0.00  0.00    +0.000 HD
ATOM     23  H   UNL     1       0.672   3.691  19.476  0.00  0.00    +0.000 HD
ATOM     24  H   UNL     1       0.252   2.587  20.677  0.00  0.00    +0.000 HD
ENDBRANCH  15  18
BRANCH   1  25
ATOM     25  C   UNL     1       2.286  13.102  18.223  0.00  0.00    +0.000 C 
BRANCH  25  27
ATOM     26  C   UNL     1       3.477  15.295  17.619  0.00  0.00    +0.000 C 
ATOM     27  C   UNL     1       2.744  14.490  18.677  0.00  0.00    +0.000 C 
ENDBRANCH  25  27
ENDBRANCH   1  25
TORSDOF 3
ENDMDL
MODEL 2
REMARK VINA RESULT:      -8.2      4.434      7.660
REMARK  Name = 
REMARK  4 active torsions:
REMARK  status: ('A' for Active; 'I' for Inactive)
REMARK    1  A    between atoms: C_1  and  C_2
REMARK    2  A    between atoms: C_2  and  C_3
REMARK    3  A    between atoms: C_3  and  N_4
REMARK    4  A    between atoms: C_18  and  N_19
REMARK                            x       y       z     vdW  Elec       q    Type
REMARK                         _______ _______ _______ _____ _____    ______ ____
ROOT
ATOM      1  N   UNL     1       2.274   4.831  20.926  0.00  0.00    +0.000 NA
ATOM      2  C   UNL     1       1.085   5.723  20.832  0.00  0.00    +0.000 C 
ATOM      3  C   UNL     1       1.462   7.194  20.843  0.00  0.00    +0.000 C 
ATOM      4  C   UNL     1       2.153   7.433  19.534  0.00  0.00    +0.000 A 
ATOM      5  C   UNL     1       1.839   8.551  18.766  0.00  0.00    +0.000 A 
ATOM      6  C   UNL     1       2.436   8.703  17.531  0.00  0.00    +0.000 A 
ATOM      7  C   UNL     1       3.372   7.764  17.095  0.00  0.00    +0.000 A 
ATOM      8  C   UNL     1       3.754   6.642  17.870  0.00  0.00    +0.000 A 
ATOM      9  C   UNL     1       3.090   6.457  19.099  0.00  0.00    +0.000 A 
ATOM     10  C   UNL     1       3.434   5.322  20.084  0.00  0.00    +0.000 C 
ATOM     11  C   UNL     1       4.531   4.340  19.560  0.00  0.00    +0.000 C 
ATOM     12  C   UNL     1       5.333   4.755  18.330  0.00  0.00    +0.000 A 
ATOM     13  C   UNL     1       6.522   4.066  18.004  0.00  0.00    +0.000 A 
ATOM     14  C   UNL     1       7.251   4.346  16.832  0.00  0.00    +0.000 A 
ATOM     15  C   UNL     1       6.777   5.280  15.922  0.00  0.00    +0.000 A 
ATOM     16  C   UNL     1       5.599   5.966  16.264  0.00  0.00    +0.000 A 
ATOM     17  C   UNL     1       4.880   5.767  17.474  0.00  0.00    +0.000 A 
ENDROOT
BRANCH  15  18
ATOM     18  N   UNL     1       7.358   5.656  14.685  0.00  0.00    +0.000 N 
ATOM     19  C   UNL     1       7.394   5.135  13.441  0.00  0.00    +0.000 C 
ATOM     20  N   UNL     1       6.683   4.043  13.137  0.00  0.00    +0.000 N 
ATOM     21  O   UNL     1       8.087   5.663  12.570  0.00  0.00    +0.000 OA
ATOM     22  H   UNL     1       7.935   6.485  14.712  0.00  0.00    +0.000 HD
ATOM     23  H   UNL     1       5.734   4.028  13.475  0.00  0.00    +0.000 HD
ATOM     24  H   UNL     1       6.751   3.802  12.152  0.00  0.00    +0.000 HD
ENDBRANCH  15  18
BRANCH   1  25
ATOM     25  C   UNL     1       1.762   3.456  20.924  0.00  0.00    +0.000 C 
BRANCH  25  27
ATOM     26  C   UNL     1       1.418   2.502  18.566  0.00  0.00    +0.000 C 
ATOM     27  C   UNL     1       0.777   2.957  19.864  0.00  0.00    +0.000 C 
ENDBRANCH  25  27
ENDBRANCH   1  25
TORSDOF 3
ENDMDL
MODEL 3
REMARK VINA RESULT:      -7.7      1.270      1.486
REMARK  Name = 
REMARK  4 active torsions:
REMARK  status: ('A' for Active; 'I' for Inactive)
REMARK    1  A    between atoms: C_1  and  C_2
REMARK    2  A    between atoms: C_2  and  C_3
REMARK    3  A    between atoms: C_3  and  N_4
REMARK    4  A    between atoms: C_18  and  N_19
REMARK                            x       y       z     vdW  Elec       q    Type
REMARK                         _______ _______ _______ _____ _____    ______ ____
ROOT
ATOM      1  N   UNL     1       1.284  12.067  18.625  0.00  0.00    +0.000 NA
ATOM      2  C   UNL     1       0.811  12.765  19.852  0.00  0.00    +0.000 C 
ATOM      3  C   UNL     1      -0.467  12.161  20.406  0.00  0.00    +0.000 C 
ATOM      4  C   UNL     1      -0.070  10.814  20.931  0.00  0.00    +0.000 A 
ATOM      5  C   UNL     1      -0.514  10.386  22.179  0.00  0.00    +0.000 A 
ATOM      6  C   UNL     1      -0.069   9.174  22.668  0.00  0.00    +0.000 A 
ATOM      7  C   UNL     1       0.775   8.382  21.888  0.00  0.00    +0.000 A 
ATOM      8  C   UNL     1       1.206   8.762  20.593  0.00  0.00    +0.000 A 
ATOM      9  C   UNL     1       0.804  10.030  20.131  0.00  0.00    +0.000 A 
ATOM     10  C   UNL     1       1.138  10.562  18.723  0.00  0.00    +0.000 C 
ATOM     11  C   UNL     1       2.037   9.602  17.880  0.00  0.00    +0.000 C 
ATOM     12  C   UNL     1       2.227   8.174  18.385  0.00  0.00    +0.000 A 
ATOM     13  C   UNL     1       2.763   7.192  17.522  0.00  0.00    +0.000 A 
ATOM     14  C   UNL     1       3.046   5.883  17.963  0.00  0.00    +0.000 A 
ATOM     15  C   UNL     1       2.858   5.541  19.294  0.00  0.00    +0.000 A 
ATOM     16  C   UNL     1       2.314   6.524  20.139  0.00  0.00    +0.000 A 
ATOM     17  C   UNL     1       1.944   7.828  19.712  0.00  0.00    +0.000 A 
ENDROOT
BRANCH  15  18
ATOM     18  N   UNL     1       3.122   4.293  19.912  0.00  0.00    +0.000 N 
ATOM     19  C   UNL     1       4.102   3.368  19.832  0.00  0.00    +0.000 C 
ATOM     20  N   UNL     1       5.194   3.592  19.092  0.00  0.00    +0.000 N 
ATOM     21  O   UNL     1       3.998   2.304  20.444  0.00  0.00    +0.000 OA
ATOM     22  H   UNL     1       2.399   3.955  20.532  0.00  0.00    +0.000 HD
ATOM     23  H   UNL     1       5.608   4.506  19.184  0.00  0.00    +0.000 HD
ATOM     24  H   UNL     1       5.876   2.843  19.178  0.00  0.00    +0.000 HD
ENDBRANCH  15  18
BRANCH   1  25
ATOM     25  C   UNL     1       2.502  12.762  18.195  0.00  0.00    +0.000 C 
BRANCH  25  27
ATOM     26  C   UNL     1       2.850  15.304  18.101  0.00  0.00    +0.000 C 
ATOM     27  C   UNL     1       3.009  14.023  18.899  0.00  0.00    +0.000 C 
ENDBRANCH  25  27
ENDBRANCH   1  25
TORSDOF 3
ENDMDL
MODEL 4
REMARK VINA RESULT:      -7.5      1.165      1.419
REMARK  Name = 
REMARK  4 active torsions:
REMARK  status: ('A' for Active; 'I' for Inactive)
REMARK    1  A    between atoms: C_1  and  C_2
REMARK    2  A    between atoms: C_2  and  C_3
REMARK    3  A    between atoms: C_3  and  N_4
REMARK    4  A    between atoms: C_18  and  N_19
REMARK                            x       y       z     vdW  Elec       q    Type
REMARK                         _______ _______ _______ _____ _____    ______ ____
ROOT
ATOM      1  N   UNL     1      -0.514  13.231  19.367  0.00  0.00    +0.000 NA
ATOM      2  C   UNL     1      -0.924  13.778  20.690  0.00  0.00    +0.000 C 
ATOM      3  C   UNL     1      -1.964  12.911  21.377  0.00  0.00    +0.000 C 
ATOM      4  C   UNL     1      -1.241  11.653  21.755  0.00  0.00    +0.000 A 
ATOM      5  C   UNL     1      -1.402  11.102  23.023  0.00  0.00    +0.000 A 
ATOM      6  C   UNL     1      -0.664   9.988  23.367  0.00  0.00    +0.000 A 
ATOM      7  C   UNL     1       0.192   9.409  22.429  0.00  0.00    +0.000 A 
ATOM      8  C   UNL     1       0.344   9.912  21.113  0.00  0.00    +0.000 A 
ATOM      9  C   UNL     1      -0.360  11.089  20.793  0.00  0.00    +0.000 A 
ATOM     10  C   UNL     1      -0.350  11.725  19.389  0.00  0.00    +0.000 C 
ATOM     11  C   UNL     1       0.582  10.995  18.370  0.00  0.00    +0.000 C 
ATOM     12  C   UNL     1       1.118   9.617  18.751  0.00  0.00    +0.000 A 
ATOM     13  C   UNL     1       1.699   8.793  17.762  0.00  0.00    +0.000 A 
ATOM     14  C   UNL     1       2.292   7.554  18.075  0.00  0.00    +0.000 A 
ATOM     15  C   UNL     1       2.375   7.135  19.395  0.00  0.00    +0.000 A 
ATOM     16  C   UNL     1       1.784   7.959  20.368  0.00  0.00    +0.000 A 
ATOM     17  C   UNL     1       1.108   9.176  20.080  0.00  0.00    +0.000 A 
ENDROOT
BRANCH  15  18
ATOM     18  N   UNL     1       2.964   5.944  19.889  0.00  0.00    +0.000 N 
ATOM     19  C   UNL     1       2.618   4.640  19.920  0.00  0.00    +0.000 C 
ATOM     20  N   UNL     1       1.515   4.212  19.296  0.00  0.00    +0.000 N 
ATOM     21  O   UNL     1       3.319   3.829  20.528  0.00  0.00    +0.000 OA
ATOM     22  H   UNL     1       3.833   6.067  20.392  0.00  0.00    +0.000 HD
ATOM     23  H   UNL     1       1.367   4.572  18.367  0.00  0.00    +0.000 HD
ATOM     24  H   UNL     1       1.414   3.201  19.345  0.00  0.00    +0.000 HD
ENDBRANCH  15  18
BRANCH   1  25
ATOM     25  C   UNL     1       0.469  14.172  18.816  0.00  0.00    +0.000 C 
BRANCH  25  27
ATOM     26  C   UNL     1       3.003  13.795  18.655  0.00  0.00    +0.000 C 
ATOM     27  C   UNL     1       1.847  14.371  19.452  0.00  0.00    +0.000 C 
ENDBRANCH  25  27
ENDBRANCH   1  25
TORSDOF 3
ENDMDL
MODEL 5
REMARK VINA RESULT:      -7.3      1.591      1.955
REMARK  Name = 
REMARK  4 active torsions:
REMARK  status: ('A' for Active; 'I' for Inactive)
REMARK    1  A    between atoms: C_1  and  C_2
REMARK    2  A    between atoms: C_2  and  C_3
REMARK    3  A    between atoms: C_3  and  N_4
REMARK    4  A    between atoms: C_18  and  N_19
REMARK                            x       y       z     vdW  Elec       q    Type
REMARK                         _______ _______ _______ _____ _____    ______ ____
ROOT
ATOM      1  N   UNL     1      -0.440  12.696  19.372  0.00  0.00    +0.000 NA
ATOM      2  C   UNL     1      -0.788  13.222  20.721  0.00  0.00    +0.000 C 
ATOM      3  C   UNL     1      -1.729  12.300  21.476  0.00  0.00    +0.000 C 
ATOM      4  C   UNL     1      -0.913  11.085  21.801  0.00  0.00    +0.000 A 
ATOM      5  C   UNL     1      -0.956  10.529  23.077  0.00  0.00    +0.000 A 
ATOM      6  C   UNL     1      -0.136   9.457  23.368  0.00  0.00    +0.000 A 
ATOM      7  C   UNL     1       0.684   8.924  22.372  0.00  0.00    +0.000 A 
ATOM      8  C   UNL     1       0.717   9.432  21.050  0.00  0.00    +0.000 A 
ATOM      9  C   UNL     1      -0.071  10.568  20.781  0.00  0.00    +0.000 A 
ATOM     10  C   UNL     1      -0.192  11.201  19.380  0.00  0.00    +0.000 C 
ATOM     11  C   UNL     1       0.707  10.521  18.298  0.00  0.00    +0.000 C 
ATOM     12  C   UNL     1       1.343   9.176  18.640  0.00  0.00    +0.000 A 
ATOM     13  C   UNL     1       1.899   8.383  17.612  0.00  0.00    +0.000 A 
ATOM     14  C   UNL     1       2.580   7.178  17.882  0.00  0.00    +0.000 A 
ATOM     15  C   UNL     1       2.776   6.768  19.192  0.00  0.00    +0.000 A 
ATOM     16  C   UNL     1       2.208   7.560  20.205  0.00  0.00    +0.000 A 
ATOM     17  C   UNL     1       1.448   8.737  19.966  0.00  0.00    +0.000 A 
ENDROOT
BRANCH  15  18
ATOM     18  N   UNL     1       3.462   5.612  19.643  0.00  0.00    +0.000 N 
ATOM     19  C   UNL     1       4.653   5.036  19.376  0.00  0.00    +0.000 C 
ATOM     20  N   UNL     1       5.537   5.636  18.572  0.00  0.00    +0.000 N 
ATOM     21  O   UNL     1       4.936   3.944  19.874  0.00  0.00    +0.000 OA
ATOM     22  H   UNL     1       2.947   5.024  20.284  0.00  0.00    +0.000 HD
ATOM     23  H   UNL     1       5.675   6.622  18.727  0.00  0.00    +0.000 HD
ATOM     24  H   UNL     1       6.414   5.123  18.514  0.00  0.00    +0.000 HD
ENDBRANCH  15  18
BRANCH   1  25
ATOM     25  C   UNL     1       0.449  13.688  18.757  0.00  0.00    +0.000 C 
BRANCH  25  27
ATOM     26  C   UNL     1       2.965  13.430  18.317  0.00  0.00    +0.000 C 
ATOM     27  C   UNL     1       1.878  13.918  19.256  0.00  0.00    +0.000 C 
ENDBRANCH  25  27
ENDBRANCH   1  25
TORSDOF 3
ENDMDL
MODEL 6
REMARK VINA RESULT:      -7.1      1.627      2.067
REMARK  Name = 
REMARK  4 active torsions:
REMARK  status: ('A' for Active; 'I' for Inactive)
REMARK    1  A    between atoms: C_1  and  C_2
REMARK    2  A    between atoms: C_2  and  C_3
REMARK    3  A    between atoms: C_3  and  N_4
REMARK    4  A    between atoms: C_18  and  N_19
REMARK                            x       y       z     vdW  Elec       q    Type
REMARK                         _______ _______ _______ _____ _____    ______ ____
ROOT
ATOM      1  N   UNL     1       0.094  13.516  19.926  0.00  0.00    +0.000 NA
ATOM      2  C   UNL     1      -0.354  13.917  21.289  0.00  0.00    +0.000 C 
ATOM      3  C   UNL     1      -1.533  13.092  21.776  0.00  0.00    +0.000 C 
ATOM      4  C   UNL     1      -0.983  11.716  22.004  0.00  0.00    +0.000 A 
ATOM      5  C   UNL     1      -1.301  11.015  23.164  0.00  0.00    +0.000 A 
ATOM      6  C   UNL     1      -0.718   9.783  23.382  0.00  0.00    +0.000 A 
ATOM      7  C   UNL     1       0.138   9.243  22.421  0.00  0.00    +0.000 A 
ATOM      8  C   UNL     1       0.444   9.905  21.206  0.00  0.00    +0.000 A 
ATOM      9  C   UNL     1      -0.099  11.191  21.023  0.00  0.00    +0.000 A 
ATOM     10  C   UNL     1       0.089  12.014  19.733  0.00  0.00    +0.000 C 
ATOM     11  C   UNL     1       1.010  11.327  18.674  0.00  0.00    +0.000 C 
ATOM     12  C   UNL     1       1.360   9.856  18.877  0.00  0.00    +0.000 A 
ATOM     13  C   UNL     1       1.920   9.115  17.813  0.00  0.00    +0.000 A 
ATOM     14  C   UNL     1       2.347   7.782  17.973  0.00  0.00    +0.000 A 
ATOM     15  C   UNL     1       2.282   7.174  19.218  0.00  0.00    +0.000 A 
ATOM     16  C   UNL     1       1.713   7.918  20.266  0.00  0.00    +0.000 A 
ATOM     17  C   UNL     1       1.199   9.236  20.123  0.00  0.00    +0.000 A 
ENDROOT
BRANCH  15  18
ATOM     18  N   UNL     1       2.697   5.864  19.564  0.00  0.00    +0.000 N 
ATOM     19  C   UNL     1       3.823   5.137  19.403  0.00  0.00    +0.000 C 
ATOM     20  N   UNL     1       4.924   5.690  18.881  0.00  0.00    +0.000 N 
ATOM     21  O   UNL     1       3.846   3.952  19.738  0.00  0.00    +0.000 OA
ATOM     22  H   UNL     1       1.989   5.284  19.992  0.00  0.00    +0.000 HD
ATOM     23  H   UNL     1       5.166   6.604  19.231  0.00  0.00    +0.000 HD
ATOM     24  H   UNL     1       5.713   5.050  18.881  0.00  0.00    +0.000 HD
ENDBRANCH  15  18
BRANCH   1  25
ATOM     25  C   UNL     1       1.213  14.400  19.581  0.00  0.00    +0.000 C 
BRANCH  25  27
ATOM     26  C   UNL     1      -0.449  16.098  18.609  0.00  0.00    +0.000 C 
ATOM     27  C   UNL     1       0.996  15.772  18.938  0.00  0.00    +0.000 C 
ENDBRANCH  25  27
ENDBRANCH   1  25
TORSDOF 3
ENDMDL
MODEL 7
REMARK VINA RESULT:      -6.9      3.478      7.533
REMARK  Name = 
REMARK  4 active torsions:
REMARK  status: ('A' for Active; 'I' for Inactive)
REMARK    1  A    between atoms: C_1  and  C_2
REMARK    2  A    between atoms: C_2  and  C_3
REMARK    3  A    between atoms: C_3  and  N_4
REMARK    4  A    between atoms: C_18  and  N_19
REMARK                            x       y       z     vdW  Elec       q    Type
REMARK                         _______ _______ _______ _____ _____    ______ ____
ROOT
ATOM      1  N   UNL     1       4.909   4.188  17.241  0.00  0.00    +0.000 NA
ATOM      2  C   UNL     1       4.531   2.881  17.845  0.00  0.00    +0.000 C 
ATOM      3  C   UNL     1       4.620   2.896  19.361  0.00  0.00    +0.000 C 
ATOM      4  C   UNL     1       3.508   3.796  19.810  0.00  0.00    +0.000 A 
ATOM      5  C   UNL     1       2.679   3.419  20.863  0.00  0.00    +0.000 A 
ATOM      6  C   UNL     1       1.617   4.232  21.204  0.00  0.00    +0.000 A 
ATOM      7  C   UNL     1       1.420   5.434  20.522  0.00  0.00    +0.000 A 
ATOM      8  C   UNL     1       2.273   5.874  19.479  0.00  0.00    +0.000 A 
ATOM      9  C   UNL     1       3.312   5.006  19.092  0.00  0.00    +0.000 A 
ATOM     10  C   UNL     1       4.359   5.366  18.019  0.00  0.00    +0.000 C 
ATOM     11  C   UNL     1       4.115   6.749  17.336  0.00  0.00    +0.000 C 
ATOM     12  C   UNL     1       3.105   7.696  17.978  0.00  0.00    +0.000 A 
ATOM     13  C   UNL     1       3.072   9.054  17.591  0.00  0.00    +0.000 A 
ATOM     14  C   UNL     1       2.101   9.949  18.082  0.00  0.00    +0.000 A 
ATOM     15  C   UNL     1       1.099   9.494  18.926  0.00  0.00    +0.000 A 
ATOM     16  C   UNL     1       1.149   8.144  19.313  0.00  0.00    +0.000 A 
ATOM     17  C   UNL     1       2.158   7.232  18.900  0.00  0.00    +0.000 A 
ENDROOT
BRANCH  15  18
ATOM     18  N   UNL     1       0.030  10.242  19.482  0.00  0.00    +0.000 N 
ATOM     19  C   UNL     1      -1.017  10.935  18.988  0.00  0.00    +0.000 C 
ATOM     20  N   UNL     1      -1.281  10.932  17.677  0.00  0.00    +0.000 N 
ATOM     21  O   UNL     1      -1.743  11.581  19.747  0.00  0.00    +0.000 OA
ATOM     22  H   UNL     1       0.051  10.347  20.487  0.00  0.00    +0.000 HD
ATOM     23  H   UNL     1      -1.234  10.035  17.221  0.00  0.00    +0.000 HD
ATOM     24  H   UNL     1      -2.135  11.438  17.455  0.00  0.00    +0.000 HD
ENDBRANCH  15  18
BRANCH   1  25
ATOM     25  C   UNL     1       4.797   4.021  15.787  0.00  0.00    +0.000 C 
BRANCH  25  27
ATOM     26  C   UNL     1       6.161   3.871  13.617  0.00  0.00    +0.000 C 
ATOM     27  C   UNL     1       5.758   4.711  14.815  0.00  0.00    +0.000 C 
ENDBRANCH  25  27
ENDBRANCH   1  25
TORSDOF 3
ENDMDL
MODEL 8
REMARK VINA RESULT:      -6.5      3.257      8.472
REMARK  Name = 
REMARK  4 active torsions:
REMARK  status: ('A' for Active; 'I' for Inactive)
REMARK    1  A    between atoms: C_1  and  C_2
REMARK    2  A    between atoms: C_2  and  C_3
REMARK    3  A    between atoms: C_3  and  N_4
REMARK    4  A    between atoms: C_18  and  N_19
REMARK                            x       y       z     vdW  Elec       q    Type
REMARK                         _______ _______ _______ _____ _____    ______ ____
ROOT
ATOM      1  N   UNL     1       3.256   3.497  19.317  0.00  0.00    +0.000 NA
ATOM      2  C   UNL     1       4.416   2.906  18.595  0.00  0.00    +0.000 C 
ATOM      3  C   UNL     1       4.264   2.991  17.087  0.00  0.00    +0.000 C 
ATOM      4  C   UNL     1       4.387   4.450  16.761  0.00  0.00    +0.000 A 
ATOM      5  C   UNL     1       5.183   4.870  15.699  0.00  0.00    +0.000 A 
ATOM      6  C   UNL     1       5.337   6.222  15.472  0.00  0.00    +0.000 A 
ATOM      7  C   UNL     1       4.660   7.140  16.277  0.00  0.00    +0.000 A 
ATOM      8  C   UNL     1       3.802   6.749  17.334  0.00  0.00    +0.000 A 
ATOM      9  C   UNL     1       3.705   5.370  17.603  0.00  0.00    +0.000 A 
ATOM     10  C   UNL     1       2.769   4.781  18.677  0.00  0.00    +0.000 C 
ATOM     11  C   UNL     1       1.996   5.859  19.503  0.00  0.00    +0.000 C 
ATOM     12  C   UNL     1       2.004   7.295  18.988  0.00  0.00    +0.000 A 
ATOM     13  C   UNL     1       1.086   8.232  19.511  0.00  0.00    +0.000 A 
ATOM     14  C   UNL     1       1.110   9.591  19.139  0.00  0.00    +0.000 A 
ATOM     15  C   UNL     1       2.094  10.061  18.282  0.00  0.00    +0.000 A 
ATOM     16  C   UNL     1       2.995   9.117  17.760  0.00  0.00    +0.000 A 
ATOM     17  C   UNL     1       2.951   7.726  18.050  0.00  0.00    +0.000 A 
ENDROOT
BRANCH  15  18
ATOM     18  N   UNL     1       2.288  11.392  17.834  0.00  0.00    +0.000 N 
ATOM     19  C   UNL     1       2.268  12.613  18.410  0.00  0.00    +0.000 C 
ATOM     20  N   UNL     1       2.125  12.742  19.734  0.00  0.00    +0.000 N 
ATOM     21  O   UNL     1       2.383  13.625  17.716  0.00  0.00    +0.000 OA
ATOM     22  H   UNL     1       2.429  11.499  16.839  0.00  0.00    +0.000 HD
ATOM     23  H   UNL     1       2.679  12.118  20.299  0.00  0.00    +0.000 HD
ATOM     24  H   UNL     1       2.196  13.710  20.035  0.00  0.00    +0.000 HD
ENDBRANCH  15  18
BRANCH   1  25
ATOM     25  C   UNL     1       3.528   3.328  20.749  0.00  0.00    +0.000 C 
BRANCH  25  27
ATOM     26  C   UNL     1       1.132   2.810  21.512  0.00  0.00    +0.000 C 
ATOM     27  C   UNL     1       2.612   2.505  21.658  0.00  0.00    +0.000 C 
ENDBRANCH  25  27
ENDBRANCH   1  25
TORSDOF 3
ENDMDL
MODEL 9
REMARK VINA RESULT:      -6.5      1.482      1.849
REMARK  Name = 
REMARK  4 active torsions:
REMARK  status: ('A' for Active; 'I' for Inactive)
REMARK    1  A    between atoms: C_1  and  C_2
REMARK    2  A    between atoms: C_2  and  C_3
REMARK    3  A    between atoms: C_3  and  N_4
REMARK    4  A    between atoms: C_18  and  N_19
REMARK                            x       y       z     vdW  Elec       q    Type
REMARK                         _______ _______ _______ _____ _____    ______ ____
ROOT
ATOM      1  N   UNL     1       0.449  13.460  20.295  0.00  0.00    +0.000 NA
ATOM      2  C   UNL     1       0.003  13.706  21.695  0.00  0.00    +0.000 C 
ATOM      3  C   UNL     1      -1.211  12.874  22.070  0.00  0.00    +0.000 C 
ATOM      4  C   UNL     1      -0.716  11.460  22.129  0.00  0.00    +0.000 A 
ATOM      5  C   UNL     1      -1.070  10.633  23.191  0.00  0.00    +0.000 A 
ATOM      6  C   UNL     1      -0.537   9.362  23.257  0.00  0.00    +0.000 A 
ATOM      7  C   UNL     1       0.307   8.913  22.240  0.00  0.00    +0.000 A 
ATOM      8  C   UNL     1       0.650   9.707  21.119  0.00  0.00    +0.000 A 
ATOM      9  C   UNL     1       0.157  11.027  21.095  0.00  0.00    +0.000 A 
ATOM     10  C   UNL     1       0.388  11.994  19.917  0.00  0.00    +0.000 C 
ATOM     11  C   UNL     1       1.293  11.409  18.786  0.00  0.00    +0.000 C 
ATOM     12  C   UNL     1       1.586   9.912  18.807  0.00  0.00    +0.000 A 
ATOM     13  C   UNL     1       2.128   9.287  17.661  0.00  0.00    +0.000 A 
ATOM     14  C   UNL     1       2.503   7.929  17.657  0.00  0.00    +0.000 A 
ATOM     15  C   UNL     1       2.403   7.175  18.816  0.00  0.00    +0.000 A 
ATOM     16  C   UNL     1       1.852   7.804  19.945  0.00  0.00    +0.000 A 
ATOM     17  C   UNL     1       1.390   9.149  19.965  0.00  0.00    +0.000 A 
ENDROOT
BRANCH  15  18
ATOM     18  N   UNL     1       2.765   5.816  18.999  0.00  0.00    +0.000 N 
ATOM     19  C   UNL     1       2.820   4.969  20.047  0.00  0.00    +0.000 C 
ATOM     20  N   UNL     1       2.375   5.342  21.252  0.00  0.00    +0.000 N 
ATOM     21  O   UNL     1       3.284   3.836  19.902  0.00  0.00    +0.000 OA
ATOM     22  H   UNL     1       3.121   5.349  18.177  0.00  0.00    +0.000 HD
ATOM     23  H   UNL     1       1.492   5.826  21.264  0.00  0.00    +0.000 HD
ATOM     24  H   UNL     1       2.415   4.585  21.929  0.00  0.00    +0.000 HD
ENDBRANCH  15  18
BRANCH   1  25
ATOM     25  C   UNL     1       1.604  14.336  20.068  0.00  0.00    +0.000 C 
BRANCH  25  27
ATOM     26  C   UNL     1       3.914  14.337  21.187  0.00  0.00    +0.000 C 
ATOM     27  C   UNL     1       2.481  14.838  21.217  0.00  0.00    +0.000 C 
ENDBRANCH  25  27
ENDBRANCH   1  25
TORSDOF 3
ENDMDL
