MODEL 1
REMARK VINA RESULT:      -8.1      0.000      0.000
REMARK  Name = 
REMARK  6 active torsions:
REMARK  status: ('A' for Active; 'I' for Inactive)
REMARK    1  A    between atoms: C_1  and  O_2
REMARK    2  A    between atoms: O_2  and  C_3
REMARK    3  A    between atoms: C_8  and  N_9
REMARK    4  A    between atoms: N_9  and  C_10
REMARK    5  A    between atoms: C_16  and  C_17
REMARK    6  A    between atoms: C_17  and  C_18
REMARK                            x       y       z     vdW  Elec       q    Type
REMARK                         _______ _______ _______ _____ _____    ______ ____
ROOT
ATOM      1  C   UNL     1       3.581   2.942  17.903  0.00  0.00    +0.000 C 
ATOM      2  C   UNL     1       2.334   2.426  17.752  0.00  0.00    +0.000 C 
ATOM      3  C   UNL     1       1.309   2.518  18.901  0.00  0.00    +0.000 C 
ATOM      4  O   UNL     1       0.228   1.950  18.877  0.00  0.00    +0.000 OA
ATOM      5  C   UNL     1       1.685   3.587  19.827  0.00  0.00    +0.000 A 
ATOM      6  C   UNL     1       1.018   4.728  20.323  0.00  0.00    +0.000 A 
ATOM      7  C   UNL     1       2.001   5.719  20.325  0.00  0.00    +0.000 A 
ATOM      8  O   UNL     1       3.249   5.152  20.241  0.00  0.00    +0.000 OA
ATOM      9  C   UNL     1       3.020   3.823  20.038  0.00  0.00    +0.000 A 
ATOM     10  C   UNL     1       3.973   2.979  19.361  0.00  0.00    +0.000 C 
ATOM     11  O   UNL     1       4.773   2.193  19.863  0.00  0.00    +0.000 OA
ENDROOT
BRANCH   7  12
ATOM     12  C   UNL     1       1.849   7.163  20.269  0.00  0.00    +0.000 C 
ATOM     13  C   UNL     1       2.183   7.886  18.983  0.00  0.00    +0.000 C 
ATOM     14  O   UNL     1       1.346   7.802  21.199  0.00  0.00    +0.000 OA
ENDBRANCH   7  12
BRANCH   1  15
ATOM     15  N   UNL     1       4.048   4.056  17.183  0.00  0.00    +0.000 N 
ATOM     16  H   UNL     1       4.178   4.851  17.820  0.00  0.00    +0.000 HD
BRANCH  15  22
ATOM     17  C   UNL     1       6.400   4.671  16.855  0.00  0.00    +0.000 A 
ATOM     18  C   UNL     1       7.451   5.007  16.001  0.00  0.00    +0.000 A 
ATOM     19  C   UNL     1       7.297   4.824  14.625  0.00  0.00    +0.000 A 
ATOM     20  C   UNL     1       6.128   4.250  14.119  0.00  0.00    +0.000 A 
ATOM     21  C   UNL     1       5.094   3.868  14.976  0.00  0.00    +0.000 A 
ATOM     22  C   UNL     1       5.195   4.116  16.345  0.00  0.00    +0.000 A 
BRANCH  17  24
ATOM     23  C   UNL     1       7.601   5.883  18.494  0.00  0.00    +0.000 C 
ATOM     24  O   UNL     1       6.444   5.110  18.161  0.00  0.00    +0.000 OA
ENDBRANCH  17  24
ENDBRANCH  15  22
ENDBRANCH   1  15
TORSDOF 4
ENDMDL
MODEL 2
REMARK VINA RESULT:      -7.8      1.925      6.430
REMARK  Name = 
REMARK  6 active torsions:
REMARK  status: ('A' for Active; 'I' for Inactive)
REMARK    1  A    between atoms: C_1  and  O_2
REMARK    2  A    between atoms: O_2  and  C_3
REMARK    3  A    between atoms: C_8  and  N_9
REMARK    4  A    between atoms: N_9  and  C_10
REMARK    5  A    between atoms: C_16  and  C_17
REMARK    6  A    between atoms: C_17  and  C_18
REMARK                            x       y       z     vdW  Elec       q    Type
REMARK                         _______ _______ _______ _____ _____    ______ ____
ROOT
ATOM      1  C   UNL     1       4.968   5.707  18.008  0.00  0.00    +0.000 C 
ATOM      2  C   UNL     1       5.665   6.844  17.751  0.00  0.00    +0.000 C 
ATOM      3  C   UNL     1       7.000   6.782  16.980  0.00  0.00    +0.000 C 
ATOM      4  O   UNL     1       7.736   7.747  16.844  0.00  0.00    +0.000 OA
ATOM      5  C   UNL     1       7.080   5.538  16.213  0.00  0.00    +0.000 A 
ATOM      6  C   UNL     1       7.297   5.244  14.849  0.00  0.00    +0.000 A 
ATOM      7  C   UNL     1       6.410   4.200  14.584  0.00  0.00    +0.000 A 
ATOM      8  O   UNL     1       5.990   3.621  15.758  0.00  0.00    +0.000 OA
ATOM      9  C   UNL     1       6.507   4.410  16.743  0.00  0.00    +0.000 A 
ATOM     10  C   UNL     1       5.889   4.511  18.042  0.00  0.00    +0.000 C 
ATOM     11  O   UNL     1       6.228   3.952  19.083  0.00  0.00    +0.000 OA
ENDROOT
BRANCH   7  12
ATOM     12  C   UNL     1       5.827   3.788  13.318  0.00  0.00    +0.000 C 
ATOM     13  C   UNL     1       6.744   3.464  12.160  0.00  0.00    +0.000 C 
ATOM     14  O   UNL     1       4.615   3.583  13.195  0.00  0.00    +0.000 OA
ENDBRANCH   7  12
BRANCH   1  15
ATOM     15  N   UNL     1       3.719   5.419  17.430  0.00  0.00    +0.000 N 
ATOM     16  H   UNL     1       3.854   4.907  16.551  0.00  0.00    +0.000 HD
BRANCH  15  22
ATOM     17  C   UNL     1       2.159   5.181  19.308  0.00  0.00    +0.000 A 
ATOM     18  C   UNL     1       1.294   4.389  20.065  0.00  0.00    +0.000 A 
ATOM     19  C   UNL     1       0.914   3.137  19.577  0.00  0.00    +0.000 A 
ATOM     20  C   UNL     1       1.345   2.712  18.317  0.00  0.00    +0.000 A 
ATOM     21  C   UNL     1       2.172   3.523  17.537  0.00  0.00    +0.000 A 
ATOM     22  C   UNL     1       2.628   4.742  18.040  0.00  0.00    +0.000 A 
BRANCH  17  24
ATOM     23  C   UNL     1       2.054   7.508  19.719  0.00  0.00    +0.000 C 
ATOM     24  O   UNL     1       2.749   6.273  19.908  0.00  0.00    +0.000 OA
ENDBRANCH  17  24
ENDBRANCH  15  22
ENDBRANCH   1  15
TORSDOF 4
ENDMDL
MODEL 3
REMARK VINA RESULT:      -7.7      0.921      2.017
REMARK  Name = 
REMARK  6 active torsions:
REMARK  status: ('A' for Active; 'I' for Inactive)
REMARK    1  A    between atoms: C_1  and  O_2
REMARK    2  A    between atoms: O_2  and  C_3
REMARK    3  A    between atoms: C_8  and  N_9
REMARK    4  A    between atoms: N_9  and  C_10
REMARK    5  A    between atoms: C_16  and  C_17
REMARK    6  A    between atoms: C_17  and  C_18
REMARK                            x       y       z     vdW  Elec       q    Type
REMARK                         _______ _______ _______ _____ _____    ______ ____
ROOT
ATOM      1  C   UNL     1       3.529   2.887  18.032  0.00  0.00    +0.000 C 
ATOM      2  C   UNL     1       2.294   2.375  17.786  0.00  0.00    +0.000 C 
ATOM      3  C   UNL     1       1.210   2.398  18.882  0.00  0.00    +0.000 C 
ATOM      4  O   UNL     1       0.135   1.828  18.768  0.00  0.00    +0.000 OA
ATOM      5  C   UNL     1       1.530   3.414  19.886  0.00  0.00    +0.000 A 
ATOM      6  C   UNL     1       0.830   4.523  20.410  0.00  0.00    +0.000 A 
ATOM      7  C   UNL     1       1.804   5.515  20.520  0.00  0.00    +0.000 A 
ATOM      8  O   UNL     1       3.059   4.959  20.470  0.00  0.00    +0.000 OA
ATOM      9  C   UNL     1       2.850   3.642  20.181  0.00  0.00    +0.000 A 
ATOM     10  C   UNL     1       3.843   2.842  19.508  0.00  0.00    +0.000 C 
ATOM     11  O   UNL     1       4.620   2.031  20.006  0.00  0.00    +0.000 OA
ENDROOT
BRANCH   7  12
ATOM     12  C   UNL     1       1.646   6.960  20.538  0.00  0.00    +0.000 C 
ATOM     13  C   UNL     1       2.156   7.767  19.366  0.00  0.00    +0.000 C 
ATOM     14  O   UNL     1       1.006   7.534  21.425  0.00  0.00    +0.000 OA
ENDBRANCH   7  12
BRANCH   1  15
ATOM     15  N   UNL     1       4.025   4.042  17.402  0.00  0.00    +0.000 N 
ATOM     16  H   UNL     1       3.375   4.823  17.548  0.00  0.00    +0.000 HD
BRANCH  15  22
ATOM     17  C   UNL     1       6.365   4.298  16.710  0.00  0.00    +0.000 A 
ATOM     18  C   UNL     1       7.685   4.631  17.018  0.00  0.00    +0.000 A 
ATOM     19  C   UNL     1       7.960   5.279  18.224  0.00  0.00    +0.000 A 
ATOM     20  C   UNL     1       6.918   5.646  19.079  0.00  0.00    +0.000 A 
ATOM     21  C   UNL     1       5.592   5.357  18.751  0.00  0.00    +0.000 A 
ATOM     22  C   UNL     1       5.302   4.639  17.590  0.00  0.00    +0.000 A 
BRANCH  17  24
ATOM     23  C   UNL     1       6.260   3.989  14.366  0.00  0.00    +0.000 C 
ATOM     24  O   UNL     1       6.131   3.421  15.672  0.00  0.00    +0.000 OA
ENDBRANCH  17  24
ENDBRANCH  15  22
ENDBRANCH   1  15
TORSDOF 4
ENDMDL
MODEL 4
REMARK VINA RESULT:      -7.7      2.457      5.891
REMARK  Name = 
REMARK  6 active torsions:
REMARK  status: ('A' for Active; 'I' for Inactive)
REMARK    1  A    between atoms: C_1  and  O_2
REMARK    2  A    between atoms: O_2  and  C_3
REMARK    3  A    between atoms: C_8  and  N_9
REMARK    4  A    between atoms: N_9  and  C_10
REMARK    5  A    between atoms: C_16  and  C_17
REMARK    6  A    between atoms: C_17  and  C_18
REMARK                            x       y       z     vdW  Elec       q    Type
REMARK                         _______ _______ _______ _____ _____    ______ ____
ROOT
ATOM      1  C   UNL     1       1.886   5.640  19.898  0.00  0.00    +0.000 C 
ATOM      2  C   UNL     1       1.936   4.632  20.807  0.00  0.00    +0.000 C 
ATOM      3  C   UNL     1       2.823   3.397  20.551  0.00  0.00    +0.000 C 
ATOM      4  O   UNL     1       2.799   2.401  21.259  0.00  0.00    +0.000 OA
ATOM      5  C   UNL     1       3.862   3.717  19.572  0.00  0.00    +0.000 A 
ATOM      6  C   UNL     1       5.272   3.627  19.580  0.00  0.00    +0.000 A 
ATOM      7  C   UNL     1       5.687   4.797  18.943  0.00  0.00    +0.000 A 
ATOM      8  O   UNL     1       4.647   5.352  18.238  0.00  0.00    +0.000 OA
ATOM      9  C   UNL     1       3.558   4.599  18.567  0.00  0.00    +0.000 A 
ATOM     10  C   UNL     1       2.218   5.132  18.515  0.00  0.00    +0.000 C 
ATOM     11  O   UNL     1       1.374   4.961  17.639  0.00  0.00    +0.000 OA
ENDROOT
BRANCH   7  12
ATOM     12  C   UNL     1       6.953   5.502  19.051  0.00  0.00    +0.000 C 
ATOM     13  C   UNL     1       7.380   6.420  17.928  0.00  0.00    +0.000 C 
ATOM     14  O   UNL     1       7.633   5.465  20.082  0.00  0.00    +0.000 OA
ENDBRANCH   7  12
BRANCH   1  15
ATOM     15  N   UNL     1       2.395   6.928  20.143  0.00  0.00    +0.000 N 
ATOM     16  H   UNL     1       3.378   6.973  19.853  0.00  0.00    +0.000 HD
BRANCH  15  22
ATOM     17  C   UNL     1       1.006   8.911  20.541  0.00  0.00    +0.000 A 
ATOM     18  C   UNL     1       0.242   9.968  20.044  0.00  0.00    +0.000 A 
ATOM     19  C   UNL     1       0.297  10.268  18.682  0.00  0.00    +0.000 A 
ATOM     20  C   UNL     1       1.157   9.558  17.840  0.00  0.00    +0.000 A 
ATOM     21  C   UNL     1       1.959   8.532  18.343  0.00  0.00    +0.000 A 
ATOM     22  C   UNL     1       1.860   8.163  19.685  0.00  0.00    +0.000 A 
BRANCH  17  24
ATOM     23  C   UNL     1      -0.175   9.242  22.564  0.00  0.00    +0.000 C 
ATOM     24  O   UNL     1       0.739   8.442  21.810  0.00  0.00    +0.000 OA
ENDBRANCH  17  24
ENDBRANCH  15  22
ENDBRANCH   1  15
TORSDOF 4
ENDMDL
MODEL 5
REMARK VINA RESULT:      -7.7      0.860      1.010
REMARK  Name = 
REMARK  6 active torsions:
REMARK  status: ('A' for Active; 'I' for Inactive)
REMARK    1  A    between atoms: C_1  and  O_2
REMARK    2  A    between atoms: O_2  and  C_3
REMARK    3  A    between atoms: C_8  and  N_9
REMARK    4  A    between atoms: N_9  and  C_10
REMARK    5  A    between atoms: C_16  and  C_17
REMARK    6  A    between atoms: C_17  and  C_18
REMARK                            x       y       z     vdW  Elec       q    Type
REMARK                         _______ _______ _______ _____ _____    ______ ____
ROOT
ATOM      1  C   UNL     1       3.963   2.879  18.794  0.00  0.00    +0.000 C 
ATOM      2  C   UNL     1       2.842   2.411  18.187  0.00  0.00    +0.000 C 
ATOM      3  C   UNL     1       1.472   2.526  18.886  0.00  0.00    +0.000 C 
ATOM      4  O   UNL     1       0.458   1.999  18.454  0.00  0.00    +0.000 OA
ATOM      5  C   UNL     1       1.516   3.568  19.912  0.00  0.00    +0.000 A 
ATOM      6  C   UNL     1       0.748   4.727  20.161  0.00  0.00    +0.000 A 
ATOM      7  C   UNL     1       1.692   5.679  20.546  0.00  0.00    +0.000 A 
ATOM      8  O   UNL     1       2.868   5.068  20.908  0.00  0.00    +0.000 OA
ATOM      9  C   UNL     1       2.688   3.751  20.601  0.00  0.00    +0.000 A 
ATOM     10  C   UNL     1       3.797   2.881  20.295  0.00  0.00    +0.000 C 
ATOM     11  O   UNL     1       4.335   2.059  21.033  0.00  0.00    +0.000 OA
ENDROOT
BRANCH   7  12
ATOM     12  C   UNL     1       1.614   7.129  20.477  0.00  0.00    +0.000 C 
ATOM     13  C   UNL     1       0.882   7.877  21.568  0.00  0.00    +0.000 C 
ATOM     14  O   UNL     1       2.226   7.774  19.619  0.00  0.00    +0.000 OA
ENDBRANCH   7  12
BRANCH   1  15
ATOM     15  N   UNL     1       4.693   3.984  18.323  0.00  0.00    +0.000 N 
ATOM     16  H   UNL     1       5.360   4.291  19.041  0.00  0.00    +0.000 HD
BRANCH  15  22
ATOM     17  C   UNL     1       6.833   4.372  17.188  0.00  0.00    +0.000 A 
ATOM     18  C   UNL     1       7.542   4.736  16.042  0.00  0.00    +0.000 A 
ATOM     19  C   UNL     1       6.867   4.828  14.823  0.00  0.00    +0.000 A 
ATOM     20  C   UNL     1       5.513   4.496  14.743  0.00  0.00    +0.000 A 
ATOM     21  C   UNL     1       4.812   4.085  15.878  0.00  0.00    +0.000 A 
ATOM     22  C   UNL     1       5.447   4.064  17.120  0.00  0.00    +0.000 A 
BRANCH  17  24
ATOM     23  C   UNL     1       7.639   5.922  18.783  0.00  0.00    +0.000 C 
ATOM     24  O   UNL     1       7.427   4.556  18.418  0.00  0.00    +0.000 OA
ENDBRANCH  17  24
ENDBRANCH  15  22
ENDBRANCH   1  15
TORSDOF 4
ENDMDL
MODEL 6
REMARK VINA RESULT:      -7.6      2.135      5.853
REMARK  Name = 
REMARK  6 active torsions:
REMARK  status: ('A' for Active; 'I' for Inactive)
REMARK    1  A    between atoms: C_1  and  O_2
REMARK    2  A    between atoms: O_2  and  C_3
REMARK    3  A    between atoms: C_8  and  N_9
REMARK    4  A    between atoms: N_9  and  C_10
REMARK    5  A    between atoms: C_16  and  C_17
REMARK    6  A    between atoms: C_17  and  C_18
REMARK                            x       y       z     vdW  Elec       q    Type
REMARK                         _______ _______ _______ _____ _____    ______ ____
ROOT
ATOM      1  C   UNL     1       2.390   5.455  19.633  0.00  0.00    +0.000 C 
ATOM      2  C   UNL     1       2.824   4.403  20.375  0.00  0.00    +0.000 C 
ATOM      3  C   UNL     1       3.725   3.323  19.742  0.00  0.00    +0.000 C 
ATOM      4  O   UNL     1       4.027   2.287  20.315  0.00  0.00    +0.000 OA
ATOM      5  C   UNL     1       4.380   3.852  18.545  0.00  0.00    +0.000 A 
ATOM      6  C   UNL     1       5.727   3.959  18.135  0.00  0.00    +0.000 A 
ATOM      7  C   UNL     1       5.798   5.216  17.535  0.00  0.00    +0.000 A 
ATOM      8  O   UNL     1       4.539   5.669  17.225  0.00  0.00    +0.000 OA
ATOM      9  C   UNL     1       3.690   4.751  17.772  0.00  0.00    +0.000 A 
ATOM     10  C   UNL     1       2.347   5.095  18.167  0.00  0.00    +0.000 C 
ATOM     11  O   UNL     1       1.303   4.871  17.560  0.00  0.00    +0.000 OA
ENDROOT
BRANCH   7  12
ATOM     12  C   UNL     1       6.952   6.081  17.349  0.00  0.00    +0.000 C 
ATOM     13  C   UNL     1       7.756   6.501  18.558  0.00  0.00    +0.000 C 
ATOM     14  O   UNL     1       7.362   6.386  16.224  0.00  0.00    +0.000 OA
ENDBRANCH   7  12
BRANCH   1  15
ATOM     15  N   UNL     1       2.802   6.780  19.858  0.00  0.00    +0.000 N 
ATOM     16  H   UNL     1       3.767   6.904  19.531  0.00  0.00    +0.000 HD
BRANCH  15  22
ATOM     17  C   UNL     1       1.315   8.676  20.324  0.00  0.00    +0.000 A 
ATOM     18  C   UNL     1       0.446   9.668  19.867  0.00  0.00    +0.000 A 
ATOM     19  C   UNL     1       0.380   9.939  18.499  0.00  0.00    +0.000 A 
ATOM     20  C   UNL     1       1.221   9.269  17.608  0.00  0.00    +0.000 A 
ATOM     21  C   UNL     1       2.126   8.310  18.067  0.00  0.00    +0.000 A 
ATOM     22  C   UNL     1       2.152   7.967  19.419  0.00  0.00    +0.000 A 
BRANCH  17  24
ATOM     23  C   UNL     1       0.811   9.222  22.570  0.00  0.00    +0.000 C 
ATOM     24  O   UNL     1       1.175   8.220  21.617  0.00  0.00    +0.000 OA
ENDBRANCH  17  24
ENDBRANCH  15  22
ENDBRANCH   1  15
TORSDOF 4
ENDMDL
MODEL 7
REMARK VINA RESULT:      -7.4      1.261      2.081
REMARK  Name = 
REMARK  6 active torsions:
REMARK  status: ('A' for Active; 'I' for Inactive)
REMARK    1  A    between atoms: C_1  and  O_2
REMARK    2  A    between atoms: O_2  and  C_3
REMARK    3  A    between atoms: C_8  and  N_9
REMARK    4  A    between atoms: N_9  and  C_10
REMARK    5  A    between atoms: C_16  and  C_17
REMARK    6  A    between atoms: C_17  and  C_18
REMARK                            x       y       z     vdW  Elec       q    Type
REMARK                         _______ _______ _______ _____ _____    ______ ____
ROOT
ATOM      1  C   UNL     1       3.483   3.507  17.622  0.00  0.00    +0.000 C 
ATOM      2  C   UNL     1       2.286   2.867  17.664  0.00  0.00    +0.000 C 
ATOM      3  C   UNL     1       1.441   2.879  18.954  0.00  0.00    +0.000 C 
ATOM      4  O   UNL     1       0.432   2.206  19.096  0.00  0.00    +0.000 OA
ATOM      5  C   UNL     1       1.841   3.999  19.807  0.00  0.00    +0.000 A 
ATOM      6  C   UNL     1       1.143   5.078  20.393  0.00  0.00    +0.000 A 
ATOM      7  C   UNL     1       2.010   6.161  20.241  0.00  0.00    +0.000 A 
ATOM      8  O   UNL     1       3.283   5.720  19.972  0.00  0.00    +0.000 OA
ATOM      9  C   UNL     1       3.161   4.371  19.813  0.00  0.00    +0.000 A 
ATOM     10  C   UNL     1       4.083   3.612  19.004  0.00  0.00    +0.000 C 
ATOM     11  O   UNL     1       5.024   2.920  19.383  0.00  0.00    +0.000 OA
ENDROOT
BRANCH   7  12
ATOM     12  C   UNL     1       1.706   7.582  20.202  0.00  0.00    +0.000 C 
ATOM     13  C   UNL     1       1.178   8.253  21.450  0.00  0.00    +0.000 C 
ATOM     14  O   UNL     1       1.976   8.279  19.219  0.00  0.00    +0.000 OA
ENDBRANCH   7  12
BRANCH   1  15
ATOM     15  N   UNL     1       3.721   4.648  16.835  0.00  0.00    +0.000 N 
ATOM     16  H   UNL     1       3.002   5.355  17.023  0.00  0.00    +0.000 HD
BRANCH  15  22
ATOM     17  C   UNL     1       6.047   4.874  16.087  0.00  0.00    +0.000 A 
ATOM     18  C   UNL     1       7.312   5.446  16.235  0.00  0.00    +0.000 A 
ATOM     19  C   UNL     1       7.470   6.537  17.092  0.00  0.00    +0.000 A 
ATOM     20  C   UNL     1       6.363   7.089  17.741  0.00  0.00    +0.000 A 
ATOM     21  C   UNL     1       5.088   6.549  17.557  0.00  0.00    +0.000 A 
ATOM     22  C   UNL     1       4.921   5.409  16.770  0.00  0.00    +0.000 A 
BRANCH  17  24
ATOM     23  C   UNL     1       6.130   3.663  14.057  0.00  0.00    +0.000 C 
ATOM     24  O   UNL     1       5.947   3.643  15.475  0.00  0.00    +0.000 OA
ENDBRANCH  17  24
ENDBRANCH  15  22
ENDBRANCH   1  15
TORSDOF 4
ENDMDL
MODEL 8
REMARK VINA RESULT:      -7.4      1.537      1.911
REMARK  Name = 
REMARK  6 active torsions:
REMARK  status: ('A' for Active; 'I' for Inactive)
REMARK    1  A    between atoms: C_1  and  O_2
REMARK    2  A    between atoms: O_2  and  C_3
REMARK    3  A    between atoms: C_8  and  N_9
REMARK    4  A    between atoms: N_9  and  C_10
REMARK    5  A    between atoms: C_16  and  C_17
REMARK    6  A    between atoms: C_17  and  C_18
REMARK                            x       y       z     vdW  Elec       q    Type
REMARK                         _______ _______ _______ _____ _____    ______ ____
ROOT
ATOM      1  C   UNL     1       3.900   2.564  19.697  0.00  0.00    +0.000 C 
ATOM      2  C   UNL     1       3.050   1.996  18.802  0.00  0.00    +0.000 C 
ATOM      3  C   UNL     1       1.682   2.643  18.508  0.00  0.00    +0.000 C 
ATOM      4  O   UNL     1       0.823   2.105  17.826  0.00  0.00    +0.000 OA
ATOM      5  C   UNL     1       1.701   4.056  18.891  0.00  0.00    +0.000 A 
ATOM      6  C   UNL     1       1.424   5.257  18.203  0.00  0.00    +0.000 A 
ATOM      7  C   UNL     1       2.412   6.136  18.649  0.00  0.00    +0.000 A 
ATOM      8  O   UNL     1       2.984   5.664  19.805  0.00  0.00    +0.000 OA
ATOM      9  C   UNL     1       2.446   4.422  19.982  0.00  0.00    +0.000 A 
ATOM     10  C   UNL     1       3.140   3.388  20.709  0.00  0.00    +0.000 C 
ATOM     11  O   UNL     1       2.949   3.023  21.866  0.00  0.00    +0.000 OA
ENDROOT
BRANCH   7  12
ATOM     12  C   UNL     1       2.948   7.321  18.000  0.00  0.00    +0.000 C 
ATOM     13  C   UNL     1       2.064   8.538  17.851  0.00  0.00    +0.000 C 
ATOM     14  O   UNL     1       4.136   7.403  17.673  0.00  0.00    +0.000 OA
ENDBRANCH   7  12
BRANCH   1  15
ATOM     15  N   UNL     1       5.130   3.141  19.335  0.00  0.00    +0.000 N 
ATOM     16  H   UNL     1       5.893   2.483  19.528  0.00  0.00    +0.000 HD
BRANCH  15  22
ATOM     17  C   UNL     1       6.600   4.559  17.975  0.00  0.00    +0.000 A 
ATOM     18  C   UNL     1       6.812   5.331  16.832  0.00  0.00    +0.000 A 
ATOM     19  C   UNL     1       5.890   5.266  15.785  0.00  0.00    +0.000 A 
ATOM     20  C   UNL     1       4.805   4.389  15.857  0.00  0.00    +0.000 A 
ATOM     21  C   UNL     1       4.617   3.579  16.979  0.00  0.00    +0.000 A 
ATOM     22  C   UNL     1       5.481   3.688  18.069  0.00  0.00    +0.000 A 
BRANCH  17  24
ATOM     23  C   UNL     1       7.960   6.122  19.117  0.00  0.00    +0.000 C 
ATOM     24  O   UNL     1       7.343   4.833  19.104  0.00  0.00    +0.000 OA
ENDBRANCH  17  24
ENDBRANCH  15  22
ENDBRANCH   1  15
TORSDOF 4
ENDMDL
MODEL 9
REMARK VINA RESULT:      -7.3      1.571      1.719
REMARK  Name = 
REMARK  6 active torsions:
REMARK  status: ('A' for Active; 'I' for Inactive)
REMARK    1  A    between atoms: C_1  and  O_2
REMARK    2  A    between atoms: O_2  and  C_3
REMARK    3  A    between atoms: C_8  and  N_9
REMARK    4  A    between atoms: N_9  and  C_10
REMARK    5  A    between atoms: C_16  and  C_17
REMARK    6  A    between atoms: C_17  and  C_18
REMARK                            x       y       z     vdW  Elec       q    Type
REMARK                         _______ _______ _______ _____ _____    ______ ____
ROOT
ATOM      1  C   UNL     1       4.116   2.296  19.735  0.00  0.00    +0.000 C 
ATOM      2  C   UNL     1       3.260   1.867  18.771  0.00  0.00    +0.000 C 
ATOM      3  C   UNL     1       1.786   2.321  18.780  0.00  0.00    +0.000 C 
ATOM      4  O   UNL     1       0.942   1.859  18.028  0.00  0.00    +0.000 OA
ATOM      5  C   UNL     1       1.642   3.546  19.568  0.00  0.00    +0.000 A 
ATOM      6  C   UNL     1       1.113   4.826  19.295  0.00  0.00    +0.000 A 
ATOM      7  C   UNL     1       2.006   5.699  19.916  0.00  0.00    +0.000 A 
ATOM      8  O   UNL     1       2.773   5.024  20.834  0.00  0.00    +0.000 OA
ATOM      9  C   UNL     1       2.448   3.710  20.666  0.00  0.00    +0.000 A 
ATOM     10  C   UNL     1       3.367   2.649  20.997  0.00  0.00    +0.000 C 
ATOM     11  O   UNL     1       3.369   1.941  22.002  0.00  0.00    +0.000 OA
ENDROOT
BRANCH   7  12
ATOM     12  C   UNL     1       2.282   7.095  19.620  0.00  0.00    +0.000 C 
ATOM     13  C   UNL     1       2.740   7.472  18.229  0.00  0.00    +0.000 C 
ATOM     14  O   UNL     1       2.041   7.993  20.433  0.00  0.00    +0.000 OA
ENDBRANCH   7  12
BRANCH   1  15
ATOM     15  N   UNL     1       5.196   3.159  19.480  0.00  0.00    +0.000 N 
ATOM     16  H   UNL     1       6.078   2.635  19.527  0.00  0.00    +0.000 HD
BRANCH  15  22
ATOM     17  C   UNL     1       6.119   5.202  18.484  0.00  0.00    +0.000 A 
ATOM     18  C   UNL     1       6.083   6.184  17.492  0.00  0.00    +0.000 A 
ATOM     19  C   UNL     1       5.276   5.989  16.369  0.00  0.00    +0.000 A 
ATOM     20  C   UNL     1       4.566   4.796  16.213  0.00  0.00    +0.000 A 
ATOM     21  C   UNL     1       4.638   3.791  17.180  0.00  0.00    +0.000 A 
ATOM     22  C   UNL     1       5.374   3.999  18.347  0.00  0.00    +0.000 A 
BRANCH  17  24
ATOM     23  C   UNL     1       8.110   5.601  19.699  0.00  0.00    +0.000 C 
ATOM     24  O   UNL     1       6.682   5.516  19.702  0.00  0.00    +0.000 OA
ENDBRANCH  17  24
ENDBRANCH  15  22
ENDBRANCH   1  15
TORSDOF 4
ENDMDL
