MODEL 1
REMARK VINA RESULT:      -6.9      0.000      0.000
REMARK  Name = 
REMARK  6 active torsions:
REMARK  status: ('A' for Active; 'I' for Inactive)
REMARK    1  A    between atoms: C_2  and  S_3
REMARK    2  A    between atoms: C_2  and  O_4
REMARK    3  A    between atoms: O_4  and  C_5
REMARK    4  A    between atoms: C_5  and  C_6
REMARK    5  A    between atoms: C_6  and  C_7
REMARK    6  A    between atoms: C_6  and  C_13
REMARK                            x       y       z     vdW  Elec       q    Type
REMARK                         _______ _______ _______ _____ _____    ______ ____
ROOT
ATOM      1  C   UNL     1       3.154   6.243  19.215  0.00  0.00    +0.000 C 
ENDROOT
BRANCH   1   2
ATOM      2  C   UNL     1       2.351   7.544  19.088  0.00  0.00    +0.000 A 
ATOM      3  C   UNL     1       2.287   8.294  17.902  0.00  0.00    +0.000 A 
ATOM      4  C   UNL     1       1.600   9.509  17.850  0.00  0.00    +0.000 A 
ATOM      5  C   UNL     1       0.952   9.996  18.981  0.00  0.00    +0.000 A 
ATOM      6  C   UNL     1       0.994   9.267  20.167  0.00  0.00    +0.000 A 
ATOM      7  C   UNL     1       1.689   8.056  20.221  0.00  0.00    +0.000 A 
ENDBRANCH   1   2
BRANCH   1   8
ATOM      8  C   UNL     1       2.269   5.003  19.351  0.00  0.00    +0.000 A 
ATOM      9  C   UNL     1       1.912   4.521  20.620  0.00  0.00    +0.000 A 
ATOM     10  C   UNL     1       1.188   3.333  20.750  0.00  0.00    +0.000 A 
ATOM     11  C   UNL     1       0.813   2.613  19.618  0.00  0.00    +0.000 A 
ATOM     12  C   UNL     1       1.141   3.091  18.352  0.00  0.00    +0.000 A 
ATOM     13  C   UNL     1       1.854   4.284  18.218  0.00  0.00    +0.000 A 
ENDBRANCH   1   8
BRANCH   1  14
ATOM     14  C   UNL     1       4.179   5.963  18.085  0.00  0.00    +0.000 C 
BRANCH  14  15
ATOM     15  O   UNL     1       5.190   5.031  18.525  0.00  0.00    +0.000 OA
BRANCH  15  17
ATOM     16  S   UNL     1       7.575   5.770  19.086  0.00  0.00    +0.000 S 
ATOM     17  C   UNL     1       6.455   5.125  18.033  0.00  0.00    +0.000 C 
BRANCH  17  18
ATOM     18  S   UNL     1       6.902   4.611  16.420  0.00  0.00    +0.000 S 
ATOM     19  H   UNL     1       5.656   4.312  16.030  0.00  0.00    +0.000 HD
ENDBRANCH  17  18
ENDBRANCH  15  17
ENDBRANCH  14  15
ENDBRANCH   1  14
TORSDOF 6
ENDMDL
MODEL 2
REMARK VINA RESULT:      -6.9      0.589      1.537
REMARK  Name = 
REMARK  6 active torsions:
REMARK  status: ('A' for Active; 'I' for Inactive)
REMARK    1  A    between atoms: C_2  and  S_3
REMARK    2  A    between atoms: C_2  and  O_4
REMARK    3  A    between atoms: O_4  and  C_5
REMARK    4  A    between atoms: C_5  and  C_6
REMARK    5  A    between atoms: C_6  and  C_7
REMARK    6  A    between atoms: C_6  and  C_13
REMARK                            x       y       z     vdW  Elec       q    Type
REMARK                         _______ _______ _______ _____ _____    ______ ____
ROOT
ATOM      1  C   UNL     1       3.105   6.359  19.117  0.00  0.00    +0.000 C 
ENDROOT
BRANCH   1   2
ATOM      2  C   UNL     1       2.283   7.653  19.149  0.00  0.00    +0.000 A 
ATOM      3  C   UNL     1       1.658   8.138  20.310  0.00  0.00    +0.000 A 
ATOM      4  C   UNL     1       0.862   9.286  20.278  0.00  0.00    +0.000 A 
ATOM      5  C   UNL     1       0.681   9.979  19.085  0.00  0.00    +0.000 A 
ATOM      6  C   UNL     1       1.296   9.523  17.923  0.00  0.00    +0.000 A 
ATOM      7  C   UNL     1       2.086   8.370  17.952  0.00  0.00    +0.000 A 
ENDBRANCH   1   2
BRANCH   1   8
ATOM      8  C   UNL     1       2.247   5.100  19.258  0.00  0.00    +0.000 A 
ATOM      9  C   UNL     1       1.855   4.647  20.527  0.00  0.00    +0.000 A 
ATOM     10  C   UNL     1       1.157   3.444  20.666  0.00  0.00    +0.000 A 
ATOM     11  C   UNL     1       0.844   2.681  19.543  0.00  0.00    +0.000 A 
ATOM     12  C   UNL     1       1.207   3.130  18.276  0.00  0.00    +0.000 A 
ATOM     13  C   UNL     1       1.894   4.337  18.133  0.00  0.00    +0.000 A 
ENDBRANCH   1   8
BRANCH   1  14
ATOM     14  C   UNL     1       4.020   6.163  17.879  0.00  0.00    +0.000 C 
BRANCH  14  15
ATOM     15  O   UNL     1       5.289   5.592  18.262  0.00  0.00    +0.000 OA
BRANCH  15  17
ATOM     16  S   UNL     1       6.728   4.552  16.418  0.00  0.00    +0.000 S 
ATOM     17  C   UNL     1       6.383   5.792  17.478  0.00  0.00    +0.000 C 
BRANCH  17  18
ATOM     18  S   UNL     1       7.371   7.236  17.554  0.00  0.00    +0.000 S 
ATOM     19  H   UNL     1       8.085   6.962  16.454  0.00  0.00    +0.000 HD
ENDBRANCH  17  18
ENDBRANCH  15  17
ENDBRANCH  14  15
ENDBRANCH   1  14
TORSDOF 6
ENDMDL
MODEL 3
REMARK VINA RESULT:      -6.8      0.602      1.713
REMARK  Name = 
REMARK  6 active torsions:
REMARK  status: ('A' for Active; 'I' for Inactive)
REMARK    1  A    between atoms: C_2  and  S_3
REMARK    2  A    between atoms: C_2  and  O_4
REMARK    3  A    between atoms: O_4  and  C_5
REMARK    4  A    between atoms: C_5  and  C_6
REMARK    5  A    between atoms: C_6  and  C_7
REMARK    6  A    between atoms: C_6  and  C_13
REMARK                            x       y       z     vdW  Elec       q    Type
REMARK                         _______ _______ _______ _____ _____    ______ ____
ROOT
ATOM      1  C   UNL     1       3.216   6.324  19.045  0.00  0.00    +0.000 C 
ENDROOT
BRANCH   1   2
ATOM      2  C   UNL     1       2.349   7.587  19.110  0.00  0.00    +0.000 A 
ATOM      3  C   UNL     1       1.736   8.037  20.291  0.00  0.00    +0.000 A 
ATOM      4  C   UNL     1       0.898   9.156  20.291  0.00  0.00    +0.000 A 
ATOM      5  C   UNL     1       0.663   9.854  19.111  0.00  0.00    +0.000 A 
ATOM      6  C   UNL     1       1.266   9.432  17.929  0.00  0.00    +0.000 A 
ATOM      7  C   UNL     1       2.097   8.309  17.927  0.00  0.00    +0.000 A 
ENDBRANCH   1   2
BRANCH   1   8
ATOM      8  C   UNL     1       2.416   5.036  19.247  0.00  0.00    +0.000 A 
ATOM      9  C   UNL     1       1.996   4.280  18.142  0.00  0.00    +0.000 A 
ATOM     10  C   UNL     1       1.181   3.159  18.318  0.00  0.00    +0.000 A 
ATOM     11  C   UNL     1       0.775   2.781  19.596  0.00  0.00    +0.000 A 
ATOM     12  C   UNL     1       1.203   3.508  20.704  0.00  0.00    +0.000 A 
ATOM     13  C   UNL     1       2.027   4.622  20.532  0.00  0.00    +0.000 A 
ENDBRANCH   1   8
BRANCH   1  14
ATOM     14  C   UNL     1       4.067   6.147  17.759  0.00  0.00    +0.000 C 
BRANCH  14  15
ATOM     15  O   UNL     1       5.322   5.501  18.056  0.00  0.00    +0.000 OA
BRANCH  15  17
ATOM     16  S   UNL     1       7.277   7.067  17.530  0.00  0.00    +0.000 S 
ATOM     17  C   UNL     1       6.389   5.687  17.232  0.00  0.00    +0.000 C 
BRANCH  17  18
ATOM     18  S   UNL     1       6.823   4.576  15.951  0.00  0.00    +0.000 S 
ATOM     19  H   UNL     1       7.135   3.557  16.763  0.00  0.00    +0.000 HD
ENDBRANCH  17  18
ENDBRANCH  15  17
ENDBRANCH  14  15
ENDBRANCH   1  14
TORSDOF 6
ENDMDL
MODEL 4
REMARK VINA RESULT:      -6.7      1.330      4.481
REMARK  Name = 
REMARK  6 active torsions:
REMARK  status: ('A' for Active; 'I' for Inactive)
REMARK    1  A    between atoms: C_2  and  S_3
REMARK    2  A    between atoms: C_2  and  O_4
REMARK    3  A    between atoms: O_4  and  C_5
REMARK    4  A    between atoms: C_5  and  C_6
REMARK    5  A    between atoms: C_6  and  C_7
REMARK    6  A    between atoms: C_6  and  C_13
REMARK                            x       y       z     vdW  Elec       q    Type
REMARK                         _______ _______ _______ _____ _____    ______ ____
ROOT
ATOM      1  C   UNL     1       3.231   5.988  17.733  0.00  0.00    +0.000 C 
ENDROOT
BRANCH   1   2
ATOM      2  C   UNL     1       2.782   4.616  18.248  0.00  0.00    +0.000 A 
ATOM      3  C   UNL     1       1.507   4.081  18.000  0.00  0.00    +0.000 A 
ATOM      4  C   UNL     1       1.116   2.856  18.546  0.00  0.00    +0.000 A 
ATOM      5  C   UNL     1       1.995   2.134  19.346  0.00  0.00    +0.000 A 
ATOM      6  C   UNL     1       3.268   2.639  19.601  0.00  0.00    +0.000 A 
ATOM      7  C   UNL     1       3.657   3.867  19.061  0.00  0.00    +0.000 A 
ENDBRANCH   1   2
BRANCH   1   8
ATOM      8  C   UNL     1       2.563   7.152  18.466  0.00  0.00    +0.000 A 
ATOM      9  C   UNL     1       2.269   7.054  19.835  0.00  0.00    +0.000 A 
ATOM     10  C   UNL     1       1.569   8.074  20.485  0.00  0.00    +0.000 A 
ATOM     11  C   UNL     1       1.154   9.200  19.778  0.00  0.00    +0.000 A 
ATOM     12  C   UNL     1       1.458   9.322  18.425  0.00  0.00    +0.000 A 
ATOM     13  C   UNL     1       2.167   8.310  17.775  0.00  0.00    +0.000 A 
ENDBRANCH   1   8
BRANCH   1  14
ATOM     14  C   UNL     1       4.761   6.251  17.738  0.00  0.00    +0.000 C 
BRANCH  14  15
ATOM     15  O   UNL     1       5.312   6.115  16.411  0.00  0.00    +0.000 OA
BRANCH  15  17
ATOM     16  S   UNL     1       7.214   4.791  17.496  0.00  0.00    +0.000 S 
ATOM     17  C   UNL     1       6.280   5.189  16.173  0.00  0.00    +0.000 C 
BRANCH  17  18
ATOM     18  S   UNL     1       6.545   4.452  14.607  0.00  0.00    +0.000 S 
ATOM     19  H   UNL     1       6.819   3.231  15.084  0.00  0.00    +0.000 HD
ENDBRANCH  17  18
ENDBRANCH  15  17
ENDBRANCH  14  15
ENDBRANCH   1  14
TORSDOF 6
ENDMDL
MODEL 5
REMARK VINA RESULT:      -6.7      0.496      1.210
REMARK  Name = 
REMARK  6 active torsions:
REMARK  status: ('A' for Active; 'I' for Inactive)
REMARK    1  A    between atoms: C_2  and  S_3
REMARK    2  A    between atoms: C_2  and  O_4
REMARK    3  A    between atoms: O_4  and  C_5
REMARK    4  A    between atoms: C_5  and  C_6
REMARK    5  A    between atoms: C_6  and  C_7
REMARK    6  A    between atoms: C_6  and  C_13
REMARK                            x       y       z     vdW  Elec       q    Type
REMARK                         _______ _______ _______ _____ _____    ______ ____
ROOT
ATOM      1  C   UNL     1       3.314   6.121  18.994  0.00  0.00    +0.000 C 
ENDROOT
BRANCH   1   2
ATOM      2  C   UNL     1       2.477   7.405  18.960  0.00  0.00    +0.000 A 
ATOM      3  C   UNL     1       2.387   8.234  17.830  0.00  0.00    +0.000 A 
ATOM      4  C   UNL     1       1.667   9.431  17.865  0.00  0.00    +0.000 A 
ATOM      5  C   UNL     1       1.013   9.820  19.030  0.00  0.00    +0.000 A 
ATOM      6  C   UNL     1       1.080   9.011  20.161  0.00  0.00    +0.000 A 
ATOM      7  C   UNL     1       1.806   7.818  20.128  0.00  0.00    +0.000 A 
ENDBRANCH   1   2
BRANCH   1   8
ATOM      8  C   UNL     1       2.520   4.899  19.460  0.00  0.00    +0.000 A 
ATOM      9  C   UNL     1       1.689   4.209  18.565  0.00  0.00    +0.000 A 
ATOM     10  C   UNL     1       0.886   3.155  19.011  0.00  0.00    +0.000 A 
ATOM     11  C   UNL     1       0.904   2.780  20.353  0.00  0.00    +0.000 A 
ATOM     12  C   UNL     1       1.741   3.441  21.247  0.00  0.00    +0.000 A 
ATOM     13  C   UNL     1       2.552   4.486  20.803  0.00  0.00    +0.000 A 
ENDBRANCH   1   8
BRANCH   1  14
ATOM     14  C   UNL     1       4.025   5.737  17.669  0.00  0.00    +0.000 C 
BRANCH  14  15
ATOM     15  O   UNL     1       5.098   4.803  17.911  0.00  0.00    +0.000 OA
BRANCH  15  17
ATOM     16  S   UNL     1       7.383   5.758  18.557  0.00  0.00    +0.000 S 
ATOM     17  C   UNL     1       6.347   5.073  17.444  0.00  0.00    +0.000 C 
BRANCH  17  18
ATOM     18  S   UNL     1       6.857   4.733  15.804  0.00  0.00    +0.000 S 
ATOM     19  H   UNL     1       8.068   5.293  15.926  0.00  0.00    +0.000 HD
ENDBRANCH  17  18
ENDBRANCH  15  17
ENDBRANCH  14  15
ENDBRANCH   1  14
TORSDOF 6
ENDMDL
MODEL 6
REMARK VINA RESULT:      -6.7      1.295      4.563
REMARK  Name = 
REMARK  6 active torsions:
REMARK  status: ('A' for Active; 'I' for Inactive)
REMARK    1  A    between atoms: C_2  and  S_3
REMARK    2  A    between atoms: C_2  and  O_4
REMARK    3  A    between atoms: O_4  and  C_5
REMARK    4  A    between atoms: C_5  and  C_6
REMARK    5  A    between atoms: C_6  and  C_7
REMARK    6  A    between atoms: C_6  and  C_13
REMARK                            x       y       z     vdW  Elec       q    Type
REMARK                         _______ _______ _______ _____ _____    ______ ____
ROOT
ATOM      1  C   UNL     1       3.183   6.008  17.745  0.00  0.00    +0.000 C 
ENDROOT
BRANCH   1   2
ATOM      2  C   UNL     1       2.748   4.636  18.273  0.00  0.00    +0.000 A 
ATOM      3  C   UNL     1       1.489   4.073  18.005  0.00  0.00    +0.000 A 
ATOM      4  C   UNL     1       1.109   2.850  18.564  0.00  0.00    +0.000 A 
ATOM      5  C   UNL     1       1.983   2.159  19.396  0.00  0.00    +0.000 A 
ATOM      6  C   UNL     1       3.239   2.692  19.671  0.00  0.00    +0.000 A 
ATOM      7  C   UNL     1       3.618   3.918  19.119  0.00  0.00    +0.000 A 
ENDBRANCH   1   2
BRANCH   1   8
ATOM      8  C   UNL     1       2.523   7.173  18.485  0.00  0.00    +0.000 A 
ATOM      9  C   UNL     1       2.243   7.075  19.856  0.00  0.00    +0.000 A 
ATOM     10  C   UNL     1       1.551   8.096  20.513  0.00  0.00    +0.000 A 
ATOM     11  C   UNL     1       1.130   9.223  19.810  0.00  0.00    +0.000 A 
ATOM     12  C   UNL     1       1.421   9.343  18.454  0.00  0.00    +0.000 A 
ATOM     13  C   UNL     1       2.122   8.331  17.797  0.00  0.00    +0.000 A 
ENDBRANCH   1   8
BRANCH   1  14
ATOM     14  C   UNL     1       4.712   6.276  17.722  0.00  0.00    +0.000 C 
BRANCH  14  15
ATOM     15  O   UNL     1       5.265   5.997  16.419  0.00  0.00    +0.000 OA
BRANCH  15  17
ATOM     16  S   UNL     1       6.722   4.701  14.762  0.00  0.00    +0.000 S 
ATOM     17  C   UNL     1       6.375   5.218  16.309  0.00  0.00    +0.000 C 
BRANCH  17  18
ATOM     18  S   UNL     1       7.384   4.780  17.671  0.00  0.00    +0.000 S 
ATOM     19  H   UNL     1       7.436   6.012  18.195  0.00  0.00    +0.000 HD
ENDBRANCH  17  18
ENDBRANCH  15  17
ENDBRANCH  14  15
ENDBRANCH   1  14
TORSDOF 6
ENDMDL
MODEL 7
REMARK VINA RESULT:      -6.7      0.496      1.109
REMARK  Name = 
REMARK  6 active torsions:
REMARK  status: ('A' for Active; 'I' for Inactive)
REMARK    1  A    between atoms: C_2  and  S_3
REMARK    2  A    between atoms: C_2  and  O_4
REMARK    3  A    between atoms: O_4  and  C_5
REMARK    4  A    between atoms: C_5  and  C_6
REMARK    5  A    between atoms: C_6  and  C_7
REMARK    6  A    between atoms: C_6  and  C_13
REMARK                            x       y       z     vdW  Elec       q    Type
REMARK                         _______ _______ _______ _____ _____    ______ ____
ROOT
ATOM      1  C   UNL     1       3.220   6.198  18.985  0.00  0.00    +0.000 C 
ENDROOT
BRANCH   1   2
ATOM      2  C   UNL     1       2.414   7.502  18.956  0.00  0.00    +0.000 A 
ATOM      3  C   UNL     1       2.327   8.327  17.822  0.00  0.00    +0.000 A 
ATOM      4  C   UNL     1       1.637   9.541  17.862  0.00  0.00    +0.000 A 
ATOM      5  C   UNL     1       1.012   9.954  19.034  0.00  0.00    +0.000 A 
ATOM      6  C   UNL     1       1.077   9.150  20.169  0.00  0.00    +0.000 A 
ATOM      7  C   UNL     1       1.773   7.939  20.132  0.00  0.00    +0.000 A 
ENDBRANCH   1   2
BRANCH   1   8
ATOM      8  C   UNL     1       2.372   4.977  19.347  0.00  0.00    +0.000 A 
ATOM      9  C   UNL     1       2.268   4.556  20.682  0.00  0.00    +0.000 A 
ATOM     10  C   UNL     1       1.577   3.385  21.004  0.00  0.00    +0.000 A 
ATOM     11  C   UNL     1       0.986   2.621  20.001  0.00  0.00    +0.000 A 
ATOM     12  C   UNL     1       1.062   3.038  18.675  0.00  0.00    +0.000 A 
ATOM     13  C   UNL     1       1.741   4.214  18.351  0.00  0.00    +0.000 A 
ENDBRANCH   1   8
BRANCH   1  14
ATOM     14  C   UNL     1       4.004   5.853  17.690  0.00  0.00    +0.000 C 
BRANCH  14  15
ATOM     15  O   UNL     1       5.299   6.490  17.687  0.00  0.00    +0.000 OA
BRANCH  15  17
ATOM     16  S   UNL     1       6.634   4.717  16.413  0.00  0.00    +0.000 S 
ATOM     17  C   UNL     1       6.426   5.729  17.722  0.00  0.00    +0.000 C 
BRANCH  17  18
ATOM     18  S   UNL     1       7.589   5.789  19.029  0.00  0.00    +0.000 S 
ATOM     19  H   UNL     1       8.450   4.925  18.475  0.00  0.00    +0.000 HD
ENDBRANCH  17  18
ENDBRANCH  15  17
ENDBRANCH  14  15
ENDBRANCH   1  14
TORSDOF 6
ENDMDL
MODEL 8
REMARK VINA RESULT:      -6.7      1.376      4.647
REMARK  Name = 
REMARK  6 active torsions:
REMARK  status: ('A' for Active; 'I' for Inactive)
REMARK    1  A    between atoms: C_2  and  S_3
REMARK    2  A    between atoms: C_2  and  O_4
REMARK    3  A    between atoms: O_4  and  C_5
REMARK    4  A    between atoms: C_5  and  C_6
REMARK    5  A    between atoms: C_6  and  C_7
REMARK    6  A    between atoms: C_6  and  C_13
REMARK                            x       y       z     vdW  Elec       q    Type
REMARK                         _______ _______ _______ _____ _____    ______ ____
ROOT
ATOM      1  C   UNL     1       3.341   5.897  17.717  0.00  0.00    +0.000 C 
ENDROOT
BRANCH   1   2
ATOM      2  C   UNL     1       2.874   4.498  18.138  0.00  0.00    +0.000 A 
ATOM      3  C   UNL     1       1.544   4.064  18.015  0.00  0.00    +0.000 A 
ATOM      4  C   UNL     1       1.148   2.805  18.474  0.00  0.00    +0.000 A 
ATOM      5  C   UNL     1       2.076   1.949  19.058  0.00  0.00    +0.000 A 
ATOM      6  C   UNL     1       3.403   2.354  19.184  0.00  0.00    +0.000 A 
ATOM      7  C   UNL     1       3.797   3.616  18.733  0.00  0.00    +0.000 A 
ENDBRANCH   1   2
BRANCH   1   8
ATOM      8  C   UNL     1       2.558   7.021  18.398  0.00  0.00    +0.000 A 
ATOM      9  C   UNL     1       2.160   8.151  17.668  0.00  0.00    +0.000 A 
ATOM     10  C   UNL     1       1.532   9.224  18.307  0.00  0.00    +0.000 A 
ATOM     11  C   UNL     1       1.296   9.181  19.679  0.00  0.00    +0.000 A 
ATOM     12  C   UNL     1       1.665   8.056  20.412  0.00  0.00    +0.000 A 
ATOM     13  C   UNL     1       2.282   6.979  19.774  0.00  0.00    +0.000 A 
ENDBRANCH   1   8
BRANCH   1  14
ATOM     14  C   UNL     1       4.852   6.198  17.912  0.00  0.00    +0.000 C 
BRANCH  14  15
ATOM     15  O   UNL     1       5.537   6.234  16.643  0.00  0.00    +0.000 OA
BRANCH  15  17
ATOM     16  S   UNL     1       7.362   4.735  17.628  0.00  0.00    +0.000 S 
ATOM     17  C   UNL     1       6.449   5.271  16.340  0.00  0.00    +0.000 C 
BRANCH  17  18
ATOM     18  S   UNL     1       6.665   4.621  14.728  0.00  0.00    +0.000 S 
ATOM     19  H   UNL     1       7.999   4.740  14.719  0.00  0.00    +0.000 HD
ENDBRANCH  17  18
ENDBRANCH  15  17
ENDBRANCH  14  15
ENDBRANCH   1  14
TORSDOF 6
ENDMDL
MODEL 9
REMARK VINA RESULT:      -6.7      0.588      1.969
REMARK  Name = 
REMARK  6 active torsions:
REMARK  status: ('A' for Active; 'I' for Inactive)
REMARK    1  A    between atoms: C_2  and  S_3
REMARK    2  A    between atoms: C_2  and  O_4
REMARK    3  A    between atoms: O_4  and  C_5
REMARK    4  A    between atoms: C_5  and  C_6
REMARK    5  A    between atoms: C_6  and  C_7
REMARK    6  A    between atoms: C_6  and  C_13
REMARK                            x       y       z     vdW  Elec       q    Type
REMARK                         _______ _______ _______ _____ _____    ______ ____
ROOT
ATOM      1  C   UNL     1       3.371   5.974  19.027  0.00  0.00    +0.000 C 
ENDROOT
BRANCH   1   2
ATOM      2  C   UNL     1       2.575   7.284  19.054  0.00  0.00    +0.000 A 
ATOM      3  C   UNL     1       1.883   7.739  20.189  0.00  0.00    +0.000 A 
ATOM      4  C   UNL     1       1.114   8.905  20.149  0.00  0.00    +0.000 A 
ATOM      5  C   UNL     1       1.026   9.646  18.975  0.00  0.00    +0.000 A 
ATOM      6  C   UNL     1       1.708   9.219  17.838  0.00  0.00    +0.000 A 
ATOM      7  C   UNL     1       2.472   8.050  17.876  0.00  0.00    +0.000 A 
ENDBRANCH   1   2
BRANCH   1   8
ATOM      8  C   UNL     1       2.602   4.792  19.620  0.00  0.00    +0.000 A 
ATOM      9  C   UNL     1       1.649   4.108  18.852  0.00  0.00    +0.000 A 
ATOM     10  C   UNL     1       0.874   3.093  19.422  0.00  0.00    +0.000 A 
ATOM     11  C   UNL     1       1.041   2.753  20.762  0.00  0.00    +0.000 A 
ATOM     12  C   UNL     1       2.000   3.408  21.530  0.00  0.00    +0.000 A 
ATOM     13  C   UNL     1       2.783   4.413  20.961  0.00  0.00    +0.000 A 
ENDBRANCH   1   8
BRANCH   1  14
ATOM     14  C   UNL     1       3.907   5.531  17.639  0.00  0.00    +0.000 C 
BRANCH  14  15
ATOM     15  O   UNL     1       4.971   4.566  17.781  0.00  0.00    +0.000 OA
BRANCH  15  17
ATOM     16  S   UNL     1       6.863   4.672  16.061  0.00  0.00    +0.000 S 
ATOM     17  C   UNL     1       6.262   4.952  17.592  0.00  0.00    +0.000 C 
BRANCH  17  18
ATOM     18  S   UNL     1       7.241   5.691  18.841  0.00  0.00    +0.000 S 
ATOM     19  H   UNL     1       6.815   6.941  18.615  0.00  0.00    +0.000 HD
ENDBRANCH  17  18
ENDBRANCH  15  17
ENDBRANCH  14  15
ENDBRANCH   1  14
TORSDOF 6
ENDMDL
