MODEL 1
REMARK VINA RESULT:      -9.9      0.000      0.000
REMARK  Name = 
REMARK  9 active torsions:
REMARK  status: ('A' for Active; 'I' for Inactive)
REMARK    1  A    between atoms: C_1  and  C_2
REMARK    2  A    between atoms: C_2  and  C_3
REMARK    3  A    between atoms: C_3  and  C_4
REMARK    4  A    between atoms: N_6  and  C_7
REMARK    5  A    between atoms: N_6  and  S_29
REMARK    6  A    between atoms: C_10  and  N_11
REMARK    7  A    between atoms: N_11  and  C_12
REMARK    8  A    between atoms: C_22  and  N_23
REMARK    9  A    between atoms: S_29  and  C_30
REMARK                            x       y       z     vdW  Elec       q    Type
REMARK                         _______ _______ _______ _____ _____    ______ ____
ROOT
ATOM      1  N   UNL     1       3.223   6.138  18.751  0.00  0.00    +0.000 N 
ATOM      2  H   UNL     1       3.102   5.763  19.683  0.00  0.00    +0.000 HD
ENDROOT
BRANCH   1   3
ATOM      3  C   UNL     1       4.185   5.480  17.807  0.00  0.00    +0.000 A 
ATOM      4  C   UNL     1       5.462   6.025  17.991  0.00  0.00    +0.000 A 
ATOM      5  C   UNL     1       5.876   7.135  17.278  0.00  0.00    +0.000 A 
ATOM      6  C   UNL     1       7.159   7.623  17.450  0.00  0.00    +0.000 A 
ATOM      7  C   UNL     1       8.056   6.962  18.301  0.00  0.00    +0.000 A 
ATOM      8  C   UNL     1       7.639   5.846  19.063  0.00  0.00    +0.000 A 
ATOM      9  C   UNL     1       6.313   5.389  18.942  0.00  0.00    +0.000 A 
ATOM     10  N   UNL     1       5.717   4.408  19.736  0.00  0.00    +0.000 NA
ATOM     11  C   UNL     1       4.571   3.822  19.225  0.00  0.00    +0.000 A 
ATOM     12  C   UNL     1       3.345   3.425  19.956  0.00  0.00    +0.000 A 
ATOM     13  C   UNL     1       2.140   3.103  19.174  0.00  0.00    +0.000 A 
ATOM     14  C   UNL     1       2.564   2.391  18.081  0.00  0.00    +0.000 A 
ATOM     15  C   UNL     1       3.604   2.937  17.352  0.00  0.00    +0.000 A 
ATOM     16  C   UNL     1       4.395   4.003  17.880  0.00  0.00    +0.000 A 
BRANCH  13  17
ATOM     17  N   UNL     1       1.428   4.234  18.528  0.00  0.00    +0.000 N 
ATOM     18  H   UNL     1       0.820   4.098  17.702  0.00  0.00    +0.000 HD
ATOM     19  H   UNL     1       1.280   5.141  18.972  0.00  0.00    +0.000 HD
ENDBRANCH  13  17
ENDBRANCH   1   3
BRANCH   1  23
ATOM     20  C   UNL     1       0.941   9.755  19.065  0.00  0.00    +0.000 A 
ATOM     21  C   UNL     1       1.029   8.893  20.170  0.00  0.00    +0.000 A 
ATOM     22  C   UNL     1       1.793   7.716  20.045  0.00  0.00    +0.000 A 
ATOM     23  C   UNL     1       2.457   7.372  18.819  0.00  0.00    +0.000 A 
ATOM     24  C   UNL     1       2.348   8.289  17.771  0.00  0.00    +0.000 A 
ATOM     25  C   UNL     1       1.614   9.445  17.901  0.00  0.00    +0.000 A 
BRANCH  20  28
ATOM     26  C   UNL     1      -0.891  11.171  18.365  0.00  0.00    +0.000 C 
ATOM     27  O   UNL     1      -1.354  12.289  18.238  0.00  0.00    +0.000 OA
ATOM     28  N   UNL     1       0.244  10.981  19.111  0.00  0.00    +0.000 N 
BRANCH  28  29
ATOM     29  S   UNL     1       1.197  12.372  19.621  0.00  0.00    +0.000 S 
ATOM     30  C   UNL     1       2.470  12.859  18.419  0.00  0.00    +0.000 C 
ATOM     31  O   UNL     1       0.197  13.464  20.045  0.00  0.00    +0.000 OA
ATOM     32  O   UNL     1       1.817  11.948  20.965  0.00  0.00    +0.000 OA
ENDBRANCH  28  29
BRANCH  26  33
ATOM     33  C   UNL     1      -1.614  10.018  17.660  0.00  0.00    +0.000 C 
BRANCH  33  35
ATOM     34  C   UNL     1      -2.834  10.014  15.438  0.00  0.00    +0.000 C 
ATOM     35  C   UNL     1      -2.846  10.517  16.885  0.00  0.00    +0.000 C 
ENDBRANCH  33  35
ENDBRANCH  26  33
ENDBRANCH  20  28
ENDBRANCH   1  23
TORSDOF 7
ENDMDL
MODEL 2
REMARK VINA RESULT:      -9.7      0.643      1.137
REMARK  Name = 
REMARK  9 active torsions:
REMARK  status: ('A' for Active; 'I' for Inactive)
REMARK    1  A    between atoms: C_1  and  C_2
REMARK    2  A    between atoms: C_2  and  C_3
REMARK    3  A    between atoms: C_3  and  C_4
REMARK    4  A    between atoms: N_6  and  C_7
REMARK    5  A    between atoms: N_6  and  S_29
REMARK    6  A    between atoms: C_10  and  N_11
REMARK    7  A    between atoms: N_11  and  C_12
REMARK    8  A    between atoms: C_22  and  N_23
REMARK    9  A    between atoms: S_29  and  C_30
REMARK                            x       y       z     vdW  Elec       q    Type
REMARK                         _______ _______ _______ _____ _____    ______ ____
ROOT
ATOM      1  N   UNL     1       3.162   6.088  18.836  0.00  0.00    +0.000 N 
ATOM      2  H   UNL     1       3.032   5.697  19.760  0.00  0.00    +0.000 HD
ENDROOT
BRANCH   1   3
ATOM      3  C   UNL     1       4.108   5.426  17.878  0.00  0.00    +0.000 A 
ATOM      4  C   UNL     1       5.387   5.976  18.033  0.00  0.00    +0.000 A 
ATOM      5  C   UNL     1       5.783   7.082  17.304  0.00  0.00    +0.000 A 
ATOM      6  C   UNL     1       7.067   7.575  17.447  0.00  0.00    +0.000 A 
ATOM      7  C   UNL     1       7.983   6.923  18.285  0.00  0.00    +0.000 A 
ATOM      8  C   UNL     1       7.585   5.812  19.064  0.00  0.00    +0.000 A 
ATOM      9  C   UNL     1       6.258   5.350  18.972  0.00  0.00    +0.000 A 
ATOM     10  N   UNL     1       5.681   4.373  19.785  0.00  0.00    +0.000 NA
ATOM     11  C   UNL     1       4.527   3.779  19.301  0.00  0.00    +0.000 A 
ATOM     12  C   UNL     1       3.317   3.384  20.058  0.00  0.00    +0.000 A 
ATOM     13  C   UNL     1       2.098   3.052  19.303  0.00  0.00    +0.000 A 
ATOM     14  C   UNL     1       2.503   2.333  18.207  0.00  0.00    +0.000 A 
ATOM     15  C   UNL     1       3.526   2.877  17.454  0.00  0.00    +0.000 A 
ATOM     16  C   UNL     1       4.325   3.950  17.958  0.00  0.00    +0.000 A 
BRANCH  13  17
ATOM     17  N   UNL     1       1.370   4.176  18.663  0.00  0.00    +0.000 N 
ATOM     18  H   UNL     1       1.383   5.132  19.057  0.00  0.00    +0.000 HD
ATOM     19  H   UNL     1       1.030   4.159  17.701  0.00  0.00    +0.000 HD
ENDBRANCH  13  17
ENDBRANCH   1   3
BRANCH   1  23
ATOM     20  C   UNL     1       1.009   9.792  18.995  0.00  0.00    +0.000 A 
ATOM     21  C   UNL     1       1.606   9.389  17.789  0.00  0.00    +0.000 A 
ATOM     22  C   UNL     1       2.299   8.163  17.760  0.00  0.00    +0.000 A 
ATOM     23  C   UNL     1       2.426   7.338  18.929  0.00  0.00    +0.000 A 
ATOM     24  C   UNL     1       1.785   7.789  20.084  0.00  0.00    +0.000 A 
ATOM     25  C   UNL     1       1.095   8.979  20.106  0.00  0.00    +0.000 A 
BRANCH  20  28
ATOM     26  C   UNL     1      -0.933  11.119  18.428  0.00  0.00    +0.000 C 
ATOM     27  O   UNL     1      -1.462  12.212  18.353  0.00  0.00    +0.000 OA
ATOM     28  N   UNL     1       0.250  10.977  19.108  0.00  0.00    +0.000 N 
BRANCH  28  29
ATOM     29  S   UNL     1       1.153  12.407  19.600  0.00  0.00    +0.000 S 
ATOM     30  C   UNL     1       0.223  13.956  19.401  0.00  0.00    +0.000 C 
ATOM     31  O   UNL     1       1.713  12.117  21.006  0.00  0.00    +0.000 OA
ATOM     32  O   UNL     1       2.420  12.388  18.726  0.00  0.00    +0.000 OA
ENDBRANCH  28  29
BRANCH  26  33
ATOM     33  C   UNL     1      -1.629   9.944  17.735  0.00  0.00    +0.000 C 
BRANCH  33  35
ATOM     34  C   UNL     1      -2.768  10.171  15.482  0.00  0.00    +0.000 C 
ATOM     35  C   UNL     1      -2.896  10.400  16.991  0.00  0.00    +0.000 C 
ENDBRANCH  33  35
ENDBRANCH  26  33
ENDBRANCH  20  28
ENDBRANCH   1  23
TORSDOF 7
ENDMDL
MODEL 3
REMARK VINA RESULT:      -9.5      1.221      3.553
REMARK  Name = 
REMARK  9 active torsions:
REMARK  status: ('A' for Active; 'I' for Inactive)
REMARK    1  A    between atoms: C_1  and  C_2
REMARK    2  A    between atoms: C_2  and  C_3
REMARK    3  A    between atoms: C_3  and  C_4
REMARK    4  A    between atoms: N_6  and  C_7
REMARK    5  A    between atoms: N_6  and  S_29
REMARK    6  A    between atoms: C_10  and  N_11
REMARK    7  A    between atoms: N_11  and  C_12
REMARK    8  A    between atoms: C_22  and  N_23
REMARK    9  A    between atoms: S_29  and  C_30
REMARK                            x       y       z     vdW  Elec       q    Type
REMARK                         _______ _______ _______ _____ _____    ______ ____
ROOT
ATOM      1  N   UNL     1       3.494   6.452  18.439  0.00  0.00    +0.000 N 
ATOM      2  H   UNL     1       3.544   6.442  17.428  0.00  0.00    +0.000 HD
ENDROOT
BRANCH   1   3
ATOM      3  C   UNL     1       4.105   5.327  19.221  0.00  0.00    +0.000 A 
ATOM      4  C   UNL     1       3.103   4.422  19.594  0.00  0.00    +0.000 A 
ATOM      5  C   UNL     1       2.413   4.570  20.783  0.00  0.00    +0.000 A 
ATOM      6  C   UNL     1       1.459   3.636  21.144  0.00  0.00    +0.000 A 
ATOM      7  C   UNL     1       1.233   2.511  20.337  0.00  0.00    +0.000 A 
ATOM      8  C   UNL     1       1.906   2.362  19.102  0.00  0.00    +0.000 A 
ATOM      9  C   UNL     1       2.827   3.348  18.699  0.00  0.00    +0.000 A 
ATOM     10  N   UNL     1       3.446   3.418  17.450  0.00  0.00    +0.000 NA
ATOM     11  C   UNL     1       4.588   4.197  17.376  0.00  0.00    +0.000 A 
ATOM     12  C   UNL     1       5.013   5.093  16.277  0.00  0.00    +0.000 A 
ATOM     13  C   UNL     1       6.100   6.052  16.537  0.00  0.00    +0.000 A 
ATOM     14  C   UNL     1       7.029   5.389  17.298  0.00  0.00    +0.000 A 
ATOM     15  C   UNL     1       6.555   4.726  18.414  0.00  0.00    +0.000 A 
ATOM     16  C   UNL     1       5.159   4.477  18.589  0.00  0.00    +0.000 A 
BRANCH  13  17
ATOM     17  N   UNL     1       5.786   7.214  17.406  0.00  0.00    +0.000 N 
ATOM     18  H   UNL     1       4.910   7.754  17.302  0.00  0.00    +0.000 HD
ATOM     19  H   UNL     1       6.256   7.406  18.290  0.00  0.00    +0.000 HD
ENDBRANCH  13  17
ENDBRANCH   1   3
BRANCH   1  23
ATOM     20  C   UNL     1       0.915   9.819  19.066  0.00  0.00    +0.000 A 
ATOM     21  C   UNL     1       1.597   9.687  17.845  0.00  0.00    +0.000 A 
ATOM     22  C   UNL     1       2.432   8.567  17.661  0.00  0.00    +0.000 A 
ATOM     23  C   UNL     1       2.613   7.581  18.689  0.00  0.00    +0.000 A 
ATOM     24  C   UNL     1       1.882   7.763  19.864  0.00  0.00    +0.000 A 
ATOM     25  C   UNL     1       1.056   8.850  20.037  0.00  0.00    +0.000 A 
BRANCH  20  28
ATOM     26  C   UNL     1      -1.144  11.003  18.606  0.00  0.00    +0.000 C 
ATOM     27  O   UNL     1      -1.795  12.029  18.677  0.00  0.00    +0.000 OA
ATOM     28  N   UNL     1       0.017  10.878  19.324  0.00  0.00    +0.000 N 
BRANCH  28  29
ATOM     29  S   UNL     1       0.724  12.294  20.096  0.00  0.00    +0.000 S 
ATOM     30  C   UNL     1       1.644  13.363  18.950  0.00  0.00    +0.000 C 
ATOM     31  O   UNL     1      -0.400  12.963  20.909  0.00  0.00    +0.000 OA
ATOM     32  O   UNL     1       1.636  11.723  21.197  0.00  0.00    +0.000 OA
ENDBRANCH  28  29
BRANCH  26  33
ATOM     33  C   UNL     1      -1.667   9.892  17.689  0.00  0.00    +0.000 C 
BRANCH  33  35
ATOM     34  C   UNL     1      -2.806  10.586  15.533  0.00  0.00    +0.000 C 
ATOM     35  C   UNL     1      -2.996  10.291  17.023  0.00  0.00    +0.000 C 
ENDBRANCH  33  35
ENDBRANCH  26  33
ENDBRANCH  20  28
ENDBRANCH   1  23
TORSDOF 7
ENDMDL
MODEL 4
REMARK VINA RESULT:      -9.3      1.380      3.630
REMARK  Name = 
REMARK  9 active torsions:
REMARK  status: ('A' for Active; 'I' for Inactive)
REMARK    1  A    between atoms: C_1  and  C_2
REMARK    2  A    between atoms: C_2  and  C_3
REMARK    3  A    between atoms: C_3  and  C_4
REMARK    4  A    between atoms: N_6  and  C_7
REMARK    5  A    between atoms: N_6  and  S_29
REMARK    6  A    between atoms: C_10  and  N_11
REMARK    7  A    between atoms: N_11  and  C_12
REMARK    8  A    between atoms: C_22  and  N_23
REMARK    9  A    between atoms: S_29  and  C_30
REMARK                            x       y       z     vdW  Elec       q    Type
REMARK                         _______ _______ _______ _____ _____    ______ ____
ROOT
ATOM      1  N   UNL     1       3.451   6.651  18.372  0.00  0.00    +0.000 N 
ATOM      2  H   UNL     1       3.692   6.809  17.402  0.00  0.00    +0.000 HD
ENDROOT
BRANCH   1   3
ATOM      3  C   UNL     1       3.924   5.403  19.058  0.00  0.00    +0.000 A 
ATOM      4  C   UNL     1       2.836   4.544  19.262  0.00  0.00    +0.000 A 
ATOM      5  C   UNL     1       2.075   4.616  20.414  0.00  0.00    +0.000 A 
ATOM      6  C   UNL     1       1.035   3.725  20.607  0.00  0.00    +0.000 A 
ATOM      7  C   UNL     1       0.788   2.716  19.665  0.00  0.00    +0.000 A 
ATOM      8  C   UNL     1       1.534   2.649  18.465  0.00  0.00    +0.000 A 
ATOM      9  C   UNL     1       2.549   3.598  18.236  0.00  0.00    +0.000 A 
ATOM     10  N   UNL     1       3.258   3.755  17.044  0.00  0.00    +0.000 NA
ATOM     11  C   UNL     1       4.455   4.446  17.131  0.00  0.00    +0.000 A 
ATOM     12  C   UNL     1       5.019   5.420  16.169  0.00  0.00    +0.000 A 
ATOM     13  C   UNL     1       6.150   6.257  16.604  0.00  0.00    +0.000 A 
ATOM     14  C   UNL     1       6.974   5.445  17.341  0.00  0.00    +0.000 A 
ATOM     15  C   UNL     1       6.376   4.704  18.343  0.00  0.00    +0.000 A 
ATOM     16  C   UNL     1       4.957   4.548  18.401  0.00  0.00    +0.000 A 
BRANCH  13  17
ATOM     17  N   UNL     1       5.857   7.339  17.577  0.00  0.00    +0.000 N 
ATOM     18  H   UNL     1       5.322   7.164  18.445  0.00  0.00    +0.000 HD
ATOM     19  H   UNL     1       6.350   8.232  17.600  0.00  0.00    +0.000 HD
ENDBRANCH  13  17
ENDBRANCH   1   3
BRANCH   1  23
ATOM     20  C   UNL     1       0.682   9.804  19.253  0.00  0.00    +0.000 A 
ATOM     21  C   UNL     1       0.974   8.844  20.235  0.00  0.00    +0.000 A 
ATOM     22  C   UNL     1       1.894   7.823  19.924  0.00  0.00    +0.000 A 
ATOM     23  C   UNL     1       2.516   7.733  18.633  0.00  0.00    +0.000 A 
ATOM     24  C   UNL     1       2.199   8.737  17.716  0.00  0.00    +0.000 A 
ATOM     25  C   UNL     1       1.312   9.741  18.027  0.00  0.00    +0.000 A 
BRANCH  20  28
ATOM     26  C   UNL     1      -1.335  11.043  18.757  0.00  0.00    +0.000 C 
ATOM     27  O   UNL     1      -1.955  12.089  18.809  0.00  0.00    +0.000 OA
ATOM     28  N   UNL     1      -0.185  10.892  19.488  0.00  0.00    +0.000 N 
BRANCH  28  29
ATOM     29  S   UNL     1       0.556  12.297  20.250  0.00  0.00    +0.000 S 
ATOM     30  C   UNL     1      -0.593  13.253  21.283  0.00  0.00    +0.000 C 
ATOM     31  O   UNL     1       1.846  11.803  20.933  0.00  0.00    +0.000 OA
ATOM     32  O   UNL     1       1.100  13.135  19.078  0.00  0.00    +0.000 OA
ENDBRANCH  28  29
BRANCH  26  33
ATOM     33  C   UNL     1      -1.882   9.937  17.848  0.00  0.00    +0.000 C 
BRANCH  33  35
ATOM     34  C   UNL     1      -2.881   9.849  15.520  0.00  0.00    +0.000 C 
ATOM     35  C   UNL     1      -2.986  10.468  16.917  0.00  0.00    +0.000 C 
ENDBRANCH  33  35
ENDBRANCH  26  33
ENDBRANCH  20  28
ENDBRANCH   1  23
TORSDOF 7
ENDMDL
MODEL 5
REMARK VINA RESULT:      -9.2      0.936      1.375
REMARK  Name = 
REMARK  9 active torsions:
REMARK  status: ('A' for Active; 'I' for Inactive)
REMARK    1  A    between atoms: C_1  and  C_2
REMARK    2  A    between atoms: C_2  and  C_3
REMARK    3  A    between atoms: C_3  and  C_4
REMARK    4  A    between atoms: N_6  and  C_7
REMARK    5  A    between atoms: N_6  and  S_29
REMARK    6  A    between atoms: C_10  and  N_11
REMARK    7  A    between atoms: N_11  and  C_12
REMARK    8  A    between atoms: C_22  and  N_23
REMARK    9  A    between atoms: S_29  and  C_30
REMARK                            x       y       z     vdW  Elec       q    Type
REMARK                         _______ _______ _______ _____ _____    ______ ____
ROOT
ATOM      1  N   UNL     1       2.835   5.974  19.125  0.00  0.00    +0.000 N 
ATOM      2  H   UNL     1       3.172   5.864  20.073  0.00  0.00    +0.000 HD
ENDROOT
BRANCH   1   3
ATOM      3  C   UNL     1       3.231   4.974  18.078  0.00  0.00    +0.000 A 
ATOM      4  C   UNL     1       4.539   5.238  17.655  0.00  0.00    +0.000 A 
ATOM      5  C   UNL     1       4.791   6.098  16.602  0.00  0.00    +0.000 A 
ATOM      6  C   UNL     1       6.092   6.304  16.179  0.00  0.00    +0.000 A 
ATOM      7  C   UNL     1       7.147   5.600  16.777  0.00  0.00    +0.000 A 
ATOM      8  C   UNL     1       6.911   4.743  17.877  0.00  0.00    +0.000 A 
ATOM      9  C   UNL     1       5.596   4.585  18.354  0.00  0.00    +0.000 A 
ATOM     10  N   UNL     1       5.231   3.902  19.515  0.00  0.00    +0.000 NA
ATOM     11  C   UNL     1       3.903   3.517  19.606  0.00  0.00    +0.000 A 
ATOM     12  C   UNL     1       3.030   3.529  20.802  0.00  0.00    +0.000 A 
ATOM     13  C   UNL     1       1.579   3.369  20.608  0.00  0.00    +0.000 A 
ATOM     14  C   UNL     1       1.420   2.415  19.634  0.00  0.00    +0.000 A 
ATOM     15  C   UNL     1       2.148   2.590  18.473  0.00  0.00    +0.000 A 
ATOM     16  C   UNL     1       3.232   3.519  18.413  0.00  0.00    +0.000 A 
BRANCH  13  17
ATOM     17  N   UNL     1       0.843   4.515  20.019  0.00  0.00    +0.000 N 
ATOM     18  H   UNL     1       1.126   5.495  20.191  0.00  0.00    +0.000 HD
ATOM     19  H   UNL     1       0.194   4.432  19.235  0.00  0.00    +0.000 HD
ENDBRANCH  13  17
ENDBRANCH   1   3
BRANCH   1  23
ATOM     20  C   UNL     1       0.969   9.834  19.167  0.00  0.00    +0.000 A 
ATOM     21  C   UNL     1       1.528   9.348  17.974  0.00  0.00    +0.000 A 
ATOM     22  C   UNL     1       2.127   8.073  17.984  0.00  0.00    +0.000 A 
ATOM     23  C   UNL     1       2.196   7.279  19.178  0.00  0.00    +0.000 A 
ATOM     24  C   UNL     1       1.596   7.814  20.320  0.00  0.00    +0.000 A 
ATOM     25  C   UNL     1       0.999   9.053  20.304  0.00  0.00    +0.000 A 
BRANCH  20  28
ATOM     26  C   UNL     1      -0.879  11.279  18.578  0.00  0.00    +0.000 C 
ATOM     27  O   UNL     1      -1.327  12.405  18.466  0.00  0.00    +0.000 OA
ATOM     28  N   UNL     1       0.303  11.076  19.243  0.00  0.00    +0.000 N 
BRANCH  28  29
ATOM     29  S   UNL     1       1.318  12.453  19.661  0.00  0.00    +0.000 S 
ATOM     30  C   UNL     1       2.557  12.852  18.393  0.00  0.00    +0.000 C 
ATOM     31  O   UNL     1       0.370  13.593  20.080  0.00  0.00    +0.000 OA
ATOM     32  O   UNL     1       1.977  12.061  20.996  0.00  0.00    +0.000 OA
ENDBRANCH  28  29
BRANCH  26  33
ATOM     33  C   UNL     1      -1.674  10.132  17.945  0.00  0.00    +0.000 C 
BRANCH  33  35
ATOM     34  C   UNL     1      -2.703  10.405  15.644  0.00  0.00    +0.000 C 
ATOM     35  C   UNL     1      -2.879  10.657  17.144  0.00  0.00    +0.000 C 
ENDBRANCH  33  35
ENDBRANCH  26  33
ENDBRANCH  20  28
ENDBRANCH   1  23
TORSDOF 7
ENDMDL
MODEL 6
REMARK VINA RESULT:      -9.1      1.258      1.703
REMARK  Name = 
REMARK  9 active torsions:
REMARK  status: ('A' for Active; 'I' for Inactive)
REMARK    1  A    between atoms: C_1  and  C_2
REMARK    2  A    between atoms: C_2  and  C_3
REMARK    3  A    between atoms: C_3  and  C_4
REMARK    4  A    between atoms: N_6  and  C_7
REMARK    5  A    between atoms: N_6  and  S_29
REMARK    6  A    between atoms: C_10  and  N_11
REMARK    7  A    between atoms: N_11  and  C_12
REMARK    8  A    between atoms: C_22  and  N_23
REMARK    9  A    between atoms: S_29  and  C_30
REMARK                            x       y       z     vdW  Elec       q    Type
REMARK                         _______ _______ _______ _____ _____    ______ ____
ROOT
ATOM      1  N   UNL     1       2.816   5.892  19.033  0.00  0.00    +0.000 N 
ATOM      2  H   UNL     1       3.084   5.761  19.999  0.00  0.00    +0.000 HD
ENDROOT
BRANCH   1   3
ATOM      3  C   UNL     1       3.234   4.883  18.004  0.00  0.00    +0.000 A 
ATOM      4  C   UNL     1       4.543   5.157  17.590  0.00  0.00    +0.000 A 
ATOM      5  C   UNL     1       4.794   6.006  16.527  0.00  0.00    +0.000 A 
ATOM      6  C   UNL     1       6.096   6.223  16.114  0.00  0.00    +0.000 A 
ATOM      7  C   UNL     1       7.154   5.541  16.732  0.00  0.00    +0.000 A 
ATOM      8  C   UNL     1       6.919   4.696  17.841  0.00  0.00    +0.000 A 
ATOM      9  C   UNL     1       5.601   4.528  18.308  0.00  0.00    +0.000 A 
ATOM     10  N   UNL     1       5.234   3.857  19.475  0.00  0.00    +0.000 NA
ATOM     11  C   UNL     1       3.911   3.456  19.559  0.00  0.00    +0.000 A 
ATOM     12  C   UNL     1       3.025   3.474  20.746  0.00  0.00    +0.000 A 
ATOM     13  C   UNL     1       1.579   3.292  20.541  0.00  0.00    +0.000 A 
ATOM     14  C   UNL     1       1.441   2.323  19.580  0.00  0.00    +0.000 A 
ATOM     15  C   UNL     1       2.178   2.491  18.423  0.00  0.00    +0.000 A 
ATOM     16  C   UNL     1       3.251   3.433  18.360  0.00  0.00    +0.000 A 
BRANCH  13  17
ATOM     17  N   UNL     1       0.833   4.420  19.928  0.00  0.00    +0.000 N 
ATOM     18  H   UNL     1       1.060   4.777  18.984  0.00  0.00    +0.000 HD
ATOM     19  H   UNL     1      -0.075   4.748  20.258  0.00  0.00    +0.000 HD
ENDBRANCH  13  17
ENDBRANCH   1   3
BRANCH   1  23
ATOM     20  C   UNL     1       1.107   9.825  18.989  0.00  0.00    +0.000 A 
ATOM     21  C   UNL     1       1.529   9.239  17.784  0.00  0.00    +0.000 A 
ATOM     22  C   UNL     1       2.078   7.943  17.824  0.00  0.00    +0.000 A 
ATOM     23  C   UNL     1       2.234   7.225  19.058  0.00  0.00    +0.000 A 
ATOM     24  C   UNL     1       1.767   7.857  20.212  0.00  0.00    +0.000 A 
ATOM     25  C   UNL     1       1.218   9.118  20.168  0.00  0.00    +0.000 A 
BRANCH  20  28
ATOM     26  C   UNL     1      -0.801  11.269  18.638  0.00  0.00    +0.000 C 
ATOM     27  O   UNL     1      -1.243  12.391  18.477  0.00  0.00    +0.000 OA
ATOM     28  N   UNL     1       0.498  11.097  19.043  0.00  0.00    +0.000 N 
BRANCH  28  29
ATOM     29  S   UNL     1       1.605  12.465  19.031  0.00  0.00    +0.000 S 
ATOM     30  C   UNL     1       2.064  13.042  20.692  0.00  0.00    +0.000 C 
ATOM     31  O   UNL     1       2.765  12.090  18.089  0.00  0.00    +0.000 OA
ATOM     32  O   UNL     1       0.868  13.557  18.234  0.00  0.00    +0.000 OA
ENDBRANCH  28  29
BRANCH  26  33
ATOM     33  C   UNL     1      -1.740  10.090  18.361  0.00  0.00    +0.000 C 
BRANCH  33  35
ATOM     34  C   UNL     1      -3.541  10.424  16.609  0.00  0.00    +0.000 C 
ATOM     35  C   UNL     1      -2.095   9.992  16.867  0.00  0.00    +0.000 C 
ENDBRANCH  33  35
ENDBRANCH  26  33
ENDBRANCH  20  28
ENDBRANCH   1  23
TORSDOF 7
ENDMDL
MODEL 7
REMARK VINA RESULT:      -9.0      1.226      1.524
REMARK  Name = 
REMARK  9 active torsions:
REMARK  status: ('A' for Active; 'I' for Inactive)
REMARK    1  A    between atoms: C_1  and  C_2
REMARK    2  A    between atoms: C_2  and  C_3
REMARK    3  A    between atoms: C_3  and  C_4
REMARK    4  A    between atoms: N_6  and  C_7
REMARK    5  A    between atoms: N_6  and  S_29
REMARK    6  A    between atoms: C_10  and  N_11
REMARK    7  A    between atoms: N_11  and  C_12
REMARK    8  A    between atoms: C_22  and  N_23
REMARK    9  A    between atoms: S_29  and  C_30
REMARK                            x       y       z     vdW  Elec       q    Type
REMARK                         _______ _______ _______ _____ _____    ______ ____
ROOT
ATOM      1  N   UNL     1       3.149   5.821  19.121  0.00  0.00    +0.000 N 
ATOM      2  H   UNL     1       3.284   5.410  20.036  0.00  0.00    +0.000 HD
ENDROOT
BRANCH   1   3
ATOM      3  C   UNL     1       3.943   5.308  17.956  0.00  0.00    +0.000 A 
ATOM      4  C   UNL     1       5.229   5.862  17.990  0.00  0.00    +0.000 A 
ATOM      5  C   UNL     1       5.508   7.061  17.359  0.00  0.00    +0.000 A 
ATOM      6  C   UNL     1       6.797   7.561  17.373  0.00  0.00    +0.000 A 
ATOM      7  C   UNL     1       7.831   6.828  17.974  0.00  0.00    +0.000 A 
ATOM      8  C   UNL     1       7.557   5.617  18.653  0.00  0.00    +0.000 A 
ATOM      9  C   UNL     1       6.233   5.142  18.700  0.00  0.00    +0.000 A 
ATOM     10  N   UNL     1       5.787   4.056  19.456  0.00  0.00    +0.000 NA
ATOM     11  C   UNL     1       4.576   3.503  19.076  0.00  0.00    +0.000 A 
ATOM     12  C   UNL     1       3.495   2.987  19.947  0.00  0.00    +0.000 A 
ATOM     13  C   UNL     1       2.177   2.727  19.344  0.00  0.00    +0.000 A 
ATOM     14  C   UNL     1       2.415   2.163  18.117  0.00  0.00    +0.000 A 
ATOM     15  C   UNL     1       3.312   2.822  17.297  0.00  0.00    +0.000 A 
ATOM     16  C   UNL     1       4.174   3.839  17.811  0.00  0.00    +0.000 A 
BRANCH  13  17
ATOM     17  N   UNL     1       1.357   3.907  18.970  0.00  0.00    +0.000 N 
ATOM     18  H   UNL     1       1.241   4.716  19.604  0.00  0.00    +0.000 HD
ATOM     19  H   UNL     1       1.069   4.119  18.015  0.00  0.00    +0.000 HD
ENDBRANCH  13  17
ENDBRANCH   1   3
BRANCH   1  23
ATOM     20  C   UNL     1       0.568   9.102  20.101  0.00  0.00    +0.000 A 
ATOM     21  C   UNL     1       0.625   7.986  20.952  0.00  0.00    +0.000 A 
ATOM     22  C   UNL     1       1.487   6.926  20.613  0.00  0.00    +0.000 A 
ATOM     23  C   UNL     1       2.284   6.951  19.419  0.00  0.00    +0.000 A 
ATOM     24  C   UNL     1       2.198   8.103  18.635  0.00  0.00    +0.000 A 
ATOM     25  C   UNL     1       1.366   9.144  18.976  0.00  0.00    +0.000 A 
BRANCH  20  28
ATOM     26  C   UNL     1      -0.932  10.860  19.389  0.00  0.00    +0.000 C 
ATOM     27  O   UNL     1      -1.428  11.953  19.593  0.00  0.00    +0.000 OA
ATOM     28  N   UNL     1      -0.225  10.234  20.383  0.00  0.00    +0.000 N 
BRANCH  28  29
ATOM     29  S   UNL     1       0.226  11.129  21.831  0.00  0.00    +0.000 S 
ATOM     30  C   UNL     1      -1.141  12.091  22.546  0.00  0.00    +0.000 C 
ATOM     31  O   UNL     1       0.928  10.130  22.770  0.00  0.00    +0.000 OA
ATOM     32  O   UNL     1       1.386  12.037  21.383  0.00  0.00    +0.000 OA
ENDBRANCH  28  29
BRANCH  26  33
ATOM     33  C   UNL     1      -1.122  10.241  18.001  0.00  0.00    +0.000 C 
BRANCH  33  35
ATOM     34  C   UNL     1      -2.826   9.805  16.175  0.00  0.00    +0.000 C 
ATOM     35  C   UNL     1      -2.613  10.040  17.673  0.00  0.00    +0.000 C 
ENDBRANCH  33  35
ENDBRANCH  26  33
ENDBRANCH  20  28
ENDBRANCH   1  23
TORSDOF 7
ENDMDL
MODEL 8
REMARK VINA RESULT:      -8.7      1.539      2.660
REMARK  Name = 
REMARK  9 active torsions:
REMARK  status: ('A' for Active; 'I' for Inactive)
REMARK    1  A    between atoms: C_1  and  C_2
REMARK    2  A    between atoms: C_2  and  C_3
REMARK    3  A    between atoms: C_3  and  C_4
REMARK    4  A    between atoms: N_6  and  C_7
REMARK    5  A    between atoms: N_6  and  S_29
REMARK    6  A    between atoms: C_10  and  N_11
REMARK    7  A    between atoms: N_11  and  C_12
REMARK    8  A    between atoms: C_22  and  N_23
REMARK    9  A    between atoms: S_29  and  C_30
REMARK                            x       y       z     vdW  Elec       q    Type
REMARK                         _______ _______ _______ _____ _____    ______ ____
ROOT
ATOM      1  N   UNL     1       3.171   6.281  18.689  0.00  0.00    +0.000 N 
ATOM      2  H   UNL     1       3.024   5.963  19.639  0.00  0.00    +0.000 HD
ENDROOT
BRANCH   1   3
ATOM      3  C   UNL     1       4.128   5.542  17.801  0.00  0.00    +0.000 A 
ATOM      4  C   UNL     1       5.422   6.042  17.995  0.00  0.00    +0.000 A 
ATOM      5  C   UNL     1       5.900   7.100  17.244  0.00  0.00    +0.000 A 
ATOM      6  C   UNL     1       7.198   7.543  17.427  0.00  0.00    +0.000 A 
ATOM      7  C   UNL     1       8.045   6.884  18.330  0.00  0.00    +0.000 A 
ATOM      8  C   UNL     1       7.563   5.822  19.130  0.00  0.00    +0.000 A 
ATOM      9  C   UNL     1       6.222   5.416  18.994  0.00  0.00    +0.000 A 
ATOM     10  N   UNL     1       5.566   4.496  19.815  0.00  0.00    +0.000 NA
ATOM     11  C   UNL     1       4.409   3.935  19.301  0.00  0.00    +0.000 A 
ATOM     12  C   UNL     1       3.150   3.623  20.016  0.00  0.00    +0.000 A 
ATOM     13  C   UNL     1       1.951   3.316  19.219  0.00  0.00    +0.000 A 
ATOM     14  C   UNL     1       2.371   2.538  18.170  0.00  0.00    +0.000 A 
ATOM     15  C   UNL     1       3.450   3.007  17.445  0.00  0.00    +0.000 A 
ATOM     16  C   UNL     1       4.274   4.063  17.945  0.00  0.00    +0.000 A 
BRANCH  13  17
ATOM     17  N   UNL     1       1.304   4.445  18.505  0.00  0.00    +0.000 N 
ATOM     18  H   UNL     1       1.715   4.861  17.652  0.00  0.00    +0.000 HD
ATOM     19  H   UNL     1       0.329   4.717  18.638  0.00  0.00    +0.000 HD
ENDBRANCH  13  17
ENDBRANCH   1   3
BRANCH   1  23
ATOM     20  C   UNL     1       1.011   9.984  18.762  0.00  0.00    +0.000 A 
ATOM     21  C   UNL     1       1.159   9.246  19.947  0.00  0.00    +0.000 A 
ATOM     22  C   UNL     1       1.881   8.037  19.899  0.00  0.00    +0.000 A 
ATOM     23  C   UNL     1       2.443   7.540  18.674  0.00  0.00    +0.000 A 
ATOM     24  C   UNL     1       2.280   8.341  17.542  0.00  0.00    +0.000 A 
ATOM     25  C   UNL     1       1.587   9.528  17.595  0.00  0.00    +0.000 A 
BRANCH  20  28
ATOM     26  C   UNL     1       1.057  12.403  18.810  0.00  0.00    +0.000 C 
ATOM     27  O   UNL     1       0.471  13.452  18.998  0.00  0.00    +0.000 OA
ATOM     28  N   UNL     1       0.350  11.231  18.721  0.00  0.00    +0.000 N 
BRANCH  28  29
ATOM     29  S   UNL     1      -1.349  11.199  19.183  0.00  0.00    +0.000 S 
ATOM     30  C   UNL     1      -1.630  11.551  20.944  0.00  0.00    +0.000 C 
ATOM     31  O   UNL     1      -2.100  12.090  18.175  0.00  0.00    +0.000 OA
ATOM     32  O   UNL     1      -1.831   9.787  18.802  0.00  0.00    +0.000 OA
ENDBRANCH  28  29
BRANCH  26  33
ATOM     33  C   UNL     1       2.584  12.452  18.691  0.00  0.00    +0.000 C 
BRANCH  33  35
ATOM     34  C   UNL     1       3.814  14.560  18.008  0.00  0.00    +0.000 C 
ATOM     35  C   UNL     1       3.141  13.808  19.159  0.00  0.00    +0.000 C 
ENDBRANCH  33  35
ENDBRANCH  26  33
ENDBRANCH  20  28
ENDBRANCH   1  23
TORSDOF 7
ENDMDL
MODEL 9
REMARK VINA RESULT:      -8.5      1.018      2.833
REMARK  Name = 
REMARK  9 active torsions:
REMARK  status: ('A' for Active; 'I' for Inactive)
REMARK    1  A    between atoms: C_1  and  C_2
REMARK    2  A    between atoms: C_2  and  C_3
REMARK    3  A    between atoms: C_3  and  C_4
REMARK    4  A    between atoms: N_6  and  C_7
REMARK    5  A    between atoms: N_6  and  S_29
REMARK    6  A    between atoms: C_10  and  N_11
REMARK    7  A    between atoms: N_11  and  C_12
REMARK    8  A    between atoms: C_22  and  N_23
REMARK    9  A    between atoms: S_29  and  C_30
REMARK                            x       y       z     vdW  Elec       q    Type
REMARK                         _______ _______ _______ _____ _____    ______ ____
ROOT
ATOM      1  N   UNL     1       3.168   6.266  18.792  0.00  0.00    +0.000 N 
ATOM      2  H   UNL     1       3.028   5.898  19.724  0.00  0.00    +0.000 HD
ENDROOT
BRANCH   1   3
ATOM      3  C   UNL     1       4.095   5.558  17.849  0.00  0.00    +0.000 A 
ATOM      4  C   UNL     1       5.396   6.049  18.020  0.00  0.00    +0.000 A 
ATOM      5  C   UNL     1       5.852   7.133  17.293  0.00  0.00    +0.000 A 
ATOM      6  C   UNL     1       7.156   7.568  17.452  0.00  0.00    +0.000 A 
ATOM      7  C   UNL     1       8.029   6.877  18.305  0.00  0.00    +0.000 A 
ATOM      8  C   UNL     1       7.570   5.788  19.081  0.00  0.00    +0.000 A 
ATOM      9  C   UNL     1       6.224   5.387  18.972  0.00  0.00    +0.000 A 
ATOM     10  N   UNL     1       5.592   4.440  19.779  0.00  0.00    +0.000 NA
ATOM     11  C   UNL     1       4.419   3.899  19.282  0.00  0.00    +0.000 A 
ATOM     12  C   UNL     1       3.182   3.562  20.024  0.00  0.00    +0.000 A 
ATOM     13  C   UNL     1       1.959   3.284  19.253  0.00  0.00    +0.000 A 
ATOM     14  C   UNL     1       2.345   2.544  18.164  0.00  0.00    +0.000 A 
ATOM     15  C   UNL     1       3.402   3.038  17.424  0.00  0.00    +0.000 A 
ATOM     16  C   UNL     1       4.242   4.074  17.935  0.00  0.00    +0.000 A 
BRANCH  13  17
ATOM     17  N   UNL     1       1.292   4.438  18.600  0.00  0.00    +0.000 N 
ATOM     18  H   UNL     1       1.246   4.533  17.571  0.00  0.00    +0.000 HD
ATOM     19  H   UNL     1       0.639   5.061  19.075  0.00  0.00    +0.000 HD
ENDBRANCH  13  17
ENDBRANCH   1   3
BRANCH   1  23
ATOM     20  C   UNL     1       1.133  10.039  18.877  0.00  0.00    +0.000 A 
ATOM     21  C   UNL     1       1.881   9.681  17.743  0.00  0.00    +0.000 A 
ATOM     22  C   UNL     1       2.532   8.432  17.736  0.00  0.00    +0.000 A 
ATOM     23  C   UNL     1       2.466   7.538  18.858  0.00  0.00    +0.000 A 
ATOM     24  C   UNL     1       1.682   7.948  19.938  0.00  0.00    +0.000 A 
ATOM     25  C   UNL     1       1.035   9.162  19.937  0.00  0.00    +0.000 A 
BRANCH  20  28
ATOM     26  C   UNL     1       0.793  12.246  19.809  0.00  0.00    +0.000 C 
ATOM     27  O   UNL     1       0.044  13.178  20.033  0.00  0.00    +0.000 OA
ATOM     28  N   UNL     1       0.404  11.245  18.955  0.00  0.00    +0.000 N 
BRANCH  28  29
ATOM     29  S   UNL     1      -1.275  11.147  18.433  0.00  0.00    +0.000 S 
ATOM     30  C   UNL     1      -1.623   9.711  17.374  0.00  0.00    +0.000 C 
ATOM     31  O   UNL     1      -2.143  11.296  19.696  0.00  0.00    +0.000 OA
ATOM     32  O   UNL     1      -1.532  12.473  17.694  0.00  0.00    +0.000 OA
ENDBRANCH  28  29
BRANCH  26  33
ATOM     33  C   UNL     1       2.152  12.239  20.517  0.00  0.00    +0.000 C 
BRANCH  33  35
ATOM     34  C   UNL     1       3.274  14.141  19.271  0.00  0.00    +0.000 C 
ATOM     35  C   UNL     1       2.738  13.658  20.623  0.00  0.00    +0.000 C 
ENDBRANCH  33  35
ENDBRANCH  26  33
ENDBRANCH  20  28
ENDBRANCH   1  23
TORSDOF 7
ENDMDL
