MODEL 1
REMARK VINA RESULT:      -9.6      0.000      0.000
REMARK  Name = 
REMARK  2 active torsions:
REMARK  status: ('A' for Active; 'I' for Inactive)
REMARK    1  A    between atoms: C_4  and  N_5
REMARK    2  A    between atoms: C_14  and  C_15
REMARK                            x       y       z     vdW  Elec       q    Type
REMARK                         _______ _______ _______ _____ _____    ______ ____
ROOT
ATOM      1  O   UNL     1       1.555  12.321  17.977  0.00  0.00    +0.000 OA
ATOM      2  C   UNL     1       1.187  11.702  18.965  0.00  0.00    +0.000 A 
ATOM      3  C   UNL     1       0.429  12.359  20.038  0.00  0.00    +0.000 A 
ATOM      4  C   UNL     1       0.053  11.680  21.136  0.00  0.00    +0.000 A 
ATOM      5  O   UNL     1       0.351  10.328  21.300  0.00  0.00    +0.000 OA
ATOM      6  C   UNL     1       0.996   9.653  20.295  0.00  0.00    +0.000 A 
ATOM      7  C   UNL     1       1.189   8.279  20.469  0.00  0.00    +0.000 A 
ATOM      8  C   UNL     1       1.906   7.508  19.531  0.00  0.00    +0.000 A 
ATOM      9  C   UNL     1       2.382   8.182  18.386  0.00  0.00    +0.000 A 
ATOM     10  C   UNL     1       2.146   9.546  18.180  0.00  0.00    +0.000 A 
ATOM     11  C   UNL     1       1.456  10.273  19.146  0.00  0.00    +0.000 A 
ENDROOT
BRANCH   8  12
ATOM     12  C   UNL     1       2.149   6.044  19.717  0.00  0.00    +0.000 A 
ATOM     13  C   UNL     1       1.516   5.376  20.789  0.00  0.00    +0.000 A 
ATOM     14  C   UNL     1       1.679   4.010  21.005  0.00  0.00    +0.000 A 
ATOM     15  C   UNL     1       2.505   3.276  20.166  0.00  0.00    +0.000 A 
ATOM     16  C   UNL     1       3.165   3.892  19.095  0.00  0.00    +0.000 A 
ATOM     17  C   UNL     1       2.980   5.264  18.860  0.00  0.00    +0.000 A 
ATOM     18  O   UNL     1       3.540   5.935  17.794  0.00  0.00    +0.000 OA
ATOM     19  C   UNL     1       4.452   5.363  16.950  0.00  0.00    +0.000 A 
ATOM     20  C   UNL     1       5.001   6.249  16.011  0.00  0.00    +0.000 A 
ATOM     21  C   UNL     1       5.911   5.801  15.055  0.00  0.00    +0.000 A 
ATOM     22  C   UNL     1       6.282   4.461  15.035  0.00  0.00    +0.000 A 
ATOM     23  C   UNL     1       5.748   3.580  15.977  0.00  0.00    +0.000 A 
ATOM     24  C   UNL     1       4.831   4.025  16.941  0.00  0.00    +0.000 A 
ATOM     25  S   UNL     1       4.193   2.851  18.094  0.00  0.00    +0.000 S 
ENDBRANCH   8  12
BRANCH   4  26
ATOM     26  N   UNL     1      -0.679  12.246  22.175  0.00  0.00    +0.000 N 
ATOM     27  C   UNL     1      -1.492  11.438  23.112  0.00  0.00    +0.000 C 
ATOM     28  C   UNL     1      -2.848  12.114  23.363  0.00  0.00    +0.000 C 
ATOM     29  O   UNL     1      -2.696  13.472  23.809  0.00  0.00    +0.000 OA
ATOM     30  C   UNL     1      -1.964  14.233  22.834  0.00  0.00    +0.000 C 
ATOM     31  C   UNL     1      -0.561  13.649  22.611  0.00  0.00    +0.000 C 
ENDBRANCH   4  26
TORSDOF 2
ENDMDL
MODEL 2
REMARK VINA RESULT:      -9.0      4.104      9.110
REMARK  Name = 
REMARK  2 active torsions:
REMARK  status: ('A' for Active; 'I' for Inactive)
REMARK    1  A    between atoms: C_4  and  N_5
REMARK    2  A    between atoms: C_14  and  C_15
REMARK                            x       y       z     vdW  Elec       q    Type
REMARK                         _______ _______ _______ _____ _____    ______ ____
ROOT
ATOM      1  O   UNL     1       3.248   8.446  16.743  0.00  0.00    +0.000 OA
ATOM      2  C   UNL     1       2.769   8.079  17.807  0.00  0.00    +0.000 A 
ATOM      3  C   UNL     1       3.094   6.764  18.376  0.00  0.00    +0.000 A 
ATOM      4  C   UNL     1       2.540   6.354  19.530  0.00  0.00    +0.000 A 
ATOM      5  O   UNL     1       1.649   7.156  20.242  0.00  0.00    +0.000 OA
ATOM      6  C   UNL     1       1.368   8.420  19.787  0.00  0.00    +0.000 A 
ATOM      7  C   UNL     1       0.541   9.217  20.585  0.00  0.00    +0.000 A 
ATOM      8  C   UNL     1       0.130  10.502  20.172  0.00  0.00    +0.000 A 
ATOM      9  C   UNL     1       0.631  10.961  18.935  0.00  0.00    +0.000 A 
ATOM     10  C   UNL     1       1.501  10.189  18.157  0.00  0.00    +0.000 A 
ATOM     11  C   UNL     1       1.858   8.916  18.591  0.00  0.00    +0.000 A 
ENDROOT
BRANCH   8  12
ATOM     12  C   UNL     1      -0.778  11.355  20.998  0.00  0.00    +0.000 A 
ATOM     13  C   UNL     1      -0.370  11.732  22.298  0.00  0.00    +0.000 A 
ATOM     14  C   UNL     1      -1.156  12.545  23.111  0.00  0.00    +0.000 A 
ATOM     15  C   UNL     1      -2.391  12.983  22.654  0.00  0.00    +0.000 A 
ATOM     16  C   UNL     1      -2.848  12.628  21.379  0.00  0.00    +0.000 A 
ATOM     17  C   UNL     1      -2.044  11.831  20.547  0.00  0.00    +0.000 A 
ATOM     18  O   UNL     1      -2.389  11.489  19.258  0.00  0.00    +0.000 OA
ATOM     19  C   UNL     1      -3.615  11.766  18.715  0.00  0.00    +0.000 A 
ATOM     20  C   UNL     1      -3.815  11.220  17.439  0.00  0.00    +0.000 A 
ATOM     21  C   UNL     1      -4.998  11.453  16.741  0.00  0.00    +0.000 A 
ATOM     22  C   UNL     1      -5.994  12.234  17.319  0.00  0.00    +0.000 A 
ATOM     23  C   UNL     1      -5.803  12.767  18.596  0.00  0.00    +0.000 A 
ATOM     24  C   UNL     1      -4.613  12.535  19.303  0.00  0.00    +0.000 A 
ATOM     25  S   UNL     1      -4.441  13.248  20.907  0.00  0.00    +0.000 S 
ENDBRANCH   8  12
BRANCH   4  26
ATOM     26  N   UNL     1       2.823   5.128  20.125  0.00  0.00    +0.000 N 
ATOM     27  C   UNL     1       4.015   4.326  19.773  0.00  0.00    +0.000 C 
ATOM     28  C   UNL     1       3.641   2.841  19.642  0.00  0.00    +0.000 C 
ATOM     29  O   UNL     1       2.984   2.349  20.822  0.00  0.00    +0.000 OA
ATOM     30  C   UNL     1       1.795   3.112  21.081  0.00  0.00    +0.000 C 
ATOM     31  C   UNL     1       2.124   4.595  21.309  0.00  0.00    +0.000 C 
ENDBRANCH   4  26
TORSDOF 2
ENDMDL
MODEL 3
REMARK VINA RESULT:      -8.9      4.019      8.699
REMARK  Name = 
REMARK  2 active torsions:
REMARK  status: ('A' for Active; 'I' for Inactive)
REMARK    1  A    between atoms: C_4  and  N_5
REMARK    2  A    between atoms: C_14  and  C_15
REMARK                            x       y       z     vdW  Elec       q    Type
REMARK                         _______ _______ _______ _____ _____    ______ ____
ROOT
ATOM      1  O   UNL     1       4.608   6.989  16.482  0.00  0.00    +0.000 OA
ATOM      2  C   UNL     1       3.919   6.685  17.445  0.00  0.00    +0.000 A 
ATOM      3  C   UNL     1       3.991   5.344  18.042  0.00  0.00    +0.000 A 
ATOM      4  C   UNL     1       3.208   5.007  19.081  0.00  0.00    +0.000 A 
ATOM      5  O   UNL     1       2.308   5.910  19.646  0.00  0.00    +0.000 OA
ATOM      6  C   UNL     1       2.254   7.196  19.168  0.00  0.00    +0.000 A 
ATOM      7  C   UNL     1       1.402   8.086  19.827  0.00  0.00    +0.000 A 
ATOM      8  C   UNL     1       1.216   9.408  19.370  0.00  0.00    +0.000 A 
ATOM      9  C   UNL     1       1.966   9.800  18.241  0.00  0.00    +0.000 A 
ATOM     10  C   UNL     1       2.860   8.929  17.608  0.00  0.00    +0.000 A 
ATOM     11  C   UNL     1       2.991   7.625  18.078  0.00  0.00    +0.000 A 
ENDROOT
BRANCH   8  12
ATOM     12  C   UNL     1       0.286  10.365  20.045  0.00  0.00    +0.000 A 
ATOM     13  C   UNL     1       0.610  10.840  21.336  0.00  0.00    +0.000 A 
ATOM     14  C   UNL     1      -0.199  11.750  22.011  0.00  0.00    +0.000 A 
ATOM     15  C   UNL     1      -1.375  12.192  21.421  0.00  0.00    +0.000 A 
ATOM     16  C   UNL     1      -1.748  11.743  20.148  0.00  0.00    +0.000 A 
ATOM     17  C   UNL     1      -0.920  10.846  19.456  0.00  0.00    +0.000 A 
ATOM     18  O   UNL     1      -1.179  10.405  18.176  0.00  0.00    +0.000 OA
ATOM     19  C   UNL     1      -2.347  10.677  17.516  0.00  0.00    +0.000 A 
ATOM     20  C   UNL     1      -2.473  10.028  16.280  0.00  0.00    +0.000 A 
ATOM     21  C   UNL     1      -3.588  10.243  15.472  0.00  0.00    +0.000 A 
ATOM     22  C   UNL     1      -4.589  11.109  15.899  0.00  0.00    +0.000 A 
ATOM     23  C   UNL     1      -4.473  11.745  17.137  0.00  0.00    +0.000 A 
ATOM     24  C   UNL     1      -3.352  11.532  17.954  0.00  0.00    +0.000 A 
ATOM     25  S   UNL     1      -3.272  12.378  19.500  0.00  0.00    +0.000 S 
ENDBRANCH   8  12
BRANCH   4  26
ATOM     26  N   UNL     1       3.245   3.760  19.697  0.00  0.00    +0.000 N 
ATOM     27  C   UNL     1       2.108   3.219  20.475  0.00  0.00    +0.000 C 
ATOM     28  C   UNL     1       2.610   2.561  21.768  0.00  0.00    +0.000 C 
ATOM     29  O   UNL     1       3.613   1.564  21.508  0.00  0.00    +0.000 OA
ATOM     30  C   UNL     1       4.726   2.152  20.816  0.00  0.00    +0.000 C 
ATOM     31  C   UNL     1       4.293   2.748  19.469  0.00  0.00    +0.000 C 
ENDBRANCH   4  26
TORSDOF 2
ENDMDL
MODEL 4
REMARK VINA RESULT:      -8.7      0.551      1.002
REMARK  Name = 
REMARK  2 active torsions:
REMARK  status: ('A' for Active; 'I' for Inactive)
REMARK    1  A    between atoms: C_4  and  N_5
REMARK    2  A    between atoms: C_14  and  C_15
REMARK                            x       y       z     vdW  Elec       q    Type
REMARK                         _______ _______ _______ _____ _____    ______ ____
ROOT
ATOM      1  O   UNL     1       1.902  12.604  17.664  0.00  0.00    +0.000 OA
ATOM      2  C   UNL     1       1.371  12.008  18.590  0.00  0.00    +0.000 A 
ATOM      3  C   UNL     1       0.450  12.691  19.509  0.00  0.00    +0.000 A 
ATOM      4  C   UNL     1      -0.106  12.037  20.543  0.00  0.00    +0.000 A 
ATOM      5  O   UNL     1       0.151  10.688  20.782  0.00  0.00    +0.000 OA
ATOM      6  C   UNL     1       0.948   9.989  19.911  0.00  0.00    +0.000 A 
ATOM      7  C   UNL     1       1.100   8.619  20.143  0.00  0.00    +0.000 A 
ATOM      8  C   UNL     1       1.956   7.824  19.352  0.00  0.00    +0.000 A 
ATOM      9  C   UNL     1       2.619   8.472  18.288  0.00  0.00    +0.000 A 
ATOM     10  C   UNL     1       2.430   9.833  18.018  0.00  0.00    +0.000 A 
ATOM     11  C   UNL     1       1.596  10.583  18.841  0.00  0.00    +0.000 A 
ENDROOT
BRANCH   8  12
ATOM     12  C   UNL     1       2.154   6.364  19.606  0.00  0.00    +0.000 A 
ATOM     13  C   UNL     1       1.492   5.763  20.700  0.00  0.00    +0.000 A 
ATOM     14  C   UNL     1       1.613   4.404  20.978  0.00  0.00    +0.000 A 
ATOM     15  C   UNL     1       2.425   3.610  20.181  0.00  0.00    +0.000 A 
ATOM     16  C   UNL     1       3.112   4.158  19.091  0.00  0.00    +0.000 A 
ATOM     17  C   UNL     1       2.970   5.523  18.794  0.00  0.00    +0.000 A 
ATOM     18  O   UNL     1       3.559   6.129  17.705  0.00  0.00    +0.000 OA
ATOM     19  C   UNL     1       4.462   5.494  16.896  0.00  0.00    +0.000 A 
ATOM     20  C   UNL     1       5.045   6.321  15.926  0.00  0.00    +0.000 A 
ATOM     21  C   UNL     1       5.951   5.805  15.000  0.00  0.00    +0.000 A 
ATOM     22  C   UNL     1       6.283   4.454  15.043  0.00  0.00    +0.000 A 
ATOM     23  C   UNL     1       5.715   3.632  16.018  0.00  0.00    +0.000 A 
ATOM     24  C   UNL     1       4.802   4.146  16.951  0.00  0.00    +0.000 A 
ATOM     25  S   UNL     1       4.119   3.044  18.148  0.00  0.00    +0.000 S 
ENDBRANCH   8  12
BRANCH   4  26
ATOM     26  N   UNL     1      -0.996  12.628  21.436  0.00  0.00    +0.000 N 
ATOM     27  C   UNL     1      -0.831  14.013  21.929  0.00  0.00    +0.000 C 
ATOM     28  C   UNL     1      -1.113  14.081  23.437  0.00  0.00    +0.000 C 
ATOM     29  O   UNL     1      -2.402  13.537  23.767  0.00  0.00    +0.000 OA
ATOM     30  C   UNL     1      -2.487  12.169  23.333  0.00  0.00    +0.000 C 
ATOM     31  C   UNL     1      -2.301  12.055  21.813  0.00  0.00    +0.000 C 
ENDBRANCH   4  26
TORSDOF 2
ENDMDL
MODEL 5
REMARK VINA RESULT:      -8.5      4.013      8.899
REMARK  Name = 
REMARK  2 active torsions:
REMARK  status: ('A' for Active; 'I' for Inactive)
REMARK    1  A    between atoms: C_4  and  N_5
REMARK    2  A    between atoms: C_14  and  C_15
REMARK                            x       y       z     vdW  Elec       q    Type
REMARK                         _______ _______ _______ _____ _____    ______ ____
ROOT
ATOM      1  O   UNL     1       4.796   7.256  16.118  0.00  0.00    +0.000 OA
ATOM      2  C   UNL     1       4.074   6.827  17.007  0.00  0.00    +0.000 A 
ATOM      3  C   UNL     1       4.117   5.415  17.410  0.00  0.00    +0.000 A 
ATOM      4  C   UNL     1       3.298   4.944  18.366  0.00  0.00    +0.000 A 
ATOM      5  O   UNL     1       2.387   5.768  19.025  0.00  0.00    +0.000 OA
ATOM      6  C   UNL     1       2.358   7.109  18.733  0.00  0.00    +0.000 A 
ATOM      7  C   UNL     1       1.492   7.908  19.485  0.00  0.00    +0.000 A 
ATOM      8  C   UNL     1       1.331   9.283  19.214  0.00  0.00    +0.000 A 
ATOM      9  C   UNL     1       2.120   9.822  18.175  0.00  0.00    +0.000 A 
ATOM     10  C   UNL     1       3.027   9.038  17.453  0.00  0.00    +0.000 A 
ATOM     11  C   UNL     1       3.134   7.680  17.738  0.00  0.00    +0.000 A 
ENDROOT
BRANCH   8  12
ATOM     12  C   UNL     1       0.386  10.146  19.988  0.00  0.00    +0.000 A 
ATOM     13  C   UNL     1       0.705  10.485  21.322  0.00  0.00    +0.000 A 
ATOM     14  C   UNL     1      -0.117  11.304  22.092  0.00  0.00    +0.000 A 
ATOM     15  C   UNL     1      -1.302  11.786  21.554  0.00  0.00    +0.000 A 
ATOM     16  C   UNL     1      -1.671  11.469  20.240  0.00  0.00    +0.000 A 
ATOM     17  C   UNL     1      -0.829  10.666  19.455  0.00  0.00    +0.000 A 
ATOM     18  O   UNL     1      -1.085  10.359  18.136  0.00  0.00    +0.000 OA
ATOM     19  C   UNL     1      -2.259  10.681  17.510  0.00  0.00    +0.000 A 
ATOM     20  C   UNL     1      -2.377  10.166  16.211  0.00  0.00    +0.000 A 
ATOM     21  C   UNL     1      -3.499  10.446  15.432  0.00  0.00    +0.000 A 
ATOM     22  C   UNL     1      -4.513  11.244  15.951  0.00  0.00    +0.000 A 
ATOM     23  C   UNL     1      -4.404  11.746  17.249  0.00  0.00    +0.000 A 
ATOM     24  C   UNL     1      -3.278  11.467  18.037  0.00  0.00    +0.000 A 
ATOM     25  S   UNL     1      -3.207  12.144  19.665  0.00  0.00    +0.000 S 
ENDBRANCH   8  12
BRANCH   4  26
ATOM     26  N   UNL     1       3.306   3.621  18.800  0.00  0.00    +0.000 N 
ATOM     27  C   UNL     1       3.613   3.241  20.197  0.00  0.00    +0.000 C 
ATOM     28  C   UNL     1       4.542   2.018  20.226  0.00  0.00    +0.000 C 
ATOM     29  O   UNL     1       4.006   0.920  19.469  0.00  0.00    +0.000 OA
ATOM     30  C   UNL     1       3.794   1.317  18.105  0.00  0.00    +0.000 C 
ATOM     31  C   UNL     1       2.799   2.483  18.013  0.00  0.00    +0.000 C 
ENDBRANCH   4  26
TORSDOF 2
ENDMDL
MODEL 6
REMARK VINA RESULT:      -8.5      4.063      8.962
REMARK  Name = 
REMARK  2 active torsions:
REMARK  status: ('A' for Active; 'I' for Inactive)
REMARK    1  A    between atoms: C_4  and  N_5
REMARK    2  A    between atoms: C_14  and  C_15
REMARK                            x       y       z     vdW  Elec       q    Type
REMARK                         _______ _______ _______ _____ _____    ______ ____
ROOT
ATOM      1  O   UNL     1       3.700   8.110  16.740  0.00  0.00    +0.000 OA
ATOM      2  C   UNL     1       3.055   7.740  17.710  0.00  0.00    +0.000 A 
ATOM      3  C   UNL     1       3.142   6.358  18.203  0.00  0.00    +0.000 A 
ATOM      4  C   UNL     1       2.406   5.950  19.251  0.00  0.00    +0.000 A 
ATOM      5  O   UNL     1       1.543   6.815  19.923  0.00  0.00    +0.000 OA
ATOM      6  C   UNL     1       1.479   8.132  19.545  0.00  0.00    +0.000 A 
ATOM      7  C   UNL     1       0.668   8.978  20.308  0.00  0.00    +0.000 A 
ATOM      8  C   UNL     1       0.475  10.331  19.959  0.00  0.00    +0.000 A 
ATOM      9  C   UNL     1       1.174  10.800  18.827  0.00  0.00    +0.000 A 
ATOM     10  C   UNL     1       2.028   9.972  18.089  0.00  0.00    +0.000 A 
ATOM     11  C   UNL     1       2.168   8.637  18.455  0.00  0.00    +0.000 A 
ENDROOT
BRANCH   8  12
ATOM     12  C   UNL     1      -0.413  11.241  20.747  0.00  0.00    +0.000 A 
ATOM     13  C   UNL     1       0.022  11.695  22.012  0.00  0.00    +0.000 A 
ATOM     14  C   UNL     1      -0.743  12.563  22.787  0.00  0.00    +0.000 A 
ATOM     15  C   UNL     1      -1.984  12.981  22.326  0.00  0.00    +0.000 A 
ATOM     16  C   UNL     1      -2.467  12.550  21.085  0.00  0.00    +0.000 A 
ATOM     17  C   UNL     1      -1.684  11.697  20.290  0.00  0.00    +0.000 A 
ATOM     18  O   UNL     1      -2.055  11.278  19.031  0.00  0.00    +0.000 OA
ATOM     19  C   UNL     1      -3.289  11.529  18.495  0.00  0.00    +0.000 A 
ATOM     20  C   UNL     1      -3.517  10.906  17.260  0.00  0.00    +0.000 A 
ATOM     21  C   UNL     1      -4.712  11.104  16.570  0.00  0.00    +0.000 A 
ATOM     22  C   UNL     1      -5.691  11.927  17.117  0.00  0.00    +0.000 A 
ATOM     23  C   UNL     1      -5.473  12.537  18.354  0.00  0.00    +0.000 A 
ATOM     24  C   UNL     1      -4.272  12.341  19.051  0.00  0.00    +0.000 A 
ATOM     25  S   UNL     1      -4.065  13.152  20.605  0.00  0.00    +0.000 S 
ENDBRANCH   8  12
BRANCH   4  26
ATOM     26  N   UNL     1       2.459   4.660  19.771  0.00  0.00    +0.000 N 
ATOM     27  C   UNL     1       1.470   4.151  20.746  0.00  0.00    +0.000 C 
ATOM     28  C   UNL     1       2.175   3.359  21.858  0.00  0.00    +0.000 C 
ATOM     29  O   UNL     1       3.004   2.312  21.327  0.00  0.00    +0.000 OA
ATOM     30  C   UNL     1       3.993   2.863  20.443  0.00  0.00    +0.000 C 
ATOM     31  C   UNL     1       3.338   3.592  19.261  0.00  0.00    +0.000 C 
ENDBRANCH   4  26
TORSDOF 2
ENDMDL
MODEL 7
REMARK VINA RESULT:      -8.4      3.829      8.858
REMARK  Name = 
REMARK  2 active torsions:
REMARK  status: ('A' for Active; 'I' for Inactive)
REMARK    1  A    between atoms: C_4  and  N_5
REMARK    2  A    between atoms: C_14  and  C_15
REMARK                            x       y       z     vdW  Elec       q    Type
REMARK                         _______ _______ _______ _____ _____    ______ ____
ROOT
ATOM      1  O   UNL     1       2.452   3.740  20.341  0.00  0.00    +0.000 OA
ATOM      2  C   UNL     1       2.745   4.791  19.790  0.00  0.00    +0.000 A 
ATOM      3  C   UNL     1       3.805   4.852  18.775  0.00  0.00    +0.000 A 
ATOM      4  C   UNL     1       4.143   6.017  18.195  0.00  0.00    +0.000 A 
ATOM      5  O   UNL     1       3.499   7.211  18.518  0.00  0.00    +0.000 OA
ATOM      6  C   UNL     1       2.455   7.194  19.408  0.00  0.00    +0.000 A 
ATOM      7  C   UNL     1       1.784   8.401  19.628  0.00  0.00    +0.000 A 
ATOM      8  C   UNL     1       0.748   8.509  20.578  0.00  0.00    +0.000 A 
ATOM      9  C   UNL     1       0.392   7.329  21.266  0.00  0.00    +0.000 A 
ATOM     10  C   UNL     1       1.025   6.106  21.013  0.00  0.00    +0.000 A 
ATOM     11  C   UNL     1       2.060   6.053  20.084  0.00  0.00    +0.000 A 
ENDROOT
BRANCH   8  12
ATOM     12  C   UNL     1       0.040   9.798  20.848  0.00  0.00    +0.000 A 
ATOM     13  C   UNL     1       0.253  10.452  22.082  0.00  0.00    +0.000 A 
ATOM     14  C   UNL     1      -0.355  11.667  22.387  0.00  0.00    +0.000 A 
ATOM     15  C   UNL     1      -1.219  12.251  21.472  0.00  0.00    +0.000 A 
ATOM     16  C   UNL     1      -1.475  11.638  20.239  0.00  0.00    +0.000 A 
ATOM     17  C   UNL     1      -0.841  10.426  19.919  0.00  0.00    +0.000 A 
ATOM     18  O   UNL     1      -0.987   9.790  18.706  0.00  0.00    +0.000 OA
ATOM     19  C   UNL     1      -1.882  10.197  17.753  0.00  0.00    +0.000 A 
ATOM     20  C   UNL     1      -1.972   9.340  16.646  0.00  0.00    +0.000 A 
ATOM     21  C   UNL     1      -2.808   9.646  15.574  0.00  0.00    +0.000 A 
ATOM     22  C   UNL     1      -3.565  10.813  15.605  0.00  0.00    +0.000 A 
ATOM     23  C   UNL     1      -3.489  11.659  16.713  0.00  0.00    +0.000 A 
ATOM     24  C   UNL     1      -2.648  11.356  17.794  0.00  0.00    +0.000 A 
ATOM     25  S   UNL     1      -2.598  12.479  19.154  0.00  0.00    +0.000 S 
ENDBRANCH   8  12
BRANCH   4  26
ATOM     26  N   UNL     1       5.127   6.131  17.217  0.00  0.00    +0.000 N 
ATOM     27  C   UNL     1       5.118   5.322  15.978  0.00  0.00    +0.000 C 
ATOM     28  C   UNL     1       6.532   4.808  15.666  0.00  0.00    +0.000 C 
ATOM     29  O   UNL     1       7.491   5.877  15.611  0.00  0.00    +0.000 OA
ATOM     30  C   UNL     1       7.514   6.587  16.860  0.00  0.00    +0.000 C 
ATOM     31  C   UNL     1       6.142   7.199  17.178  0.00  0.00    +0.000 C 
ENDBRANCH   4  26
TORSDOF 2
ENDMDL
MODEL 8
REMARK VINA RESULT:      -8.4      3.687      9.035
REMARK  Name = 
REMARK  2 active torsions:
REMARK  status: ('A' for Active; 'I' for Inactive)
REMARK    1  A    between atoms: C_4  and  N_5
REMARK    2  A    between atoms: C_14  and  C_15
REMARK                            x       y       z     vdW  Elec       q    Type
REMARK                         _______ _______ _______ _____ _____    ______ ____
ROOT
ATOM      1  O   UNL     1       3.100   8.070  16.642  0.00  0.00    +0.000 OA
ATOM      2  C   UNL     1       2.723   7.765  17.765  0.00  0.00    +0.000 A 
ATOM      3  C   UNL     1       2.969   6.426  18.316  0.00  0.00    +0.000 A 
ATOM      4  C   UNL     1       2.524   6.088  19.539  0.00  0.00    +0.000 A 
ATOM      5  O   UNL     1       1.826   6.990  20.340  0.00  0.00    +0.000 OA
ATOM      6  C   UNL     1       1.632   8.275  19.899  0.00  0.00    +0.000 A 
ATOM      7  C   UNL     1       1.007   9.165  20.777  0.00  0.00    +0.000 A 
ATOM      8  C   UNL     1       0.693  10.486  20.393  0.00  0.00    +0.000 A 
ATOM      9  C   UNL     1       1.080  10.878  19.094  0.00  0.00    +0.000 A 
ATOM     10  C   UNL     1       1.753  10.007  18.228  0.00  0.00    +0.000 A 
ATOM     11  C   UNL     1       2.018   8.705  18.641  0.00  0.00    +0.000 A 
ENDROOT
BRANCH   8  12
ATOM     12  C   UNL     1      -0.002  11.441  21.310  0.00  0.00    +0.000 A 
ATOM     13  C   UNL     1      -0.882  10.932  22.291  0.00  0.00    +0.000 A 
ATOM     14  C   UNL     1      -1.543  11.764  23.192  0.00  0.00    +0.000 A 
ATOM     15  C   UNL     1      -1.361  13.138  23.117  0.00  0.00    +0.000 A 
ATOM     16  C   UNL     1      -0.510  13.694  22.155  0.00  0.00    +0.000 A 
ATOM     17  C   UNL     1       0.178  12.855  21.264  0.00  0.00    +0.000 A 
ATOM     18  O   UNL     1       1.082  13.314  20.331  0.00  0.00    +0.000 OA
ATOM     19  C   UNL     1       1.282  14.645  20.079  0.00  0.00    +0.000 A 
ATOM     20  C   UNL     1       2.144  14.902  19.003  0.00  0.00    +0.000 A 
ATOM     21  C   UNL     1       2.479  16.210  18.654  0.00  0.00    +0.000 A 
ATOM     22  C   UNL     1       1.949  17.271  19.381  0.00  0.00    +0.000 A 
ATOM     23  C   UNL     1       1.079  17.017  20.443  0.00  0.00    +0.000 A 
ATOM     24  C   UNL     1       0.739  15.703  20.798  0.00  0.00    +0.000 A 
ATOM     25  S   UNL     1      -0.360  15.461  22.158  0.00  0.00    +0.000 S 
ENDBRANCH   8  12
BRANCH   4  26
ATOM     26  N   UNL     1       2.742   4.842  20.118  0.00  0.00    +0.000 N 
ATOM     27  C   UNL     1       3.758   3.892  19.611  0.00  0.00    +0.000 C 
ATOM     28  C   UNL     1       3.188   2.466  19.581  0.00  0.00    +0.000 C 
ATOM     29  O   UNL     1       2.665   2.071  20.861  0.00  0.00    +0.000 OA
ATOM     30  C   UNL     1       1.634   2.981  21.277  0.00  0.00    +0.000 C 
ATOM     31  C   UNL     1       2.174   4.412  21.409  0.00  0.00    +0.000 C 
ENDBRANCH   4  26
TORSDOF 2
ENDMDL
MODEL 9
REMARK VINA RESULT:      -8.2      9.257     10.564
REMARK  Name = 
REMARK  2 active torsions:
REMARK  status: ('A' for Active; 'I' for Inactive)
REMARK    1  A    between atoms: C_4  and  N_5
REMARK    2  A    between atoms: C_14  and  C_15
REMARK                            x       y       z     vdW  Elec       q    Type
REMARK                         _______ _______ _______ _____ _____    ______ ____
ROOT
ATOM      1  O   UNL     1       8.080  15.842  26.278  0.00  0.00    +0.000 OA
ATOM      2  C   UNL     1       7.833  14.689  25.956  0.00  0.00    +0.000 A 
ATOM      3  C   UNL     1       7.081  13.792  26.844  0.00  0.00    +0.000 A 
ATOM      4  C   UNL     1       6.840  12.516  26.496  0.00  0.00    +0.000 A 
ATOM      5  O   UNL     1       7.276  11.992  25.280  0.00  0.00    +0.000 OA
ATOM      6  C   UNL     1       7.921  12.809  24.387  0.00  0.00    +0.000 A 
ATOM      7  C   UNL     1       8.256  12.260  23.146  0.00  0.00    +0.000 A 
ATOM      8  C   UNL     1       8.987  12.991  22.185  0.00  0.00    +0.000 A 
ATOM      9  C   UNL     1       9.325  14.320  22.522  0.00  0.00    +0.000 A 
ATOM     10  C   UNL     1       8.946  14.892  23.742  0.00  0.00    +0.000 A 
ATOM     11  C   UNL     1       8.249  14.124  24.670  0.00  0.00    +0.000 A 
ENDROOT
BRANCH   8  12
ATOM     12  C   UNL     1       9.380  12.409  20.865  0.00  0.00    +0.000 A 
ATOM     13  C   UNL     1       9.274  11.013  20.673  0.00  0.00    +0.000 A 
ATOM     14  C   UNL     1       9.600  10.409  19.462  0.00  0.00    +0.000 A 
ATOM     15  C   UNL     1      10.069  11.185  18.412  0.00  0.00    +0.000 A 
ATOM     16  C   UNL     1      10.204  12.572  18.554  0.00  0.00    +0.000 A 
ATOM     17  C   UNL     1       9.850  13.186  19.766  0.00  0.00    +0.000 A 
ATOM     18  O   UNL     1       9.891  14.548  19.969  0.00  0.00    +0.000 OA
ATOM     19  C   UNL     1      10.426  15.421  19.060  0.00  0.00    +0.000 A 
ATOM     20  C   UNL     1      10.494  16.748  19.509  0.00  0.00    +0.000 A 
ATOM     21  C   UNL     1      10.975  17.758  18.678  0.00  0.00    +0.000 A 
ATOM     22  C   UNL     1      11.395  17.446  17.389  0.00  0.00    +0.000 A 
ATOM     23  C   UNL     1      11.342  16.123  16.945  0.00  0.00    +0.000 A 
ATOM     24  C   UNL     1      10.859  15.102  17.778  0.00  0.00    +0.000 A 
ATOM     25  S   UNL     1      10.814  13.457  17.143  0.00  0.00    +0.000 S 
ENDBRANCH   8  12
BRANCH   4  26
ATOM     26  N   UNL     1       6.120  11.627  27.289  0.00  0.00    +0.000 N 
ATOM     27  C   UNL     1       6.719  10.921  28.444  0.00  0.00    +0.000 C 
ATOM     28  C   UNL     1       6.278   9.450  28.458  0.00  0.00    +0.000 C 
ATOM     29  O   UNL     1       4.847   9.319  28.425  0.00  0.00    +0.000 OA
ATOM     30  C   UNL     1       4.319   9.957  27.250  0.00  0.00    +0.000 C 
ATOM     31  C   UNL     1       4.657  11.455  27.231  0.00  0.00    +0.000 C 
ENDBRANCH   4  26
TORSDOF 2
ENDMDL
