MODEL 1
REMARK VINA RESULT:      -9.7      0.000      0.000
REMARK  Name = 
REMARK  5 active torsions:
REMARK  status: ('A' for Active; 'I' for Inactive)
REMARK    1  A    between atoms: C_4  and  C_5
REMARK    2  A    between atoms: C_11  and  C_12
REMARK    3  A    between atoms: N_19  and  C_20
REMARK    4  A    between atoms: C_20  and  C_21
REMARK    5  A    between atoms: N_25  and  C_26
REMARK                            x       y       z     vdW  Elec       q    Type
REMARK                         _______ _______ _______ _____ _____    ______ ____
ROOT
ATOM      1  O   UNL     1       7.426   4.240  18.385  0.00  0.00    +0.000 OA
ATOM      2  C   UNL     1       6.362   4.851  18.319  0.00  0.00    +0.000 A 
ATOM      3  N   UNL     1       5.216   4.305  18.823  0.00  0.00    +0.000 NA
ATOM      4  C   UNL     1       4.115   4.990  18.813  0.00  0.00    +0.000 A 
ATOM      5  C   UNL     1       4.120   6.442  18.356  0.00  0.00    +0.000 A 
ATOM      6  N   UNL     1       5.169   6.907  17.744  0.00  0.00    +0.000 NA
ATOM      7  N   UNL     1       6.273   6.084  17.675  0.00  0.00    +0.000 N 
ENDROOT
BRANCH   4   8
ATOM      8  C   UNL     1       2.873   4.284  19.228  0.00  0.00    +0.000 A 
ATOM      9  C   UNL     1       2.045   3.746  18.232  0.00  0.00    +0.000 A 
ATOM     10  C   UNL     1       0.899   3.032  18.583  0.00  0.00    +0.000 A 
ATOM     11  C   UNL     1       0.581   2.844  19.928  0.00  0.00    +0.000 A 
ATOM     12  C   UNL     1       1.385   3.401  20.921  0.00  0.00    +0.000 A 
ATOM     13  C   UNL     1       2.512   4.148  20.573  0.00  0.00    +0.000 A 
ENDBRANCH   4   8
BRANCH   5  14
ATOM     14  C   UNL     1       2.974   7.368  18.596  0.00  0.00    +0.000 A 
ATOM     15  C   UNL     1       2.497   8.221  17.594  0.00  0.00    +0.000 A 
ATOM     16  C   UNL     1       1.508   9.163  17.884  0.00  0.00    +0.000 A 
ATOM     17  C   UNL     1       0.937   9.206  19.154  0.00  0.00    +0.000 A 
ATOM     18  C   UNL     1       1.350   8.305  20.134  0.00  0.00    +0.000 A 
ATOM     19  C   UNL     1       2.369   7.390  19.860  0.00  0.00    +0.000 A 
ENDBRANCH   5  14
BRANCH   7  20
ATOM     20  C   UNL     1       7.474   6.639  17.064  0.00  0.00    +0.000 C 
BRANCH  20  21
ATOM     21  C   UNL     1       7.747   7.999  17.585  0.00  0.00    +0.000 A 
ATOM     22  N   UNL     1       7.275   9.155  17.166  0.00  0.00    +0.000 NA
ATOM     23  N   UNL     1       7.881  10.114  17.936  0.00  0.00    +0.000 NA
ATOM     24  C   UNL     1       8.685   9.495  18.775  0.00  0.00    +0.000 A 
ATOM     25  N   UNL     1       9.556   9.955  19.701  0.00  0.00    +0.000 N 
ATOM     26  O   UNL     1       8.652   8.136  18.607  0.00  0.00    +0.000 OA
ATOM     27  H   UNL     1      10.130   9.264  20.160  0.00  0.00    +0.000 HD
BRANCH  25  28
ATOM     28  C   UNL     1       9.997  11.289  19.809  0.00  0.00    +0.000 A 
ATOM     29  C   UNL     1      11.032  11.817  19.020  0.00  0.00    +0.000 A 
ATOM     30  C   UNL     1      11.544  13.097  19.249  0.00  0.00    +0.000 A 
ATOM     31  C   UNL     1      11.008  13.881  20.261  0.00  0.00    +0.000 A 
ATOM     32 CL   UNL     1      11.681  15.428  20.590  0.00  0.00    +0.000 Cl
ATOM     33  C   UNL     1       9.939  13.408  21.018  0.00  0.00    +0.000 A 
ATOM     34  C   UNL     1       9.433  12.123  20.787  0.00  0.00    +0.000 A 
ENDBRANCH  25  28
ENDBRANCH  20  21
ENDBRANCH   7  20
TORSDOF 5
ENDMDL
MODEL 2
REMARK VINA RESULT:      -9.4      0.200      1.466
REMARK  Name = 
REMARK  5 active torsions:
REMARK  status: ('A' for Active; 'I' for Inactive)
REMARK    1  A    between atoms: C_4  and  C_5
REMARK    2  A    between atoms: C_11  and  C_12
REMARK    3  A    between atoms: N_19  and  C_20
REMARK    4  A    between atoms: C_20  and  C_21
REMARK    5  A    between atoms: N_25  and  C_26
REMARK                            x       y       z     vdW  Elec       q    Type
REMARK                         _______ _______ _______ _____ _____    ______ ____
ROOT
ATOM      1  O   UNL     1       7.385   4.134  18.207  0.00  0.00    +0.000 OA
ATOM      2  C   UNL     1       6.337   4.776  18.189  0.00  0.00    +0.000 A 
ATOM      3  N   UNL     1       5.184   4.234  18.683  0.00  0.00    +0.000 NA
ATOM      4  C   UNL     1       4.102   4.948  18.726  0.00  0.00    +0.000 A 
ATOM      5  C   UNL     1       4.140   6.422  18.346  0.00  0.00    +0.000 A 
ATOM      6  N   UNL     1       5.193   6.890  17.743  0.00  0.00    +0.000 NA
ATOM      7  N   UNL     1       6.272   6.043  17.613  0.00  0.00    +0.000 N 
ENDROOT
BRANCH   4   8
ATOM      8  C   UNL     1       2.847   4.254  19.123  0.00  0.00    +0.000 A 
ATOM      9  C   UNL     1       2.597   4.056  20.489  0.00  0.00    +0.000 A 
ATOM     10  C   UNL     1       1.407   3.455  20.904  0.00  0.00    +0.000 A 
ATOM     11  C   UNL     1       0.462   3.059  19.959  0.00  0.00    +0.000 A 
ATOM     12  C   UNL     1       0.719   3.226  18.599  0.00  0.00    +0.000 A 
ATOM     13  C   UNL     1       1.924   3.793  18.178  0.00  0.00    +0.000 A 
ENDBRANCH   4   8
BRANCH   5  14
ATOM     14  C   UNL     1       3.024   7.363  18.653  0.00  0.00    +0.000 A 
ATOM     15  C   UNL     1       2.425   7.404  19.918  0.00  0.00    +0.000 A 
ATOM     16  C   UNL     1       1.302   8.204  20.139  0.00  0.00    +0.000 A 
ATOM     17  C   UNL     1       0.820   9.026  19.122  0.00  0.00    +0.000 A 
ATOM     18  C   UNL     1       1.462   9.052  17.885  0.00  0.00    +0.000 A 
ATOM     19  C   UNL     1       2.559   8.220  17.647  0.00  0.00    +0.000 A 
ENDBRANCH   5  14
BRANCH   7  20
ATOM     20  C   UNL     1       7.479   6.598  17.013  0.00  0.00    +0.000 C 
BRANCH  20  21
ATOM     21  C   UNL     1       7.779   7.935  17.577  0.00  0.00    +0.000 A 
ATOM     22  N   UNL     1       7.411   9.119  17.136  0.00  0.00    +0.000 NA
ATOM     23  N   UNL     1       7.997  10.034  17.971  0.00  0.00    +0.000 NA
ATOM     24  C   UNL     1       8.687   9.363  18.869  0.00  0.00    +0.000 A 
ATOM     25  N   UNL     1       9.495   9.764  19.875  0.00  0.00    +0.000 N 
ATOM     26  O   UNL     1       8.594   8.010  18.678  0.00  0.00    +0.000 OA
ATOM     27  H   UNL     1       9.987   9.037  20.372  0.00  0.00    +0.000 HD
BRANCH  25  28
ATOM     28  C   UNL     1       9.998  11.070  20.042  0.00  0.00    +0.000 A 
ATOM     29  C   UNL     1       9.427  12.000  20.925  0.00  0.00    +0.000 A 
ATOM     30  C   UNL     1       9.857  13.329  20.962  0.00  0.00    +0.000 A 
ATOM     31  C   UNL     1      10.888  13.743  20.130  0.00  0.00    +0.000 A 
ATOM     32 CL   UNL     1      11.373  15.392  20.124  0.00  0.00    +0.000 Cl
ATOM     33  C   UNL     1      11.516  12.827  19.290  0.00  0.00    +0.000 A 
ATOM     34  C   UNL     1      11.078  11.497  19.253  0.00  0.00    +0.000 A 
ENDBRANCH  25  28
ENDBRANCH  20  21
ENDBRANCH   7  20
TORSDOF 5
ENDMDL
MODEL 3
REMARK VINA RESULT:      -9.3      1.072      1.250
REMARK  Name = 
REMARK  5 active torsions:
REMARK  status: ('A' for Active; 'I' for Inactive)
REMARK    1  A    between atoms: C_4  and  C_5
REMARK    2  A    between atoms: C_11  and  C_12
REMARK    3  A    between atoms: N_19  and  C_20
REMARK    4  A    between atoms: C_20  and  C_21
REMARK    5  A    between atoms: N_25  and  C_26
REMARK                            x       y       z     vdW  Elec       q    Type
REMARK                         _______ _______ _______ _____ _____    ______ ____
ROOT
ATOM      1  O   UNL     1       7.249   4.343  18.162  0.00  0.00    +0.000 OA
ATOM      2  C   UNL     1       6.178   4.945  18.159  0.00  0.00    +0.000 A 
ATOM      3  N   UNL     1       5.077   4.407  18.765  0.00  0.00    +0.000 NA
ATOM      4  C   UNL     1       3.973   5.085  18.819  0.00  0.00    +0.000 A 
ATOM      5  C   UNL     1       3.931   6.523  18.323  0.00  0.00    +0.000 A 
ATOM      6  N   UNL     1       4.927   6.977  17.620  0.00  0.00    +0.000 NA
ATOM      7  N   UNL     1       6.029   6.159  17.490  0.00  0.00    +0.000 N 
ENDROOT
BRANCH   4   8
ATOM      8  C   UNL     1       2.772   4.383  19.348  0.00  0.00    +0.000 A 
ATOM      9  C   UNL     1       1.830   3.891  18.434  0.00  0.00    +0.000 A 
ATOM     10  C   UNL     1       0.717   3.181  18.887  0.00  0.00    +0.000 A 
ATOM     11  C   UNL     1       0.546   2.954  20.252  0.00  0.00    +0.000 A 
ATOM     12  C   UNL     1       1.464   3.466  21.167  0.00  0.00    +0.000 A 
ATOM     13  C   UNL     1       2.559   4.208  20.720  0.00  0.00    +0.000 A 
ENDBRANCH   4   8
BRANCH   5  14
ATOM     14  C   UNL     1       2.800   7.448  18.624  0.00  0.00    +0.000 A 
ATOM     15  C   UNL     1       2.256   8.286  17.643  0.00  0.00    +0.000 A 
ATOM     16  C   UNL     1       1.284   9.229  17.984  0.00  0.00    +0.000 A 
ATOM     17  C   UNL     1       0.796   9.288  19.288  0.00  0.00    +0.000 A 
ATOM     18  C   UNL     1       1.273   8.400  20.250  0.00  0.00    +0.000 A 
ATOM     19  C   UNL     1       2.277   7.485  19.924  0.00  0.00    +0.000 A 
ENDBRANCH   5  14
BRANCH   7  20
ATOM     20  C   UNL     1       7.176   6.704  16.774  0.00  0.00    +0.000 C 
BRANCH  20  21
ATOM     21  C   UNL     1       7.885   7.706  17.604  0.00  0.00    +0.000 A 
ATOM     22  N   UNL     1       8.407   7.565  18.803  0.00  0.00    +0.000 NA
ATOM     23  N   UNL     1       8.888   8.799  19.156  0.00  0.00    +0.000 NA
ATOM     24  C   UNL     1       8.633   9.621  18.159  0.00  0.00    +0.000 A 
ATOM     25  N   UNL     1       8.833  10.949  18.007  0.00  0.00    +0.000 N 
ATOM     26  O   UNL     1       7.990   8.989  17.128  0.00  0.00    +0.000 OA
ATOM     27  H   UNL     1       8.459  11.365  17.167  0.00  0.00    +0.000 HD
BRANCH  25  28
ATOM     28  C   UNL     1       9.159  11.846  19.043  0.00  0.00    +0.000 A 
ATOM     29  C   UNL     1       9.730  11.433  20.258  0.00  0.00    +0.000 A 
ATOM     30  C   UNL     1       9.907  12.324  21.320  0.00  0.00    +0.000 A 
ATOM     31  C   UNL     1       9.538  13.654  21.172  0.00  0.00    +0.000 A 
ATOM     32 CL   UNL     1       9.693  14.736  22.498  0.00  0.00    +0.000 Cl
ATOM     33  C   UNL     1       9.030  14.105  19.957  0.00  0.00    +0.000 A 
ATOM     34  C   UNL     1       8.849  13.207  18.897  0.00  0.00    +0.000 A 
ENDBRANCH  25  28
ENDBRANCH  20  21
ENDBRANCH   7  20
TORSDOF 5
ENDMDL
MODEL 4
REMARK VINA RESULT:      -8.8      0.975      1.672
REMARK  Name = 
REMARK  5 active torsions:
REMARK  status: ('A' for Active; 'I' for Inactive)
REMARK    1  A    between atoms: C_4  and  C_5
REMARK    2  A    between atoms: C_11  and  C_12
REMARK    3  A    between atoms: N_19  and  C_20
REMARK    4  A    between atoms: C_20  and  C_21
REMARK    5  A    between atoms: N_25  and  C_26
REMARK                            x       y       z     vdW  Elec       q    Type
REMARK                         _______ _______ _______ _____ _____    ______ ____
ROOT
ATOM      1  O   UNL     1       7.358   4.299  18.157  0.00  0.00    +0.000 OA
ATOM      2  C   UNL     1       6.292   4.911  18.170  0.00  0.00    +0.000 A 
ATOM      3  N   UNL     1       5.189   4.368  18.766  0.00  0.00    +0.000 NA
ATOM      4  C   UNL     1       4.090   5.054  18.837  0.00  0.00    +0.000 A 
ATOM      5  C   UNL     1       4.060   6.503  18.372  0.00  0.00    +0.000 A 
ATOM      6  N   UNL     1       5.058   6.963  17.676  0.00  0.00    +0.000 NA
ATOM      7  N   UNL     1       6.153   6.139  17.526  0.00  0.00    +0.000 N 
ENDROOT
BRANCH   4   8
ATOM      8  C   UNL     1       2.885   4.351  19.354  0.00  0.00    +0.000 A 
ATOM      9  C   UNL     1       2.823   4.046  20.721  0.00  0.00    +0.000 A 
ATOM     10  C   UNL     1       1.688   3.434  21.253  0.00  0.00    +0.000 A 
ATOM     11  C   UNL     1       0.607   3.133  20.424  0.00  0.00    +0.000 A 
ATOM     12  C   UNL     1       0.676   3.407  19.059  0.00  0.00    +0.000 A 
ATOM     13  C   UNL     1       1.825   3.985  18.517  0.00  0.00    +0.000 A 
ENDBRANCH   4   8
BRANCH   5  14
ATOM     14  C   UNL     1       2.936   7.431  18.695  0.00  0.00    +0.000 A 
ATOM     15  C   UNL     1       2.309   7.416  19.946  0.00  0.00    +0.000 A 
ATOM     16  C   UNL     1       1.181   8.207  20.177  0.00  0.00    +0.000 A 
ATOM     17  C   UNL     1       0.722   9.073  19.187  0.00  0.00    +0.000 A 
ATOM     18  C   UNL     1       1.392   9.154  17.967  0.00  0.00    +0.000 A 
ATOM     19  C   UNL     1       2.494   8.332  17.717  0.00  0.00    +0.000 A 
ENDBRANCH   5  14
BRANCH   7  20
ATOM     20  C   UNL     1       7.302   6.690  16.819  0.00  0.00    +0.000 C 
BRANCH  20  21
ATOM     21  C   UNL     1       7.956   7.748  17.625  0.00  0.00    +0.000 A 
ATOM     22  N   UNL     1       8.432   7.678  18.850  0.00  0.00    +0.000 NA
ATOM     23  N   UNL     1       8.873   8.939  19.158  0.00  0.00    +0.000 NA
ATOM     24  C   UNL     1       8.642   9.704  18.111  0.00  0.00    +0.000 A 
ATOM     25  N   UNL     1       8.821  11.027  17.900  0.00  0.00    +0.000 N 
ATOM     26  O   UNL     1       8.054   9.007  17.089  0.00  0.00    +0.000 OA
ATOM     27  H   UNL     1       8.473  11.392  17.025  0.00  0.00    +0.000 HD
BRANCH  25  28
ATOM     28  C   UNL     1       9.086  11.981  18.901  0.00  0.00    +0.000 A 
ATOM     29  C   UNL     1       8.585  13.292  18.859  0.00  0.00    +0.000 A 
ATOM     30  C   UNL     1       8.983  14.256  19.789  0.00  0.00    +0.000 A 
ATOM     31  C   UNL     1       9.874  13.913  20.797  0.00  0.00    +0.000 A 
ATOM     32 CL   UNL     1      10.418  15.112  21.901  0.00  0.00    +0.000 Cl
ATOM     33  C   UNL     1      10.338  12.605  20.902  0.00  0.00    +0.000 A 
ATOM     34  C   UNL     1       9.940  11.644  19.964  0.00  0.00    +0.000 A 
ENDBRANCH  25  28
ENDBRANCH  20  21
ENDBRANCH   7  20
TORSDOF 5
ENDMDL
MODEL 5
REMARK VINA RESULT:      -8.1      6.443     10.553
REMARK  Name = 
REMARK  5 active torsions:
REMARK  status: ('A' for Active; 'I' for Inactive)
REMARK    1  A    between atoms: C_4  and  C_5
REMARK    2  A    between atoms: C_11  and  C_12
REMARK    3  A    between atoms: N_19  and  C_20
REMARK    4  A    between atoms: C_20  and  C_21
REMARK    5  A    between atoms: N_25  and  C_26
REMARK                            x       y       z     vdW  Elec       q    Type
REMARK                         _______ _______ _______ _____ _____    ______ ____
ROOT
ATOM      1  O   UNL     1      -1.500  12.002  19.443  0.00  0.00    +0.000 OA
ATOM      2  C   UNL     1      -0.448  12.544  19.779  0.00  0.00    +0.000 A 
ATOM      3  N   UNL     1      -0.020  13.677  19.148  0.00  0.00    +0.000 NA
ATOM      4  C   UNL     1       1.053  14.280  19.560  0.00  0.00    +0.000 A 
ATOM      5  C   UNL     1       1.765  13.801  20.817  0.00  0.00    +0.000 A 
ATOM      6  N   UNL     1       1.445  12.647  21.323  0.00  0.00    +0.000 NA
ATOM      7  N   UNL     1       0.370  11.990  20.761  0.00  0.00    +0.000 N 
ENDROOT
BRANCH   4   8
ATOM      8  C   UNL     1       1.553  15.413  18.736  0.00  0.00    +0.000 A 
ATOM      9  C   UNL     1       2.777  15.265  18.069  0.00  0.00    +0.000 A 
ATOM     10  C   UNL     1       3.254  16.284  17.244  0.00  0.00    +0.000 A 
ATOM     11  C   UNL     1       2.508  17.450  17.076  0.00  0.00    +0.000 A 
ATOM     12  C   UNL     1       1.305  17.615  17.761  0.00  0.00    +0.000 A 
ATOM     13  C   UNL     1       0.842  16.612  18.615  0.00  0.00    +0.000 A 
ENDBRANCH   4   8
BRANCH   5  14
ATOM     14  C   UNL     1       2.810  14.611  21.510  0.00  0.00    +0.000 A 
ATOM     15  C   UNL     1       4.161  14.246  21.479  0.00  0.00    +0.000 A 
ATOM     16  C   UNL     1       5.097  14.951  22.240  0.00  0.00    +0.000 A 
ATOM     17  C   UNL     1       4.702  16.068  22.972  0.00  0.00    +0.000 A 
ATOM     18  C   UNL     1       3.373  16.486  22.941  0.00  0.00    +0.000 A 
ATOM     19  C   UNL     1       2.425  15.758  22.217  0.00  0.00    +0.000 A 
ENDBRANCH   5  14
BRANCH   7  20
ATOM     20  C   UNL     1      -0.039  10.738  21.385  0.00  0.00    +0.000 C 
BRANCH  20  21
ATOM     21  C   UNL     1       0.689   9.593  20.790  0.00  0.00    +0.000 A 
ATOM     22  N   UNL     1       1.137   9.448  19.561  0.00  0.00    +0.000 NA
ATOM     23  N   UNL     1       1.679   8.190  19.500  0.00  0.00    +0.000 NA
ATOM     24  C   UNL     1       1.532   7.640  20.687  0.00  0.00    +0.000 A 
ATOM     25  N   UNL     1       1.827   6.408  21.157  0.00  0.00    +0.000 N 
ATOM     26  O   UNL     1       0.904   8.482  21.566  0.00  0.00    +0.000 OA
ATOM     27  H   UNL     1       1.526   6.203  22.098  0.00  0.00    +0.000 HD
BRANCH  25  28
ATOM     28  C   UNL     1       2.156   5.292  20.361  0.00  0.00    +0.000 A 
ATOM     29  C   UNL     1       1.278   4.217  20.153  0.00  0.00    +0.000 A 
ATOM     30  C   UNL     1       1.685   3.062  19.480  0.00  0.00    +0.000 A 
ATOM     31  C   UNL     1       2.977   2.976  18.981  0.00  0.00    +0.000 A 
ATOM     32 CL   UNL     1       3.502   1.531  18.213  0.00  0.00    +0.000 Cl
ATOM     33  C   UNL     1       3.850   4.052  19.117  0.00  0.00    +0.000 A 
ATOM     34  C   UNL     1       3.438   5.206  19.796  0.00  0.00    +0.000 A 
ENDBRANCH  25  28
ENDBRANCH  20  21
ENDBRANCH   7  20
TORSDOF 5
ENDMDL
MODEL 6
REMARK VINA RESULT:      -8.0      4.491      7.739
REMARK  Name = 
REMARK  5 active torsions:
REMARK  status: ('A' for Active; 'I' for Inactive)
REMARK    1  A    between atoms: C_4  and  C_5
REMARK    2  A    between atoms: C_11  and  C_12
REMARK    3  A    between atoms: N_19  and  C_20
REMARK    4  A    between atoms: C_20  and  C_21
REMARK    5  A    between atoms: N_25  and  C_26
REMARK                            x       y       z     vdW  Elec       q    Type
REMARK                         _______ _______ _______ _____ _____    ______ ____
ROOT
ATOM      1  O   UNL     1       2.230   2.337  17.344  0.00  0.00    +0.000 OA
ATOM      2  C   UNL     1       3.232   3.043  17.435  0.00  0.00    +0.000 A 
ATOM      3  N   UNL     1       3.986   3.322  16.331  0.00  0.00    +0.000 NA
ATOM      4  C   UNL     1       4.998   4.128  16.427  0.00  0.00    +0.000 A 
ATOM      5  C   UNL     1       5.274   4.860  17.733  0.00  0.00    +0.000 A 
ATOM      6  N   UNL     1       4.651   4.484  18.810  0.00  0.00    +0.000 NA
ATOM      7  N   UNL     1       3.667   3.528  18.667  0.00  0.00    +0.000 N 
ENDROOT
BRANCH   4   8
ATOM      8  C   UNL     1       5.871   4.265  15.230  0.00  0.00    +0.000 A 
ATOM      9  C   UNL     1       5.414   3.752  14.007  0.00  0.00    +0.000 A 
ATOM     10  C   UNL     1       6.181   3.907  12.851  0.00  0.00    +0.000 A 
ATOM     11  C   UNL     1       7.400   4.581  12.910  0.00  0.00    +0.000 A 
ATOM     12  C   UNL     1       7.872   5.067  14.128  0.00  0.00    +0.000 A 
ATOM     13  C   UNL     1       7.126   4.882  15.293  0.00  0.00    +0.000 A 
ENDBRANCH   4   8
BRANCH   5  14
ATOM     14  C   UNL     1       6.220   6.010  17.829  0.00  0.00    +0.000 A 
ATOM     15  C   UNL     1       5.993   7.207  17.139  0.00  0.00    +0.000 A 
ATOM     16  C   UNL     1       6.957   8.217  17.148  0.00  0.00    +0.000 A 
ATOM     17  C   UNL     1       8.116   8.069  17.908  0.00  0.00    +0.000 A 
ATOM     18  C   UNL     1       8.310   6.915  18.663  0.00  0.00    +0.000 A 
ATOM     19  C   UNL     1       7.369   5.883  18.622  0.00  0.00    +0.000 A 
ENDBRANCH   5  14
BRANCH   7  20
ATOM     20  C   UNL     1       2.914   3.171  19.862  0.00  0.00    +0.000 C 
BRANCH  20  21
ATOM     21  C   UNL     1       2.055   4.297  20.297  0.00  0.00    +0.000 A 
ATOM     22  N   UNL     1       0.741   4.359  20.357  0.00  0.00    +0.000 NA
ATOM     23  N   UNL     1       0.440   5.634  20.761  0.00  0.00    +0.000 NA
ATOM     24  C   UNL     1       1.578   6.276  20.921  0.00  0.00    +0.000 A 
ATOM     25  N   UNL     1       1.856   7.559  21.244  0.00  0.00    +0.000 N 
ATOM     26  O   UNL     1       2.657   5.481  20.641  0.00  0.00    +0.000 OA
ATOM     27  H   UNL     1       2.828   7.828  21.214  0.00  0.00    +0.000 HD
BRANCH  25  28
ATOM     28  C   UNL     1       0.926   8.617  21.243  0.00  0.00    +0.000 A 
ATOM     29  C   UNL     1       0.591   9.337  20.085  0.00  0.00    +0.000 A 
ATOM     30  C   UNL     1      -0.223  10.472  20.142  0.00  0.00    +0.000 A 
ATOM     31  C   UNL     1      -0.738  10.889  21.362  0.00  0.00    +0.000 A 
ATOM     32 CL   UNL     1      -1.683  12.323  21.445  0.00  0.00    +0.000 Cl
ATOM     33  C   UNL     1      -0.475  10.158  22.516  0.00  0.00    +0.000 A 
ATOM     34  C   UNL     1       0.346   9.024  22.455  0.00  0.00    +0.000 A 
ENDBRANCH  25  28
ENDBRANCH  20  21
ENDBRANCH   7  20
TORSDOF 5
ENDMDL
MODEL 7
REMARK VINA RESULT:      -7.9      6.280      9.780
REMARK  Name = 
REMARK  5 active torsions:
REMARK  status: ('A' for Active; 'I' for Inactive)
REMARK    1  A    between atoms: C_4  and  C_5
REMARK    2  A    between atoms: C_11  and  C_12
REMARK    3  A    between atoms: N_19  and  C_20
REMARK    4  A    between atoms: C_20  and  C_21
REMARK    5  A    between atoms: N_25  and  C_26
REMARK                            x       y       z     vdW  Elec       q    Type
REMARK                         _______ _______ _______ _____ _____    ______ ____
ROOT
ATOM      1  O   UNL     1       0.070  10.572  21.769  0.00  0.00    +0.000 OA
ATOM      2  C   UNL     1       0.323  11.607  21.156  0.00  0.00    +0.000 A 
ATOM      3  N   UNL     1       0.663  12.746  21.829  0.00  0.00    +0.000 NA
ATOM      4  C   UNL     1       1.000  13.811  21.169  0.00  0.00    +0.000 A 
ATOM      5  C   UNL     1       1.138  13.761  19.654  0.00  0.00    +0.000 A 
ATOM      6  N   UNL     1       0.675  12.729  19.012  0.00  0.00    +0.000 NA
ATOM      7  N   UNL     1       0.212  11.674  19.769  0.00  0.00    +0.000 N 
ENDROOT
BRANCH   4   8
ATOM      8  C   UNL     1       1.203  15.059  21.953  0.00  0.00    +0.000 A 
ATOM      9  C   UNL     1       2.516  15.491  22.194  0.00  0.00    +0.000 A 
ATOM     10  C   UNL     1       2.747  16.683  22.880  0.00  0.00    +0.000 A 
ATOM     11  C   UNL     1       1.671  17.452  23.321  0.00  0.00    +0.000 A 
ATOM     12  C   UNL     1       0.365  17.012  23.111  0.00  0.00    +0.000 A 
ATOM     13  C   UNL     1       0.130  15.801  22.457  0.00  0.00    +0.000 A 
ENDBRANCH   4   8
BRANCH   5  14
ATOM     14  C   UNL     1       1.801  14.843  18.868  0.00  0.00    +0.000 A 
ATOM     15  C   UNL     1       1.224  16.111  18.733  0.00  0.00    +0.000 A 
ATOM     16  C   UNL     1       1.804  17.061  17.890  0.00  0.00    +0.000 A 
ATOM     17  C   UNL     1       3.003  16.777  17.240  0.00  0.00    +0.000 A 
ATOM     18  C   UNL     1       3.627  15.546  17.435  0.00  0.00    +0.000 A 
ATOM     19  C   UNL     1       3.027  14.577  18.243  0.00  0.00    +0.000 A 
ENDBRANCH   5  14
BRANCH   7  20
ATOM     20  C   UNL     1      -0.227  10.485  19.047  0.00  0.00    +0.000 C 
BRANCH  20  21
ATOM     21  C   UNL     1       0.937   9.719  18.542  0.00  0.00    +0.000 A 
ATOM     22  N   UNL     1       1.686   9.956  17.486  0.00  0.00    +0.000 NA
ATOM     23  N   UNL     1       2.585   8.923  17.419  0.00  0.00    +0.000 NA
ATOM     24  C   UNL     1       2.335   8.118  18.431  0.00  0.00    +0.000 A 
ATOM     25  N   UNL     1       2.873   6.934  18.799  0.00  0.00    +0.000 N 
ATOM     26  O   UNL     1       1.290   8.565  19.194  0.00  0.00    +0.000 OA
ATOM     27  H   UNL     1       2.435   6.466  19.579  0.00  0.00    +0.000 HD
BRANCH  25  28
ATOM     28  C   UNL     1       3.707   6.134  17.993  0.00  0.00    +0.000 A 
ATOM     29  C   UNL     1       4.884   6.617  17.397  0.00  0.00    +0.000 A 
ATOM     30  C   UNL     1       5.611   5.844  16.488  0.00  0.00    +0.000 A 
ATOM     31  C   UNL     1       5.183   4.560  16.179  0.00  0.00    +0.000 A 
ATOM     32 CL   UNL     1       6.037   3.633  15.011  0.00  0.00    +0.000 Cl
ATOM     33  C   UNL     1       4.056   4.032  16.803  0.00  0.00    +0.000 A 
ATOM     34  C   UNL     1       3.328   4.813  17.710  0.00  0.00    +0.000 A 
ENDBRANCH  25  28
ENDBRANCH  20  21
ENDBRANCH   7  20
TORSDOF 5
ENDMDL
MODEL 8
REMARK VINA RESULT:      -7.8      4.476      7.774
REMARK  Name = 
REMARK  5 active torsions:
REMARK  status: ('A' for Active; 'I' for Inactive)
REMARK    1  A    between atoms: C_4  and  C_5
REMARK    2  A    between atoms: C_11  and  C_12
REMARK    3  A    between atoms: N_19  and  C_20
REMARK    4  A    between atoms: C_20  and  C_21
REMARK    5  A    between atoms: N_25  and  C_26
REMARK                            x       y       z     vdW  Elec       q    Type
REMARK                         _______ _______ _______ _____ _____    ______ ____
ROOT
ATOM      1  O   UNL     1       2.099   2.548  17.093  0.00  0.00    +0.000 OA
ATOM      2  C   UNL     1       3.147   3.178  17.218  0.00  0.00    +0.000 A 
ATOM      3  N   UNL     1       3.926   3.451  16.129  0.00  0.00    +0.000 NA
ATOM      4  C   UNL     1       4.992   4.179  16.263  0.00  0.00    +0.000 A 
ATOM      5  C   UNL     1       5.311   4.831  17.601  0.00  0.00    +0.000 A 
ATOM      6  N   UNL     1       4.657   4.452  18.659  0.00  0.00    +0.000 NA
ATOM      7  N   UNL     1       3.609   3.576  18.471  0.00  0.00    +0.000 N 
ENDROOT
BRANCH   4   8
ATOM      8  C   UNL     1       5.879   4.307  15.076  0.00  0.00    +0.000 A 
ATOM      9  C   UNL     1       5.493   3.678  13.883  0.00  0.00    +0.000 A 
ATOM     10  C   UNL     1       6.272   3.818  12.733  0.00  0.00    +0.000 A 
ATOM     11  C   UNL     1       7.432   4.591  12.768  0.00  0.00    +0.000 A 
ATOM     12  C   UNL     1       7.835   5.193  13.959  0.00  0.00    +0.000 A 
ATOM     13  C   UNL     1       7.079   5.025  15.120  0.00  0.00    +0.000 A 
ENDBRANCH   4   8
BRANCH   5  14
ATOM     14  C   UNL     1       6.335   5.906  17.751  0.00  0.00    +0.000 A 
ATOM     15  C   UNL     1       7.466   5.734  18.558  0.00  0.00    +0.000 A 
ATOM     16  C   UNL     1       8.341   6.800  18.778  0.00  0.00    +0.000 A 
ATOM     17  C   UNL     1       8.133   8.018  18.133  0.00  0.00    +0.000 A 
ATOM     18  C   UNL     1       7.056   8.169  17.263  0.00  0.00    +0.000 A 
ATOM     19  C   UNL     1       6.154   7.119  17.074  0.00  0.00    +0.000 A 
ENDBRANCH   5  14
BRANCH   7  20
ATOM     20  C   UNL     1       2.825   3.220  19.647  0.00  0.00    +0.000 C 
BRANCH  20  21
ATOM     21  C   UNL     1       2.089   4.398  20.163  0.00  0.00    +0.000 A 
ATOM     22  N   UNL     1       0.817   4.501  20.486  0.00  0.00    +0.000 NA
ATOM     23  N   UNL     1       0.622   5.809  20.846  0.00  0.00    +0.000 NA
ATOM     24  C   UNL     1       1.777   6.429  20.722  0.00  0.00    +0.000 A 
ATOM     25  N   UNL     1       2.133   7.723  20.884  0.00  0.00    +0.000 N 
ATOM     26  O   UNL     1       2.765   5.586  20.288  0.00  0.00    +0.000 OA
ATOM     27  H   UNL     1       3.081   7.961  20.636  0.00  0.00    +0.000 HD
BRANCH  25  28
ATOM     28  C   UNL     1       1.236   8.804  20.994  0.00  0.00    +0.000 A 
ATOM     29  C   UNL     1       0.592   9.143  22.195  0.00  0.00    +0.000 A 
ATOM     30  C   UNL     1      -0.399  10.127  22.239  0.00  0.00    +0.000 A 
ATOM     31  C   UNL     1      -0.744  10.808  21.079  0.00  0.00    +0.000 A 
ATOM     32 CL   UNL     1      -2.010  11.970  21.116  0.00  0.00    +0.000 Cl
ATOM     33  C   UNL     1      -0.078  10.537  19.887  0.00  0.00    +0.000 A 
ATOM     34  C   UNL     1       0.911   9.547  19.848  0.00  0.00    +0.000 A 
ENDBRANCH  25  28
ENDBRANCH  20  21
ENDBRANCH   7  20
TORSDOF 5
ENDMDL
MODEL 9
REMARK VINA RESULT:      -7.7      5.384      8.570
REMARK  Name = 
REMARK  5 active torsions:
REMARK  status: ('A' for Active; 'I' for Inactive)
REMARK    1  A    between atoms: C_4  and  C_5
REMARK    2  A    between atoms: C_11  and  C_12
REMARK    3  A    between atoms: N_19  and  C_20
REMARK    4  A    between atoms: C_20  and  C_21
REMARK    5  A    between atoms: N_25  and  C_26
REMARK                            x       y       z     vdW  Elec       q    Type
REMARK                         _______ _______ _______ _____ _____    ______ ____
ROOT
ATOM      1  O   UNL     1       2.071   9.629  22.402  0.00  0.00    +0.000 OA
ATOM      2  C   UNL     1       1.102   9.852  21.680  0.00  0.00    +0.000 A 
ATOM      3  N   UNL     1       0.532  11.093  21.647  0.00  0.00    +0.000 NA
ATOM      4  C   UNL     1      -0.444  11.335  20.827  0.00  0.00    +0.000 A 
ATOM      5  C   UNL     1      -0.873  10.281  19.816  0.00  0.00    +0.000 A 
ATOM      6  N   UNL     1      -0.435   9.064  19.948  0.00  0.00    +0.000 NA
ATOM      7  N   UNL     1       0.513   8.840  20.924  0.00  0.00    +0.000 N 
ENDROOT
BRANCH   4   8
ATOM      8  C   UNL     1      -1.123  12.652  20.952  0.00  0.00    +0.000 A 
ATOM      9  C   UNL     1      -0.638  13.729  20.195  0.00  0.00    +0.000 A 
ATOM     10  C   UNL     1      -1.279  14.967  20.245  0.00  0.00    +0.000 A 
ATOM     11  C   UNL     1      -2.412  15.132  21.042  0.00  0.00    +0.000 A 
ATOM     12  C   UNL     1      -2.880  14.073  21.819  0.00  0.00    +0.000 A 
ATOM     13  C   UNL     1      -2.219  12.844  21.800  0.00  0.00    +0.000 A 
ENDBRANCH   4   8
BRANCH   5  14
ATOM     14  C   UNL     1      -1.768  10.588  18.661  0.00  0.00    +0.000 A 
ATOM     15  C   UNL     1      -2.936  11.343  18.819  0.00  0.00    +0.000 A 
ATOM     16  C   UNL     1      -3.817  11.507  17.747  0.00  0.00    +0.000 A 
ATOM     17  C   UNL     1      -3.497  10.986  16.495  0.00  0.00    +0.000 A 
ATOM     18  C   UNL     1      -2.295  10.305  16.311  0.00  0.00    +0.000 A 
ATOM     19  C   UNL     1      -1.432  10.100  17.391  0.00  0.00    +0.000 A 
ENDBRANCH   5  14
BRANCH   7  20
ATOM     20  C   UNL     1       1.064   7.493  21.013  0.00  0.00    +0.000 C 
BRANCH  20  21
ATOM     21  C   UNL     1       2.090   7.277  19.966  0.00  0.00    +0.000 A 
ATOM     22  N   UNL     1       2.255   7.914  18.827  0.00  0.00    +0.000 NA
ATOM     23  N   UNL     1       3.300   7.294  18.192  0.00  0.00    +0.000 NA
ATOM     24  C   UNL     1       3.711   6.317  18.974  0.00  0.00    +0.000 A 
ATOM     25  N   UNL     1       4.657   5.365  18.812  0.00  0.00    +0.000 N 
ATOM     26  O   UNL     1       2.981   6.245  20.130  0.00  0.00    +0.000 OA
ATOM     27  H   UNL     1       4.717   4.665  19.536  0.00  0.00    +0.000 HD
BRANCH  25  28
ATOM     28  C   UNL     1       5.284   5.042  17.592  0.00  0.00    +0.000 A 
ATOM     29  C   UNL     1       6.540   5.550  17.221  0.00  0.00    +0.000 A 
ATOM     30  C   UNL     1       7.069   5.328  15.947  0.00  0.00    +0.000 A 
ATOM     31  C   UNL     1       6.357   4.569  15.029  0.00  0.00    +0.000 A 
ATOM     32 CL   UNL     1       6.973   4.351  13.439  0.00  0.00    +0.000 Cl
ATOM     33  C   UNL     1       5.139   4.000  15.390  0.00  0.00    +0.000 A 
ATOM     34  C   UNL     1       4.611   4.230  16.667  0.00  0.00    +0.000 A 
ENDBRANCH  25  28
ENDBRANCH  20  21
ENDBRANCH   7  20
TORSDOF 5
ENDMDL
