MODEL 1
REMARK VINA RESULT:      -6.7      0.000      0.000
REMARK  Name = 
REMARK  4 active torsions:
REMARK  status: ('A' for Active; 'I' for Inactive)
REMARK    1  A    between atoms: O_1  and  C_2
REMARK    2  A    between atoms: C_2  and  C_3
REMARK    3  A    between atoms: C_3  and  N_4
REMARK    4  A    between atoms: N_7  and  C_8
REMARK                            x       y       z     vdW  Elec       q    Type
REMARK                         _______ _______ _______ _____ _____    ______ ____
ROOT
ATOM      1  C   UNL     1       2.705   5.814  17.704  0.00  0.00    +0.000 C 
ATOM      2  C   UNL     1       1.765   4.584  17.697  0.00  0.00    +0.000 C 
ATOM      3  N   UNL     1       1.939   3.608  18.753  0.00  0.00    +0.000 N 
ATOM      4  C   UNL     1       1.959   2.246  18.495  0.00  0.00    +0.000 A 
ATOM      5  C   UNL     1       2.182   1.581  19.680  0.00  0.00    +0.000 A 
ATOM      6  C   UNL     1       2.240   2.559  20.687  0.00  0.00    +0.000 A 
ATOM      7  C   UNL     1       2.041   3.796  20.103  0.00  0.00    +0.000 A 
ATOM      8  S   UNL     1       1.886   5.248  21.009  0.00  0.00    +0.000 S 
ATOM      9  C   UNL     1       1.877   6.698  20.010  0.00  0.00    +0.000 A 
ATOM     10  C   UNL     1       1.588   7.853  20.782  0.00  0.00    +0.000 A 
ATOM     11  C   UNL     1       1.543   9.141  20.242  0.00  0.00    +0.000 A 
ATOM     12  C   UNL     1       1.726   9.296  18.884  0.00  0.00    +0.000 A 
ATOM     13 CL   UNL     1       1.671  10.862  18.178  0.00  0.00    +0.000 Cl
ATOM     14  C   UNL     1       1.995   8.186  18.094  0.00  0.00    +0.000 A 
ATOM     15  C   UNL     1       2.148   6.884  18.650  0.00  0.00    +0.000 A 
ENDROOT
BRANCH   1  19
ATOM     16  N   UNL     1       5.503   5.319  15.146  0.00  0.00    +0.000 NA
ATOM     17  C   UNL     1       4.712   4.229  15.743  0.00  0.00    +0.000 C 
ATOM     18  C   UNL     1       4.576   4.235  17.294  0.00  0.00    +0.000 C 
ATOM     19  N   UNL     1       4.159   5.528  17.888  0.00  0.00    +0.000 NA
ATOM     20  C   UNL     1       5.080   6.553  17.343  0.00  0.00    +0.000 C 
ATOM     21  C   UNL     1       5.159   6.601  15.796  0.00  0.00    +0.000 C 
BRANCH  16  22
ATOM     22  C   UNL     1       6.960   5.108  15.182  0.00  0.00    +0.000 C 
BRANCH  22  23
ATOM     23  C   UNL     1       7.604   4.831  13.814  0.00  0.00    +0.000 C 
BRANCH  23  24
ATOM     24  O   UNL     1       8.525   5.877  13.509  0.00  0.00    +0.000 OA
ATOM     25  H   UNL     1       9.216   5.852  14.193  0.00  0.00    +0.000 HD
ENDBRANCH  23  24
ENDBRANCH  22  23
ENDBRANCH  16  22
ENDBRANCH   1  19
TORSDOF 4
ENDMDL
MODEL 2
REMARK VINA RESULT:      -6.5      1.064      1.186
REMARK  Name = 
REMARK  4 active torsions:
REMARK  status: ('A' for Active; 'I' for Inactive)
REMARK    1  A    between atoms: O_1  and  C_2
REMARK    2  A    between atoms: C_2  and  C_3
REMARK    3  A    between atoms: C_3  and  N_4
REMARK    4  A    between atoms: N_7  and  C_8
REMARK                            x       y       z     vdW  Elec       q    Type
REMARK                         _______ _______ _______ _____ _____    ______ ____
ROOT
ATOM      1  C   UNL     1       2.702   5.800  17.744  0.00  0.00    +0.000 C 
ATOM      2  C   UNL     1       1.690   4.629  17.706  0.00  0.00    +0.000 C 
ATOM      3  N   UNL     1       1.710   3.697  18.814  0.00  0.00    +0.000 N 
ATOM      4  C   UNL     1       1.666   2.326  18.619  0.00  0.00    +0.000 A 
ATOM      5  C   UNL     1       1.744   1.707  19.846  0.00  0.00    +0.000 A 
ATOM      6  C   UNL     1       1.775   2.728  20.811  0.00  0.00    +0.000 A 
ATOM      7  C   UNL     1       1.706   3.945  20.159  0.00  0.00    +0.000 A 
ATOM      8  S   UNL     1       1.566   5.445  20.984  0.00  0.00    +0.000 S 
ATOM      9  C   UNL     1       1.734   6.843  19.927  0.00  0.00    +0.000 A 
ATOM     10  C   UNL     1       1.453   8.049  20.618  0.00  0.00    +0.000 A 
ATOM     11  C   UNL     1       1.537   9.310  20.022  0.00  0.00    +0.000 A 
ATOM     12  C   UNL     1       1.846   9.388  18.680  0.00  0.00    +0.000 A 
ATOM     13 CL   UNL     1       1.951  10.917  17.905  0.00  0.00    +0.000 Cl
ATOM     14  C   UNL     1       2.111   8.226  17.966  0.00  0.00    +0.000 A 
ATOM     15  C   UNL     1       2.133   6.946  18.589  0.00  0.00    +0.000 A 
ENDROOT
BRANCH   1  19
ATOM     16  N   UNL     1       5.705   5.137  15.472  0.00  0.00    +0.000 NA
ATOM     17  C   UNL     1       4.801   4.095  15.992  0.00  0.00    +0.000 C 
ATOM     18  C   UNL     1       4.515   4.120  17.522  0.00  0.00    +0.000 C 
ATOM     19  N   UNL     1       4.114   5.438  18.070  0.00  0.00    +0.000 NA
ATOM     20  C   UNL     1       5.137   6.409  17.614  0.00  0.00    +0.000 C 
ATOM     21  C   UNL     1       5.369   6.440  16.083  0.00  0.00    +0.000 C 
BRANCH  16  22
ATOM     22  C   UNL     1       7.138   4.849  15.651  0.00  0.00    +0.000 C 
BRANCH  22  23
ATOM     23  C   UNL     1       7.687   5.163  17.052  0.00  0.00    +0.000 C 
BRANCH  23  24
ATOM     24  O   UNL     1       8.201   3.967  17.634  0.00  0.00    +0.000 OA
ATOM     25  H   UNL     1       8.941   3.676  17.073  0.00  0.00    +0.000 HD
ENDBRANCH  23  24
ENDBRANCH  22  23
ENDBRANCH  16  22
ENDBRANCH   1  19
TORSDOF 4
ENDMDL
MODEL 3
REMARK VINA RESULT:      -6.2      5.519      7.954
REMARK  Name = 
REMARK  4 active torsions:
REMARK  status: ('A' for Active; 'I' for Inactive)
REMARK    1  A    between atoms: O_1  and  C_2
REMARK    2  A    between atoms: C_2  and  C_3
REMARK    3  A    between atoms: C_3  and  N_4
REMARK    4  A    between atoms: N_7  and  C_8
REMARK                            x       y       z     vdW  Elec       q    Type
REMARK                         _______ _______ _______ _____ _____    ______ ____
ROOT
ATOM      1  C   UNL     1       0.316  11.746  19.563  0.00  0.00    +0.000 C 
ATOM      2  C   UNL     1       0.165  10.550  18.591  0.00  0.00    +0.000 C 
ATOM      3  N   UNL     1       1.036   9.412  18.799  0.00  0.00    +0.000 N 
ATOM      4  C   UNL     1       1.698   8.796  17.748  0.00  0.00    +0.000 A 
ATOM      5  C   UNL     1       2.478   7.782  18.258  0.00  0.00    +0.000 A 
ATOM      6  C   UNL     1       2.238   7.745  19.641  0.00  0.00    +0.000 A 
ATOM      7  C   UNL     1       1.313   8.726  19.948  0.00  0.00    +0.000 A 
ATOM      8  S   UNL     1       0.632   8.916  21.514  0.00  0.00    +0.000 S 
ATOM      9  C   UNL     1      -0.335  10.379  21.683  0.00  0.00    +0.000 A 
ATOM     10  C   UNL     1      -1.003  10.413  22.934  0.00  0.00    +0.000 A 
ATOM     11  C   UNL     1      -1.817  11.474  23.337  0.00  0.00    +0.000 A 
ATOM     12  C   UNL     1      -2.034  12.513  22.455  0.00  0.00    +0.000 A 
ATOM     13 CL   UNL     1      -3.035  13.834  22.907  0.00  0.00    +0.000 Cl
ATOM     14  C   UNL     1      -1.409  12.506  21.215  0.00  0.00    +0.000 A 
ATOM     15  C   UNL     1      -0.494  11.482  20.837  0.00  0.00    +0.000 A 
ENDROOT
BRANCH   1  19
ATOM     16  N   UNL     1       1.922  15.179  19.053  0.00  0.00    +0.000 NA
ATOM     17  C   UNL     1       1.945  14.087  18.063  0.00  0.00    +0.000 C 
ATOM     18  C   UNL     1       2.391  12.687  18.578  0.00  0.00    +0.000 C 
ATOM     19  N   UNL     1       1.711  12.220  19.810  0.00  0.00    +0.000 NA
ATOM     20  C   UNL     1       1.842  13.316  20.799  0.00  0.00    +0.000 C 
ATOM     21  C   UNL     1       1.328  14.695  20.316  0.00  0.00    +0.000 C 
BRANCH  16  22
ATOM     22  C   UNL     1       3.234  15.795  19.314  0.00  0.00    +0.000 C 
BRANCH  22  23
ATOM     23  C   UNL     1       3.971  16.294  18.061  0.00  0.00    +0.000 C 
BRANCH  23  24
ATOM     24  O   UNL     1       3.205  17.328  17.447  0.00  0.00    +0.000 OA
ATOM     25  H   UNL     1       2.290  17.005  17.387  0.00  0.00    +0.000 HD
ENDBRANCH  23  24
ENDBRANCH  22  23
ENDBRANCH  16  22
ENDBRANCH   1  19
TORSDOF 4
ENDMDL
MODEL 4
REMARK VINA RESULT:      -5.9      5.720      8.544
REMARK  Name = 
REMARK  4 active torsions:
REMARK  status: ('A' for Active; 'I' for Inactive)
REMARK    1  A    between atoms: O_1  and  C_2
REMARK    2  A    between atoms: C_2  and  C_3
REMARK    3  A    between atoms: C_3  and  N_4
REMARK    4  A    between atoms: N_7  and  C_8
REMARK                            x       y       z     vdW  Elec       q    Type
REMARK                         _______ _______ _______ _____ _____    ______ ____
ROOT
ATOM      1  C   UNL     1      -0.545  11.250  19.282  0.00  0.00    +0.000 C 
ATOM      2  C   UNL     1      -0.369  12.505  20.172  0.00  0.00    +0.000 C 
ATOM      3  N   UNL     1      -1.155  12.572  21.387  0.00  0.00    +0.000 N 
ATOM      4  C   UNL     1      -1.830  13.725  21.759  0.00  0.00    +0.000 A 
ATOM      5  C   UNL     1      -2.517  13.471  22.924  0.00  0.00    +0.000 A 
ATOM      6  C   UNL     1      -2.205  12.154  23.299  0.00  0.00    +0.000 A 
ATOM      7  C   UNL     1      -1.328  11.633  22.365  0.00  0.00    +0.000 A 
ATOM      8  S   UNL     1      -0.581  10.096  22.534  0.00  0.00    +0.000 S 
ATOM      9  C   UNL     1       0.299   9.583  21.098  0.00  0.00    +0.000 A 
ATOM     10  C   UNL     1       1.028   8.390  21.338  0.00  0.00    +0.000 A 
ATOM     11  C   UNL     1       1.793   7.751  20.359  0.00  0.00    +0.000 A 
ATOM     12  C   UNL     1       1.899   8.338  19.115  0.00  0.00    +0.000 A 
ATOM     13 CL   UNL     1       2.837   7.591  17.884  0.00  0.00    +0.000 Cl
ATOM     14  C   UNL     1       1.213   9.516  18.848  0.00  0.00    +0.000 A 
ATOM     15  C   UNL     1       0.346  10.117  19.805  0.00  0.00    +0.000 A 
ENDROOT
BRANCH   1  19
ATOM     16  N   UNL     1      -2.343  10.643  15.963  0.00  0.00    +0.000 NA
ATOM     17  C   UNL     1      -2.347  11.921  16.696  0.00  0.00    +0.000 C 
ATOM     18  C   UNL     1      -2.700  11.856  18.211  0.00  0.00    +0.000 C 
ATOM     19  N   UNL     1      -1.952  10.842  18.992  0.00  0.00    +0.000 NA
ATOM     20  C   UNL     1      -2.102   9.560  18.264  0.00  0.00    +0.000 C 
ATOM     21  C   UNL     1      -1.678   9.603  16.774  0.00  0.00    +0.000 C 
BRANCH  16  22
ATOM     22  C   UNL     1      -3.674  10.178  15.537  0.00  0.00    +0.000 C 
BRANCH  22  23
ATOM     23  C   UNL     1      -3.851  10.041  14.016  0.00  0.00    +0.000 C 
BRANCH  23  24
ATOM     24  O   UNL     1      -2.571   9.896  13.406  0.00  0.00    +0.000 OA
ATOM     25  H   UNL     1      -2.056  10.687  13.642  0.00  0.00    +0.000 HD
ENDBRANCH  23  24
ENDBRANCH  22  23
ENDBRANCH  16  22
ENDBRANCH   1  19
TORSDOF 4
ENDMDL
MODEL 5
REMARK VINA RESULT:      -5.9      1.571      1.822
REMARK  Name = 
REMARK  4 active torsions:
REMARK  status: ('A' for Active; 'I' for Inactive)
REMARK    1  A    between atoms: O_1  and  C_2
REMARK    2  A    between atoms: C_2  and  C_3
REMARK    3  A    between atoms: C_3  and  N_4
REMARK    4  A    between atoms: N_7  and  C_8
REMARK                            x       y       z     vdW  Elec       q    Type
REMARK                         _______ _______ _______ _____ _____    ______ ____
ROOT
ATOM      1  C   UNL     1       2.701   5.518  17.694  0.00  0.00    +0.000 C 
ATOM      2  C   UNL     1       1.665   4.368  17.668  0.00  0.00    +0.000 C 
ATOM      3  N   UNL     1       1.672   3.443  18.782  0.00  0.00    +0.000 N 
ATOM      4  C   UNL     1       1.598   2.071  18.595  0.00  0.00    +0.000 A 
ATOM      5  C   UNL     1       1.670   1.459  19.826  0.00  0.00    +0.000 A 
ATOM      6  C   UNL     1       1.729   2.484  20.784  0.00  0.00    +0.000 A 
ATOM      7  C   UNL     1       1.682   3.698  20.125  0.00  0.00    +0.000 A 
ATOM      8  S   UNL     1       1.578   5.206  20.942  0.00  0.00    +0.000 S 
ATOM      9  C   UNL     1       1.769   6.594  19.876  0.00  0.00    +0.000 A 
ATOM     10  C   UNL     1       1.518   7.810  20.562  0.00  0.00    +0.000 A 
ATOM     11  C   UNL     1       1.624   9.065  19.958  0.00  0.00    +0.000 A 
ATOM     12  C   UNL     1       1.927   9.128  18.613  0.00  0.00    +0.000 A 
ATOM     13 CL   UNL     1       2.059  10.651  17.829  0.00  0.00    +0.000 Cl
ATOM     14  C   UNL     1       2.164   7.958  17.905  0.00  0.00    +0.000 A 
ATOM     15  C   UNL     1       2.162   6.681  18.535  0.00  0.00    +0.000 A 
ENDROOT
BRANCH   1  19
ATOM     16  N   UNL     1       6.033   6.999  16.543  0.00  0.00    +0.000 NA
ATOM     17  C   UNL     1       5.349   5.868  15.891  0.00  0.00    +0.000 C 
ATOM     18  C   UNL     1       4.878   4.710  16.817  0.00  0.00    +0.000 C 
ATOM     19  N   UNL     1       4.107   5.129  18.013  0.00  0.00    +0.000 NA
ATOM     20  C   UNL     1       4.916   6.172  18.686  0.00  0.00    +0.000 C 
ATOM     21  C   UNL     1       5.322   7.365  17.785  0.00  0.00    +0.000 C 
BRANCH  16  22
ATOM     22  C   UNL     1       7.460   6.770  16.826  0.00  0.00    +0.000 C 
BRANCH  22  23
ATOM     23  C   UNL     1       8.080   7.746  17.839  0.00  0.00    +0.000 C 
BRANCH  23  24
ATOM     24  O   UNL     1       8.472   7.026  19.005  0.00  0.00    +0.000 OA
ATOM     25  H   UNL     1       9.224   6.464  18.750  0.00  0.00    +0.000 HD
ENDBRANCH  23  24
ENDBRANCH  22  23
ENDBRANCH  16  22
ENDBRANCH   1  19
TORSDOF 4
ENDMDL
MODEL 6
REMARK VINA RESULT:      -5.8      9.602     11.727
REMARK  Name = 
REMARK  4 active torsions:
REMARK  status: ('A' for Active; 'I' for Inactive)
REMARK    1  A    between atoms: O_1  and  C_2
REMARK    2  A    between atoms: C_2  and  C_3
REMARK    3  A    between atoms: C_3  and  N_4
REMARK    4  A    between atoms: N_7  and  C_8
REMARK                            x       y       z     vdW  Elec       q    Type
REMARK                         _______ _______ _______ _____ _____    ______ ____
ROOT
ATOM      1  C   UNL     1       9.666  13.389  21.747  0.00  0.00    +0.000 C 
ATOM      2  C   UNL     1      10.378  12.232  21.004  0.00  0.00    +0.000 C 
ATOM      3  N   UNL     1       9.758  11.742  19.790  0.00  0.00    +0.000 N 
ATOM      4  C   UNL     1       9.618  10.387  19.536  0.00  0.00    +0.000 A 
ATOM      5  C   UNL     1       8.959  10.234  18.337  0.00  0.00    +0.000 A 
ATOM      6  C   UNL     1       8.747  11.525  17.825  0.00  0.00    +0.000 A 
ATOM      7  C   UNL     1       9.288  12.437  18.712  0.00  0.00    +0.000 A 
ATOM      8  S   UNL     1       9.375  14.122  18.387  0.00  0.00    +0.000 S 
ATOM      9  C   UNL     1       9.891  15.076  19.775  0.00  0.00    +0.000 A 
ATOM     10  C   UNL     1      10.102  16.433  19.418  0.00  0.00    +0.000 A 
ATOM     11  C   UNL     1      10.491  17.413  20.335  0.00  0.00    +0.000 A 
ATOM     12  C   UNL     1      10.744  17.037  21.638  0.00  0.00    +0.000 A 
ATOM     13 CL   UNL     1      11.233  18.208  22.795  0.00  0.00    +0.000 Cl
ATOM     14  C   UNL     1      10.565  15.714  22.020  0.00  0.00    +0.000 A 
ATOM     15  C   UNL     1      10.066  14.729  21.119  0.00  0.00    +0.000 A 
ENDROOT
BRANCH   1  19
ATOM     16  N   UNL     1       7.671  12.643  24.923  0.00  0.00    +0.000 NA
ATOM     17  C   UNL     1       8.140  11.623  23.969  0.00  0.00    +0.000 C 
ATOM     18  C   UNL     1       7.831  11.879  22.465  0.00  0.00    +0.000 C 
ATOM     19  N   UNL     1       8.197  13.226  21.965  0.00  0.00    +0.000 NA
ATOM     20  C   UNL     1       7.584  14.199  22.898  0.00  0.00    +0.000 C 
ATOM     21  C   UNL     1       7.951  13.992  24.389  0.00  0.00    +0.000 C 
BRANCH  16  22
ATOM     22  C   UNL     1       6.250  12.530  25.290  0.00  0.00    +0.000 C 
BRANCH  22  23
ATOM     23  C   UNL     1       5.895  11.275  26.106  0.00  0.00    +0.000 C 
BRANCH  23  24
ATOM     24  O   UNL     1       5.049  10.433  25.326  0.00  0.00    +0.000 OA
ATOM     25  H   UNL     1       5.548  10.194  24.526  0.00  0.00    +0.000 HD
ENDBRANCH  23  24
ENDBRANCH  22  23
ENDBRANCH  16  22
ENDBRANCH   1  19
TORSDOF 4
ENDMDL
MODEL 7
REMARK VINA RESULT:      -5.7      8.318      9.514
REMARK  Name = 
REMARK  4 active torsions:
REMARK  status: ('A' for Active; 'I' for Inactive)
REMARK    1  A    between atoms: O_1  and  C_2
REMARK    2  A    between atoms: C_2  and  C_3
REMARK    3  A    between atoms: C_3  and  N_4
REMARK    4  A    between atoms: N_7  and  C_8
REMARK                            x       y       z     vdW  Elec       q    Type
REMARK                         _______ _______ _______ _____ _____    ______ ____
ROOT
ATOM      1  C   UNL     1      -1.282  11.943  19.722  0.00  0.00    +0.000 C 
ATOM      2  C   UNL     1      -1.578  11.381  21.134  0.00  0.00    +0.000 C 
ATOM      3  N   UNL     1      -2.372  12.204  22.023  0.00  0.00    +0.000 N 
ATOM      4  C   UNL     1      -2.019  12.400  23.350  0.00  0.00    +0.000 A 
ATOM      5  C   UNL     1      -2.933  13.255  23.922  0.00  0.00    +0.000 A 
ATOM      6  C   UNL     1      -3.895  13.537  22.938  0.00  0.00    +0.000 A 
ATOM      7  C   UNL     1      -3.557  12.844  21.790  0.00  0.00    +0.000 A 
ATOM      8  S   UNL     1      -4.558  12.795  20.395  0.00  0.00    +0.000 S 
ATOM      9  C   UNL     1      -3.785  12.040  19.005  0.00  0.00    +0.000 A 
ATOM     10  C   UNL     1      -4.698  11.879  17.931  0.00  0.00    +0.000 A 
ATOM     11  C   UNL     1      -4.339  11.329  16.698  0.00  0.00    +0.000 A 
ATOM     12  C   UNL     1      -3.051  10.861  16.532  0.00  0.00    +0.000 A 
ATOM     13 CL   UNL     1      -2.570  10.170  15.035  0.00  0.00    +0.000 Cl
ATOM     14  C   UNL     1      -2.134  10.987  17.567  0.00  0.00    +0.000 A 
ATOM     15  C   UNL     1      -2.460  11.642  18.789  0.00  0.00    +0.000 A 
ENDROOT
BRANCH   1  19
ATOM     16  N   UNL     1       2.246  13.368  19.347  0.00  0.00    +0.000 NA
ATOM     17  C   UNL     1       1.569  13.136  20.636  0.00  0.00    +0.000 C 
ATOM     18  C   UNL     1       0.124  13.697  20.775  0.00  0.00    +0.000 C 
ATOM     19  N   UNL     1      -0.798  13.355  19.665  0.00  0.00    +0.000 NA
ATOM     20  C   UNL     1      -0.103  13.736  18.413  0.00  0.00    +0.000 C 
ATOM     21  C   UNL     1       1.306  13.117  18.236  0.00  0.00    +0.000 C 
BRANCH  16  22
ATOM     22  C   UNL     1       2.850  14.704  19.206  0.00  0.00    +0.000 C 
BRANCH  22  23
ATOM     23  C   UNL     1       3.188  15.108  17.762  0.00  0.00    +0.000 C 
BRANCH  23  24
ATOM     24  O   UNL     1       4.536  14.742  17.475  0.00  0.00    +0.000 OA
ATOM     25  H   UNL     1       4.842  14.191  18.216  0.00  0.00    +0.000 HD
ENDBRANCH  23  24
ENDBRANCH  22  23
ENDBRANCH  16  22
ENDBRANCH   1  19
TORSDOF 4
ENDMDL
MODEL 8
REMARK VINA RESULT:      -5.7      6.148      8.593
REMARK  Name = 
REMARK  4 active torsions:
REMARK  status: ('A' for Active; 'I' for Inactive)
REMARK    1  A    between atoms: O_1  and  C_2
REMARK    2  A    between atoms: C_2  and  C_3
REMARK    3  A    between atoms: C_3  and  N_4
REMARK    4  A    between atoms: N_7  and  C_8
REMARK                            x       y       z     vdW  Elec       q    Type
REMARK                         _______ _______ _______ _____ _____    ______ ____
ROOT
ATOM      1  C   UNL     1      -0.306  12.253  20.126  0.00  0.00    +0.000 C 
ATOM      2  C   UNL     1      -0.341  10.844  19.484  0.00  0.00    +0.000 C 
ATOM      3  N   UNL     1       0.391   9.790  20.154  0.00  0.00    +0.000 N 
ATOM      4  C   UNL     1       1.206   8.909  19.459  0.00  0.00    +0.000 A 
ATOM      5  C   UNL     1       1.797   8.056  20.364  0.00  0.00    +0.000 A 
ATOM      6  C   UNL     1       1.285   8.390  21.628  0.00  0.00    +0.000 A 
ATOM      7  C   UNL     1       0.386   9.429  21.472  0.00  0.00    +0.000 A 
ATOM      8  S   UNL     1      -0.578  10.037  22.758  0.00  0.00    +0.000 S 
ATOM      9  C   UNL     1      -1.457  11.504  22.340  0.00  0.00    +0.000 A 
ATOM     10  C   UNL     1      -2.357  11.878  23.371  0.00  0.00    +0.000 A 
ATOM     11  C   UNL     1      -3.161  13.018  23.308  0.00  0.00    +0.000 A 
ATOM     12  C   UNL     1      -3.127  13.789  22.165  0.00  0.00    +0.000 A 
ATOM     13 CL   UNL     1      -4.105  15.196  22.043  0.00  0.00    +0.000 Cl
ATOM     14  C   UNL     1      -2.270  13.446  21.128  0.00  0.00    +0.000 A 
ATOM     15  C   UNL     1      -1.370  12.346  21.225  0.00  0.00    +0.000 A 
ENDROOT
BRANCH   1  19
ATOM     16  N   UNL     1       1.686  15.297  18.949  0.00  0.00    +0.000 NA
ATOM     17  C   UNL     1       1.820  13.940  18.389  0.00  0.00    +0.000 C 
ATOM     18  C   UNL     1       2.011  12.780  19.409  0.00  0.00    +0.000 C 
ATOM     19  N   UNL     1       1.041  12.757  20.530  0.00  0.00    +0.000 NA
ATOM     20  C   UNL     1       1.057  14.114  21.124  0.00  0.00    +0.000 C 
ATOM     21  C   UNL     1       0.790  15.267  20.123  0.00  0.00    +0.000 C 
BRANCH  16  22
ATOM     22  C   UNL     1       2.962  15.942  19.302  0.00  0.00    +0.000 C 
BRANCH  22  23
ATOM     23  C   UNL     1       3.826  16.358  18.100  0.00  0.00    +0.000 C 
BRANCH  23  24
ATOM     24  O   UNL     1       3.145  17.371  17.362  0.00  0.00    +0.000 OA
ATOM     25  H   UNL     1       2.212  17.104  17.312  0.00  0.00    +0.000 HD
ENDBRANCH  23  24
ENDBRANCH  22  23
ENDBRANCH  16  22
ENDBRANCH   1  19
TORSDOF 4
ENDMDL
MODEL 9
REMARK VINA RESULT:      -5.7      8.509     11.834
REMARK  Name = 
REMARK  4 active torsions:
REMARK  status: ('A' for Active; 'I' for Inactive)
REMARK    1  A    between atoms: O_1  and  C_2
REMARK    2  A    between atoms: C_2  and  C_3
REMARK    3  A    between atoms: C_3  and  N_4
REMARK    4  A    between atoms: N_7  and  C_8
REMARK                            x       y       z     vdW  Elec       q    Type
REMARK                         _______ _______ _______ _____ _____    ______ ____
ROOT
ATOM      1  C   UNL     1      -1.829  13.635  22.111  0.00  0.00    +0.000 C 
ATOM      2  C   UNL     1      -0.807  12.713  22.818  0.00  0.00    +0.000 C 
ATOM      3  N   UNL     1      -0.623  11.383  22.273  0.00  0.00    +0.000 N 
ATOM      4  C   UNL     1      -0.577  10.260  23.084  0.00  0.00    +0.000 A 
ATOM      5  C   UNL     1      -0.439   9.149  22.283  0.00  0.00    +0.000 A 
ATOM      6  C   UNL     1      -0.340   9.614  20.961  0.00  0.00    +0.000 A 
ATOM      7  C   UNL     1      -0.409  10.995  20.981  0.00  0.00    +0.000 A 
ATOM      8  S   UNL     1      -0.175  11.966  19.583  0.00  0.00    +0.000 S 
ATOM      9  C   UNL     1      -0.548  13.667  19.842  0.00  0.00    +0.000 A 
ATOM     10  C   UNL     1      -0.190  14.451  18.715  0.00  0.00    +0.000 A 
ATOM     11  C   UNL     1      -0.401  15.831  18.645  0.00  0.00    +0.000 A 
ATOM     12  C   UNL     1      -0.925  16.476  19.746  0.00  0.00    +0.000 A 
ATOM     13 CL   UNL     1      -1.193  18.173  19.705  0.00  0.00    +0.000 Cl
ATOM     14  C   UNL     1      -1.273  15.744  20.873  0.00  0.00    +0.000 A 
ATOM     15  C   UNL     1      -1.161  14.324  20.915  0.00  0.00    +0.000 A 
ENDROOT
BRANCH   1  19
ATOM     16  N   UNL     1      -5.338  14.572  23.305  0.00  0.00    +0.000 NA
ATOM     17  C   UNL     1      -4.477  13.562  23.945  0.00  0.00    +0.000 C 
ATOM     18  C   UNL     1      -3.841  12.493  23.009  0.00  0.00    +0.000 C 
ATOM     19  N   UNL     1      -3.160  13.030  21.806  0.00  0.00    +0.000 NA
ATOM     20  C   UNL     1      -4.130  13.935  21.146  0.00  0.00    +0.000 C 
ATOM     21  C   UNL     1      -4.708  15.048  22.056  0.00  0.00    +0.000 C 
BRANCH  16  22
ATOM     22  C   UNL     1      -6.714  14.122  23.037  0.00  0.00    +0.000 C 
BRANCH  22  23
ATOM     23  C   UNL     1      -7.437  13.507  24.248  0.00  0.00    +0.000 C 
BRANCH  23  24
ATOM     24  O   UNL     1      -7.916  12.211  23.899  0.00  0.00    +0.000 OA
ATOM     25  H   UNL     1      -7.877  12.147  22.929  0.00  0.00    +0.000 HD
ENDBRANCH  23  24
ENDBRANCH  22  23
ENDBRANCH  16  22
ENDBRANCH   1  19
TORSDOF 4
ENDMDL
