MODEL 1
REMARK VINA RESULT:      -9.1      0.000      0.000
REMARK  Name = 
REMARK  11 active torsions:
REMARK  status: ('A' for Active; 'I' for Inactive)
REMARK    1  A    between atoms: C_2  and  C_11
REMARK    2  A    between atoms: N_3  and  C_4
REMARK    3  A    between atoms: C_4  and  C_5
REMARK    4  A    between atoms: C_13  and  C_14
REMARK    5  A    between atoms: C_17  and  C_18
REMARK    6  A    between atoms: C_25  and  O_26
REMARK    7  A    between atoms: O_26  and  C_27
REMARK    8  A    between atoms: C_27  and  C_28
REMARK    9  A    between atoms: C_28  and  C_29
REMARK   10  A    between atoms: C_29  and  C_30
REMARK   11  A    between atoms: C_30  and  O_31
REMARK                            x       y       z     vdW  Elec       q    Type
REMARK                         _______ _______ _______ _____ _____    ______ ____
ROOT
ATOM      1  C   UNL     1       7.089   6.873  17.172  0.00  0.00    +0.000 C 
ATOM      2  C   UNL     1       5.768   6.910  17.412  0.00  0.00    +0.000 C 
ATOM      3  C   UNL     1       4.764   6.229  16.545  0.00  0.00    +0.000 C 
ATOM      4  C   UNL     1       5.435   5.401  15.457  0.00  0.00    +0.000 C 
ATOM      5  C   UNL     1       6.721   6.064  14.965  0.00  0.00    +0.000 C 
ATOM      6  O   UNL     1       7.650   6.278  16.051  0.00  0.00    +0.000 OA
ENDROOT
BRANCH   3   7
ATOM      7  C   UNL     1       3.820   5.359  17.358  0.00  0.00    +0.000 A 
ATOM      8  C   UNL     1       3.447   4.094  16.895  0.00  0.00    +0.000 A 
ATOM      9  C   UNL     1       2.569   3.298  17.638  0.00  0.00    +0.000 A 
ATOM     10  C   UNL     1       2.051   3.755  18.860  0.00  0.00    +0.000 A 
ATOM     11  C   UNL     1       2.433   5.017  19.326  0.00  0.00    +0.000 A 
ATOM     12  C   UNL     1       3.306   5.812  18.585  0.00  0.00    +0.000 A 
BRANCH  10  13
ATOM     13  C   UNL     1       1.093   2.917  19.665  0.00  0.00    +0.000 C 
ATOM     14  F   UNL     1       1.682   2.243  20.691  0.00  0.00    +0.000 F 
ATOM     15  F   UNL     1       0.101   3.661  20.232  0.00  0.00    +0.000 F 
ATOM     16  F   UNL     1       0.464   1.972  18.911  0.00  0.00    +0.000 F 
ENDBRANCH  10  13
ENDBRANCH   3   7
BRANCH   1  18
ATOM     17  O   UNL     1       8.477   6.843  19.124  0.00  0.00    +0.000 OA
ATOM     18  C   UNL     1       7.973   7.502  18.218  0.00  0.00    +0.000 C 
ATOM     19  N   UNL     1       8.158   8.849  18.075  0.00  0.00    +0.000 N 
ATOM     20  H   UNL     1       7.734   9.317  17.282  0.00  0.00    +0.000 HD
BRANCH  19  21
ATOM     21  C   UNL     1       8.966   9.600  19.010  0.00  0.00    +0.000 C 
BRANCH  21  22
ATOM     22  C   UNL     1       9.414  10.915  18.422  0.00  0.00    +0.000 A 
ATOM     23  C   UNL     1       8.480  11.894  18.059  0.00  0.00    +0.000 A 
ATOM     24  C   UNL     1       8.903  13.101  17.501  0.00  0.00    +0.000 A 
ATOM     25  C   UNL     1      10.261  13.340  17.297  0.00  0.00    +0.000 A 
ATOM     26  C   UNL     1      11.200  12.375  17.657  0.00  0.00    +0.000 A 
ATOM     27  C   UNL     1      10.778  11.166  18.214  0.00  0.00    +0.000 A 
ENDBRANCH  21  22
ENDBRANCH  19  21
ENDBRANCH   1  18
BRANCH   5  28
ATOM     28  O   UNL     1       7.354   5.236  13.965  0.00  0.00    +0.000 OA
BRANCH  28  29
ATOM     29  C   UNL     1       6.647   4.021  13.723  0.00  0.00    +0.000 C 
BRANCH  29  30
ATOM     30  C   UNL     1       6.642   3.671  12.239  0.00  0.00    +0.000 C 
BRANCH  30  31
ATOM     31  C   UNL     1       5.341   2.946  11.894  0.00  0.00    +0.000 C 
BRANCH  31  32
ATOM     32  C   UNL     1       5.573   1.574  11.286  0.00  0.00    +0.000 C 
BRANCH  32  33
ATOM     33  O   UNL     1       6.972   1.359  11.137  0.00  0.00    +0.000 OA
ATOM     34  H   UNL     1       7.404   2.231  11.110  0.00  0.00    +0.000 HD
ENDBRANCH  32  33
ENDBRANCH  31  32
ENDBRANCH  30  31
ENDBRANCH  29  30
ENDBRANCH  28  29
ENDBRANCH   5  28
TORSDOF 11
ENDMDL
MODEL 2
REMARK VINA RESULT:      -9.1      0.917      1.442
REMARK  Name = 
REMARK  11 active torsions:
REMARK  status: ('A' for Active; 'I' for Inactive)
REMARK    1  A    between atoms: C_2  and  C_11
REMARK    2  A    between atoms: N_3  and  C_4
REMARK    3  A    between atoms: C_4  and  C_5
REMARK    4  A    between atoms: C_13  and  C_14
REMARK    5  A    between atoms: C_17  and  C_18
REMARK    6  A    between atoms: C_25  and  O_26
REMARK    7  A    between atoms: O_26  and  C_27
REMARK    8  A    between atoms: C_27  and  C_28
REMARK    9  A    between atoms: C_28  and  C_29
REMARK   10  A    between atoms: C_29  and  C_30
REMARK   11  A    between atoms: C_30  and  O_31
REMARK                            x       y       z     vdW  Elec       q    Type
REMARK                         _______ _______ _______ _____ _____    ______ ____
ROOT
ATOM      1  C   UNL     1       7.048   6.803  17.153  0.00  0.00    +0.000 C 
ATOM      2  C   UNL     1       5.732   6.858  17.415  0.00  0.00    +0.000 C 
ATOM      3  C   UNL     1       4.706   6.176  16.575  0.00  0.00    +0.000 C 
ATOM      4  C   UNL     1       5.349   5.324  15.489  0.00  0.00    +0.000 C 
ATOM      5  C   UNL     1       6.634   5.965  14.965  0.00  0.00    +0.000 C 
ATOM      6  O   UNL     1       7.583   6.184  16.032  0.00  0.00    +0.000 OA
ENDROOT
BRANCH   3   7
ATOM      7  C   UNL     1       3.766   5.330  17.417  0.00  0.00    +0.000 A 
ATOM      8  C   UNL     1       3.611   3.966  17.150  0.00  0.00    +0.000 A 
ATOM      9  C   UNL     1       2.736   3.191  17.919  0.00  0.00    +0.000 A 
ATOM     10  C   UNL     1       2.005   3.766  18.969  0.00  0.00    +0.000 A 
ATOM     11  C   UNL     1       2.169   5.128  19.240  0.00  0.00    +0.000 A 
ATOM     12  C   UNL     1       3.038   5.904  18.473  0.00  0.00    +0.000 A 
BRANCH  10  13
ATOM     13  C   UNL     1       1.048   2.948  19.796  0.00  0.00    +0.000 C 
ATOM     14  F   UNL     1       0.008   2.433  19.081  0.00  0.00    +0.000 F 
ATOM     15  F   UNL     1       1.654   1.880  20.388  0.00  0.00    +0.000 F 
ATOM     16  F   UNL     1       0.485   3.665  20.808  0.00  0.00    +0.000 F 
ENDBRANCH  10  13
ENDBRANCH   3   7
BRANCH   1  18
ATOM     17  O   UNL     1       8.474   6.784  19.078  0.00  0.00    +0.000 OA
ATOM     18  C   UNL     1       7.957   7.436  18.175  0.00  0.00    +0.000 C 
ATOM     19  N   UNL     1       8.150   8.780  18.012  0.00  0.00    +0.000 N 
ATOM     20  H   UNL     1       7.713   9.243  17.222  0.00  0.00    +0.000 HD
BRANCH  19  21
ATOM     21  C   UNL     1       8.981   9.537  18.922  0.00  0.00    +0.000 C 
BRANCH  21  22
ATOM     22  C   UNL     1       9.392  10.860  18.327  0.00  0.00    +0.000 A 
ATOM     23  C   UNL     1      10.742  11.156  18.099  0.00  0.00    +0.000 A 
ATOM     24  C   UNL     1      11.114  12.390  17.562  0.00  0.00    +0.000 A 
ATOM     25  C   UNL     1      10.142  13.340  17.253  0.00  0.00    +0.000 A 
ATOM     26  C   UNL     1       8.795  13.055  17.472  0.00  0.00    +0.000 A 
ATOM     27  C   UNL     1       8.421  11.822  18.010  0.00  0.00    +0.000 A 
ENDBRANCH  21  22
ENDBRANCH  19  21
ENDBRANCH   1  18
BRANCH   5  28
ATOM     28  O   UNL     1       7.240   5.115  13.967  0.00  0.00    +0.000 OA
BRANCH  28  29
ATOM     29  C   UNL     1       6.563   3.868  13.815  0.00  0.00    +0.000 C 
BRANCH  29  30
ATOM     30  C   UNL     1       6.195   3.613  12.358  0.00  0.00    +0.000 C 
BRANCH  30  31
ATOM     31  C   UNL     1       4.681   3.743  12.189  0.00  0.00    +0.000 C 
BRANCH  31  32
ATOM     32  C   UNL     1       4.140   2.893  11.052  0.00  0.00    +0.000 C 
BRANCH  32  33
ATOM     33  O   UNL     1       3.285   3.688  10.239  0.00  0.00    +0.000 OA
ATOM     34  H   UNL     1       2.530   3.134   9.973  0.00  0.00    +0.000 HD
ENDBRANCH  32  33
ENDBRANCH  31  32
ENDBRANCH  30  31
ENDBRANCH  29  30
ENDBRANCH  28  29
ENDBRANCH   5  28
TORSDOF 11
ENDMDL
MODEL 3
REMARK VINA RESULT:      -9.0      0.558      1.234
REMARK  Name = 
REMARK  11 active torsions:
REMARK  status: ('A' for Active; 'I' for Inactive)
REMARK    1  A    between atoms: C_2  and  C_11
REMARK    2  A    between atoms: N_3  and  C_4
REMARK    3  A    between atoms: C_4  and  C_5
REMARK    4  A    between atoms: C_13  and  C_14
REMARK    5  A    between atoms: C_17  and  C_18
REMARK    6  A    between atoms: C_25  and  O_26
REMARK    7  A    between atoms: O_26  and  C_27
REMARK    8  A    between atoms: C_27  and  C_28
REMARK    9  A    between atoms: C_28  and  C_29
REMARK   10  A    between atoms: C_29  and  C_30
REMARK   11  A    between atoms: C_30  and  O_31
REMARK                            x       y       z     vdW  Elec       q    Type
REMARK                         _______ _______ _______ _____ _____    ______ ____
ROOT
ATOM      1  C   UNL     1       7.122   6.557  17.160  0.00  0.00    +0.000 C 
ATOM      2  C   UNL     1       5.790   6.631  17.316  0.00  0.00    +0.000 C 
ATOM      3  C   UNL     1       4.826   5.903  16.442  0.00  0.00    +0.000 C 
ATOM      4  C   UNL     1       5.544   4.987  15.460  0.00  0.00    +0.000 C 
ATOM      5  C   UNL     1       6.870   5.592  14.999  0.00  0.00    +0.000 C 
ATOM      6  O   UNL     1       7.736   5.872  16.121  0.00  0.00    +0.000 OA
ENDROOT
BRANCH   3   7
ATOM      7  C   UNL     1       3.819   5.110  17.257  0.00  0.00    +0.000 A 
ATOM      8  C   UNL     1       3.717   3.724  17.103  0.00  0.00    +0.000 A 
ATOM      9  C   UNL     1       2.781   2.997  17.846  0.00  0.00    +0.000 A 
ATOM     10  C   UNL     1       1.933   3.644  18.758  0.00  0.00    +0.000 A 
ATOM     11  C   UNL     1       2.044   5.029  18.918  0.00  0.00    +0.000 A 
ATOM     12  C   UNL     1       2.974   5.756  18.176  0.00  0.00    +0.000 A 
BRANCH  10  13
ATOM     13  C   UNL     1       0.910   2.877  19.554  0.00  0.00    +0.000 C 
ATOM     14  F   UNL     1       0.068   2.129  18.788  0.00  0.00    +0.000 F 
ATOM     15  F   UNL     1       1.482   2.006  20.434  0.00  0.00    +0.000 F 
ATOM     16  F   UNL     1       0.111   3.689  20.301  0.00  0.00    +0.000 F 
ENDBRANCH  10  13
ENDBRANCH   3   7
BRANCH   1  18
ATOM     17  O   UNL     1       8.390   6.649  19.190  0.00  0.00    +0.000 OA
ATOM     18  C   UNL     1       7.954   7.247  18.209  0.00  0.00    +0.000 C 
ATOM     19  N   UNL     1       8.175   8.577  17.979  0.00  0.00    +0.000 N 
ATOM     20  H   UNL     1       7.809   8.991  17.130  0.00  0.00    +0.000 HD
BRANCH  19  21
ATOM     21  C   UNL     1       8.941   9.383  18.904  0.00  0.00    +0.000 C 
BRANCH  21  22
ATOM     22  C   UNL     1       9.202  10.762  18.352  0.00  0.00    +0.000 A 
ATOM     23  C   UNL     1      10.493  11.305  18.356  0.00  0.00    +0.000 A 
ATOM     24  C   UNL     1      10.722  12.588  17.858  0.00  0.00    +0.000 A 
ATOM     25  C   UNL     1       9.663  13.342  17.354  0.00  0.00    +0.000 A 
ATOM     26  C   UNL     1       8.374  12.811  17.341  0.00  0.00    +0.000 A 
ATOM     27  C   UNL     1       8.143  11.528  17.841  0.00  0.00    +0.000 A 
ENDBRANCH  21  22
ENDBRANCH  19  21
ENDBRANCH   1  18
BRANCH   5  28
ATOM     28  O   UNL     1       7.544   4.684  14.102  0.00  0.00    +0.000 OA
BRANCH  28  29
ATOM     29  C   UNL     1       7.730   5.228  12.797  0.00  0.00    +0.000 C 
BRANCH  29  30
ATOM     30  C   UNL     1       7.170   4.299  11.726  0.00  0.00    +0.000 C 
BRANCH  30  31
ATOM     31  C   UNL     1       6.127   3.374  12.353  0.00  0.00    +0.000 C 
BRANCH  31  32
ATOM     32  C   UNL     1       5.899   2.108  11.545  0.00  0.00    +0.000 C 
BRANCH  32  33
ATOM     33  O   UNL     1       7.154   1.503  11.260  0.00  0.00    +0.000 OA
ATOM     34  H   UNL     1       7.327   1.614  10.308  0.00  0.00    +0.000 HD
ENDBRANCH  32  33
ENDBRANCH  31  32
ENDBRANCH  30  31
ENDBRANCH  29  30
ENDBRANCH  28  29
ENDBRANCH   5  28
TORSDOF 11
ENDMDL
MODEL 4
REMARK VINA RESULT:      -8.9      0.516      1.154
REMARK  Name = 
REMARK  11 active torsions:
REMARK  status: ('A' for Active; 'I' for Inactive)
REMARK    1  A    between atoms: C_2  and  C_11
REMARK    2  A    between atoms: N_3  and  C_4
REMARK    3  A    between atoms: C_4  and  C_5
REMARK    4  A    between atoms: C_13  and  C_14
REMARK    5  A    between atoms: C_17  and  C_18
REMARK    6  A    between atoms: C_25  and  O_26
REMARK    7  A    between atoms: O_26  and  C_27
REMARK    8  A    between atoms: C_27  and  C_28
REMARK    9  A    between atoms: C_28  and  C_29
REMARK   10  A    between atoms: C_29  and  C_30
REMARK   11  A    between atoms: C_30  and  O_31
REMARK                            x       y       z     vdW  Elec       q    Type
REMARK                         _______ _______ _______ _____ _____    ______ ____
ROOT
ATOM      1  C   UNL     1       7.003   6.576  17.161  0.00  0.00    +0.000 C 
ATOM      2  C   UNL     1       5.685   6.681  17.396  0.00  0.00    +0.000 C 
ATOM      3  C   UNL     1       4.652   6.017  16.550  0.00  0.00    +0.000 C 
ATOM      4  C   UNL     1       5.286   5.123  15.493  0.00  0.00    +0.000 C 
ATOM      5  C   UNL     1       6.603   5.710  14.982  0.00  0.00    +0.000 C 
ATOM      6  O   UNL     1       7.538   5.918  16.063  0.00  0.00    +0.000 OA
ENDROOT
BRANCH   3   7
ATOM      7  C   UNL     1       3.668   5.220  17.389  0.00  0.00    +0.000 A 
ATOM      8  C   UNL     1       2.992   5.825  18.453  0.00  0.00    +0.000 A 
ATOM      9  C   UNL     1       2.095   5.088  19.232  0.00  0.00    +0.000 A 
ATOM     10  C   UNL     1       1.855   3.732  18.956  0.00  0.00    +0.000 A 
ATOM     11  C   UNL     1       2.525   3.132  17.885  0.00  0.00    +0.000 A 
ATOM     12  C   UNL     1       3.422   3.866  17.110  0.00  0.00    +0.000 A 
BRANCH  10  13
ATOM     13  C   UNL     1       0.903   2.920  19.795  0.00  0.00    +0.000 C 
ATOM     14  F   UNL     1       0.149   3.669  20.648  0.00  0.00    +0.000 F 
ATOM     15  F   UNL     1       0.016   2.214  19.038  0.00  0.00    +0.000 F 
ATOM     16  F   UNL     1       1.543   2.003  20.572  0.00  0.00    +0.000 F 
ENDBRANCH  10  13
ENDBRANCH   3   7
BRANCH   1  18
ATOM     17  O   UNL     1       8.392   6.548  19.112  0.00  0.00    +0.000 OA
ATOM     18  C   UNL     1       7.913   7.200  18.188  0.00  0.00    +0.000 C 
ATOM     19  N   UNL     1       8.152   8.533  18.005  0.00  0.00    +0.000 N 
ATOM     20  H   UNL     1       7.745   8.995  17.199  0.00  0.00    +0.000 HD
BRANCH  19  21
ATOM     21  C   UNL     1       8.991   9.279  18.917  0.00  0.00    +0.000 C 
BRANCH  21  22
ATOM     22  C   UNL     1       9.204  10.694  18.442  0.00  0.00    +0.000 A 
ATOM     23  C   UNL     1       8.156  11.423  17.864  0.00  0.00    +0.000 A 
ATOM     24  C   UNL     1       8.367  12.726  17.412  0.00  0.00    +0.000 A 
ATOM     25  C   UNL     1       9.626  13.313  17.529  0.00  0.00    +0.000 A 
ATOM     26  C   UNL     1      10.675  12.599  18.107  0.00  0.00    +0.000 A 
ATOM     27  C   UNL     1      10.466  11.294  18.558  0.00  0.00    +0.000 A 
ENDBRANCH  21  22
ENDBRANCH  19  21
ENDBRANCH   1  18
BRANCH   5  28
ATOM     28  O   UNL     1       7.198   4.820  14.013  0.00  0.00    +0.000 OA
BRANCH  28  29
ATOM     29  C   UNL     1       6.363   3.708  13.694  0.00  0.00    +0.000 C 
BRANCH  29  30
ATOM     30  C   UNL     1       5.789   3.833  12.287  0.00  0.00    +0.000 C 
BRANCH  30  31
ATOM     31  C   UNL     1       5.408   2.445  11.771  0.00  0.00    +0.000 C 
BRANCH  31  32
ATOM     32  C   UNL     1       6.612   1.624  11.343  0.00  0.00    +0.000 C 
BRANCH  32  33
ATOM     33  O   UNL     1       6.261   0.245  11.340  0.00  0.00    +0.000 OA
ATOM     34  H   UNL     1       6.884  -0.217  10.752  0.00  0.00    +0.000 HD
ENDBRANCH  32  33
ENDBRANCH  31  32
ENDBRANCH  30  31
ENDBRANCH  29  30
ENDBRANCH  28  29
ENDBRANCH   5  28
TORSDOF 11
ENDMDL
MODEL 5
REMARK VINA RESULT:      -8.7      5.435      8.005
REMARK  Name = 
REMARK  11 active torsions:
REMARK  status: ('A' for Active; 'I' for Inactive)
REMARK    1  A    between atoms: C_2  and  C_11
REMARK    2  A    between atoms: N_3  and  C_4
REMARK    3  A    between atoms: C_4  and  C_5
REMARK    4  A    between atoms: C_13  and  C_14
REMARK    5  A    between atoms: C_17  and  C_18
REMARK    6  A    between atoms: C_25  and  O_26
REMARK    7  A    between atoms: O_26  and  C_27
REMARK    8  A    between atoms: C_27  and  C_28
REMARK    9  A    between atoms: C_28  and  C_29
REMARK   10  A    between atoms: C_29  and  C_30
REMARK   11  A    between atoms: C_30  and  O_31
REMARK                            x       y       z     vdW  Elec       q    Type
REMARK                         _______ _______ _______ _____ _____    ______ ____
ROOT
ATOM      1  C   UNL     1       3.384   6.784  18.455  0.00  0.00    +0.000 C 
ATOM      2  C   UNL     1       4.498   6.700  17.710  0.00  0.00    +0.000 C 
ATOM      3  C   UNL     1       5.397   5.511  17.719  0.00  0.00    +0.000 C 
ATOM      4  C   UNL     1       4.823   4.384  18.567  0.00  0.00    +0.000 C 
ATOM      5  C   UNL     1       4.063   4.927  19.778  0.00  0.00    +0.000 C 
ATOM      6  O   UNL     1       3.000   5.817  19.374  0.00  0.00    +0.000 OA
ENDROOT
BRANCH   3   7
ATOM      7  C   UNL     1       5.685   5.014  16.313  0.00  0.00    +0.000 A 
ATOM      8  C   UNL     1       6.784   5.505  15.600  0.00  0.00    +0.000 A 
ATOM      9  C   UNL     1       7.042   5.055  14.301  0.00  0.00    +0.000 A 
ATOM     10  C   UNL     1       6.207   4.104  13.695  0.00  0.00    +0.000 A 
ATOM     11  C   UNL     1       5.114   3.608  14.413  0.00  0.00    +0.000 A 
ATOM     12  C   UNL     1       4.854   4.057  15.707  0.00  0.00    +0.000 A 
BRANCH  10  13
ATOM     13  C   UNL     1       6.463   3.621  12.291  0.00  0.00    +0.000 C 
ATOM     14  F   UNL     1       6.876   2.325  12.224  0.00  0.00    +0.000 F 
ATOM     15  F   UNL     1       5.352   3.697  11.504  0.00  0.00    +0.000 F 
ATOM     16  F   UNL     1       7.421   4.350  11.654  0.00  0.00    +0.000 F 
ENDBRANCH  10  13
ENDBRANCH   3   7
BRANCH   1  18
ATOM     17  O   UNL     1       2.490   8.580  17.145  0.00  0.00    +0.000 OA
ATOM     18  C   UNL     1       2.520   7.997  18.226  0.00  0.00    +0.000 C 
ATOM     19  N   UNL     1       1.786   8.389  19.312  0.00  0.00    +0.000 N 
ATOM     20  H   UNL     1       1.840   7.837  20.161  0.00  0.00    +0.000 HD
BRANCH  19  21
ATOM     21  C   UNL     1       0.922   9.547  19.257  0.00  0.00    +0.000 C 
BRANCH  21  22
ATOM     22  C   UNL     1       0.315   9.848  20.604  0.00  0.00    +0.000 A 
ATOM     23  C   UNL     1      -0.328  11.069  20.845  0.00  0.00    +0.000 A 
ATOM     24  C   UNL     1      -0.873  11.346  22.100  0.00  0.00    +0.000 A 
ATOM     25  C   UNL     1      -0.777  10.407  23.126  0.00  0.00    +0.000 A 
ATOM     26  C   UNL     1      -0.144   9.187  22.898  0.00  0.00    +0.000 A 
ATOM     27  C   UNL     1       0.403   8.910  21.643  0.00  0.00    +0.000 A 
ENDBRANCH  21  22
ENDBRANCH  19  21
ENDBRANCH   1  18
BRANCH   5  28
ATOM     28  O   UNL     1       3.498   3.837  20.538  0.00  0.00    +0.000 OA
BRANCH  28  29
ATOM     29  C   UNL     1       2.308   4.205  21.234  0.00  0.00    +0.000 C 
BRANCH  29  30
ATOM     30  C   UNL     1       1.203   3.176  21.021  0.00  0.00    +0.000 C 
BRANCH  30  31
ATOM     31  C   UNL     1       0.591   3.371  19.635  0.00  0.00    +0.000 C 
BRANCH  31  32
ATOM     32  C   UNL     1       0.803   2.175  18.722  0.00  0.00    +0.000 C 
BRANCH  32  33
ATOM     33  O   UNL     1       2.099   1.636  18.952  0.00  0.00    +0.000 OA
ATOM     34  H   UNL     1       2.154   1.388  19.892  0.00  0.00    +0.000 HD
ENDBRANCH  32  33
ENDBRANCH  31  32
ENDBRANCH  30  31
ENDBRANCH  29  30
ENDBRANCH  28  29
ENDBRANCH   5  28
TORSDOF 11
ENDMDL
MODEL 6
REMARK VINA RESULT:      -8.6      0.372      1.248
REMARK  Name = 
REMARK  11 active torsions:
REMARK  status: ('A' for Active; 'I' for Inactive)
REMARK    1  A    between atoms: C_2  and  C_11
REMARK    2  A    between atoms: N_3  and  C_4
REMARK    3  A    between atoms: C_4  and  C_5
REMARK    4  A    between atoms: C_13  and  C_14
REMARK    5  A    between atoms: C_17  and  C_18
REMARK    6  A    between atoms: C_25  and  O_26
REMARK    7  A    between atoms: O_26  and  C_27
REMARK    8  A    between atoms: C_27  and  C_28
REMARK    9  A    between atoms: C_28  and  C_29
REMARK   10  A    between atoms: C_29  and  C_30
REMARK   11  A    between atoms: C_30  and  O_31
REMARK                            x       y       z     vdW  Elec       q    Type
REMARK                         _______ _______ _______ _____ _____    ______ ____
ROOT
ATOM      1  C   UNL     1       7.179   6.872  17.185  0.00  0.00    +0.000 C 
ATOM      2  C   UNL     1       5.846   6.927  17.341  0.00  0.00    +0.000 C 
ATOM      3  C   UNL     1       4.892   6.214  16.444  0.00  0.00    +0.000 C 
ATOM      4  C   UNL     1       5.621   5.335  15.437  0.00  0.00    +0.000 C 
ATOM      5  C   UNL     1       6.941   5.968  14.997  0.00  0.00    +0.000 C 
ATOM      6  O   UNL     1       7.803   6.225  16.127  0.00  0.00    +0.000 OA
ENDROOT
BRANCH   3   7
ATOM      7  C   UNL     1       3.892   5.387  17.234  0.00  0.00    +0.000 A 
ATOM      8  C   UNL     1       3.083   5.990  18.203  0.00  0.00    +0.000 A 
ATOM      9  C   UNL     1       2.170   5.225  18.937  0.00  0.00    +0.000 A 
ATOM     10  C   UNL     1       2.049   3.845  18.712  0.00  0.00    +0.000 A 
ATOM     11  C   UNL     1       2.852   3.246  17.737  0.00  0.00    +0.000 A 
ATOM     12  C   UNL     1       3.765   4.007  17.005  0.00  0.00    +0.000 A 
BRANCH  10  13
ATOM     13  C   UNL     1       1.082   3.006  19.506  0.00  0.00    +0.000 C 
ATOM     14  F   UNL     1       1.685   2.077  20.299  0.00  0.00    +0.000 F 
ATOM     15  F   UNL     1       0.305   3.755  20.338  0.00  0.00    +0.000 F 
ATOM     16  F   UNL     1       0.218   2.313  18.713  0.00  0.00    +0.000 F 
ENDBRANCH  10  13
ENDBRANCH   3   7
BRANCH   1  18
ATOM     17  O   UNL     1       8.450   6.919  19.215  0.00  0.00    +0.000 OA
ATOM     18  C   UNL     1       8.002   7.541  18.255  0.00  0.00    +0.000 C 
ATOM     19  N   UNL     1       8.200   8.881  18.069  0.00  0.00    +0.000 N 
ATOM     20  H   UNL     1       7.824   9.318  17.235  0.00  0.00    +0.000 HD
BRANCH  19  21
ATOM     21  C   UNL     1       8.954   9.669  19.019  0.00  0.00    +0.000 C 
BRANCH  21  22
ATOM     22  C   UNL     1       9.489  10.931  18.391  0.00  0.00    +0.000 A 
ATOM     23  C   UNL     1      10.867  11.121  18.224  0.00  0.00    +0.000 A 
ATOM     24  C   UNL     1      11.354  12.299  17.655  0.00  0.00    +0.000 A 
ATOM     25  C   UNL     1      10.470  13.299  17.252  0.00  0.00    +0.000 A 
ATOM     26  C   UNL     1       9.097  13.119  17.410  0.00  0.00    +0.000 A 
ATOM     27  C   UNL     1       8.609  11.942  17.979  0.00  0.00    +0.000 A 
ENDBRANCH  21  22
ENDBRANCH  19  21
ENDBRANCH   1  18
BRANCH   5  28
ATOM     28  O   UNL     1       7.627   5.093  14.075  0.00  0.00    +0.000 OA
BRANCH  28  29
ATOM     29  C   UNL     1       6.871   4.829  12.894  0.00  0.00    +0.000 C 
BRANCH  29  30
ATOM     30  C   UNL     1       6.200   3.462  12.963  0.00  0.00    +0.000 C 
BRANCH  30  31
ATOM     31  C   UNL     1       5.818   3.014  11.552  0.00  0.00    +0.000 C 
BRANCH  31  32
ATOM     32  C   UNL     1       5.764   1.503  11.407  0.00  0.00    +0.000 C 
BRANCH  32  33
ATOM     33  O   UNL     1       7.085   1.000  11.249  0.00  0.00    +0.000 OA
ATOM     34  H   UNL     1       7.017   0.056  11.022  0.00  0.00    +0.000 HD
ENDBRANCH  32  33
ENDBRANCH  31  32
ENDBRANCH  30  31
ENDBRANCH  29  30
ENDBRANCH  28  29
ENDBRANCH   5  28
TORSDOF 11
ENDMDL
MODEL 7
REMARK VINA RESULT:      -8.5      5.376      7.948
REMARK  Name = 
REMARK  11 active torsions:
REMARK  status: ('A' for Active; 'I' for Inactive)
REMARK    1  A    between atoms: C_2  and  C_11
REMARK    2  A    between atoms: N_3  and  C_4
REMARK    3  A    between atoms: C_4  and  C_5
REMARK    4  A    between atoms: C_13  and  C_14
REMARK    5  A    between atoms: C_17  and  C_18
REMARK    6  A    between atoms: C_25  and  O_26
REMARK    7  A    between atoms: O_26  and  C_27
REMARK    8  A    between atoms: C_27  and  C_28
REMARK    9  A    between atoms: C_28  and  C_29
REMARK   10  A    between atoms: C_29  and  C_30
REMARK   11  A    between atoms: C_30  and  O_31
REMARK                            x       y       z     vdW  Elec       q    Type
REMARK                         _______ _______ _______ _____ _____    ______ ____
ROOT
ATOM      1  C   UNL     1       3.418   6.869  18.410  0.00  0.00    +0.000 C 
ATOM      2  C   UNL     1       4.533   6.784  17.666  0.00  0.00    +0.000 C 
ATOM      3  C   UNL     1       5.420   5.585  17.661  0.00  0.00    +0.000 C 
ATOM      4  C   UNL     1       4.832   4.452  18.492  0.00  0.00    +0.000 C 
ATOM      5  C   UNL     1       4.076   4.987  19.709  0.00  0.00    +0.000 C 
ATOM      6  O   UNL     1       3.023   5.894  19.315  0.00  0.00    +0.000 OA
ENDROOT
BRANCH   3   7
ATOM      7  C   UNL     1       5.706   5.105  16.248  0.00  0.00    +0.000 A 
ATOM      8  C   UNL     1       4.701   4.495  15.491  0.00  0.00    +0.000 A 
ATOM      9  C   UNL     1       4.968   4.043  14.194  0.00  0.00    +0.000 A 
ATOM     10  C   UNL     1       6.245   4.198  13.633  0.00  0.00    +0.000 A 
ATOM     11  C   UNL     1       7.246   4.817  14.388  0.00  0.00    +0.000 A 
ATOM     12  C   UNL     1       6.981   5.266  15.682  0.00  0.00    +0.000 A 
BRANCH  10  13
ATOM     13  C   UNL     1       6.553   3.702  12.244  0.00  0.00    +0.000 C 
ATOM     14  F   UNL     1       5.446   3.493  11.479  0.00  0.00    +0.000 F 
ATOM     15  F   UNL     1       7.329   4.575  11.541  0.00  0.00    +0.000 F 
ATOM     16  F   UNL     1       7.232   2.521  12.248  0.00  0.00    +0.000 F 
ENDBRANCH  10  13
ENDBRANCH   3   7
BRANCH   1  18
ATOM     17  O   UNL     1       2.575   8.714  17.135  0.00  0.00    +0.000 OA
ATOM     18  C   UNL     1       2.568   8.095  18.196  0.00  0.00    +0.000 C 
ATOM     19  N   UNL     1       1.803   8.453  19.271  0.00  0.00    +0.000 N 
ATOM     20  H   UNL     1       1.828   7.872  20.102  0.00  0.00    +0.000 HD
BRANCH  19  21
ATOM     21  C   UNL     1       0.946   9.617  19.230  0.00  0.00    +0.000 C 
BRANCH  21  22
ATOM     22  C   UNL     1       0.343   9.909  20.581  0.00  0.00    +0.000 A 
ATOM     23  C   UNL     1       0.326   8.933  21.585  0.00  0.00    +0.000 A 
ATOM     24  C   UNL     1      -0.249   9.207  22.827  0.00  0.00    +0.000 A 
ATOM     25  C   UNL     1      -0.815  10.456  23.076  0.00  0.00    +0.000 A 
ATOM     26  C   UNL     1      -0.801  11.437  22.085  0.00  0.00    +0.000 A 
ATOM     27  C   UNL     1      -0.228  11.164  20.842  0.00  0.00    +0.000 A 
ENDBRANCH  21  22
ENDBRANCH  19  21
ENDBRANCH   1  18
BRANCH   5  28
ATOM     28  O   UNL     1       3.497   3.893  20.452  0.00  0.00    +0.000 OA
BRANCH  28  29
ATOM     29  C   UNL     1       2.112   4.086  20.736  0.00  0.00    +0.000 C 
BRANCH  29  30
ATOM     30  C   UNL     1       1.364   2.758  20.768  0.00  0.00    +0.000 C 
BRANCH  30  31
ATOM     31  C   UNL     1       0.619   2.565  19.447  0.00  0.00    +0.000 C 
BRANCH  31  32
ATOM     32  C   UNL     1       1.482   2.865  18.234  0.00  0.00    +0.000 C 
BRANCH  32  33
ATOM     33  O   UNL     1       2.240   1.707  17.901  0.00  0.00    +0.000 OA
ATOM     34  H   UNL     1       3.170   1.979  17.809  0.00  0.00    +0.000 HD
ENDBRANCH  32  33
ENDBRANCH  31  32
ENDBRANCH  30  31
ENDBRANCH  29  30
ENDBRANCH  28  29
ENDBRANCH   5  28
TORSDOF 11
ENDMDL
MODEL 8
REMARK VINA RESULT:      -8.4      5.428      8.014
REMARK  Name = 
REMARK  11 active torsions:
REMARK  status: ('A' for Active; 'I' for Inactive)
REMARK    1  A    between atoms: C_2  and  C_11
REMARK    2  A    between atoms: N_3  and  C_4
REMARK    3  A    between atoms: C_4  and  C_5
REMARK    4  A    between atoms: C_13  and  C_14
REMARK    5  A    between atoms: C_17  and  C_18
REMARK    6  A    between atoms: C_25  and  O_26
REMARK    7  A    between atoms: O_26  and  C_27
REMARK    8  A    between atoms: C_27  and  C_28
REMARK    9  A    between atoms: C_28  and  C_29
REMARK   10  A    between atoms: C_29  and  C_30
REMARK   11  A    between atoms: C_30  and  O_31
REMARK                            x       y       z     vdW  Elec       q    Type
REMARK                         _______ _______ _______ _____ _____    ______ ____
ROOT
ATOM      1  C   UNL     1       3.178   6.947  18.519  0.00  0.00    +0.000 C 
ATOM      2  C   UNL     1       4.287   6.847  17.769  0.00  0.00    +0.000 C 
ATOM      3  C   UNL     1       5.173   5.648  17.780  0.00  0.00    +0.000 C 
ATOM      4  C   UNL     1       4.590   4.531  18.637  0.00  0.00    +0.000 C 
ATOM      5  C   UNL     1       3.843   5.089  19.849  0.00  0.00    +0.000 C 
ATOM      6  O   UNL     1       2.788   5.990  19.445  0.00  0.00    +0.000 OA
ENDROOT
BRANCH   3   7
ATOM      7  C   UNL     1       5.448   5.141  16.375  0.00  0.00    +0.000 A 
ATOM      8  C   UNL     1       5.263   5.979  15.271  0.00  0.00    +0.000 A 
ATOM      9  C   UNL     1       5.507   5.508  13.976  0.00  0.00    +0.000 A 
ATOM     10  C   UNL     1       5.943   4.190  13.766  0.00  0.00    +0.000 A 
ATOM     11  C   UNL     1       6.136   3.357  14.872  0.00  0.00    +0.000 A 
ATOM     12  C   UNL     1       5.891   3.825  16.163  0.00  0.00    +0.000 A 
BRANCH  10  13
ATOM     13  C   UNL     1       6.194   3.663  12.377  0.00  0.00    +0.000 C 
ATOM     14  F   UNL     1       7.167   4.337  11.703  0.00  0.00    +0.000 F 
ATOM     15  F   UNL     1       6.583   2.356  12.379  0.00  0.00    +0.000 F 
ATOM     16  F   UNL     1       5.086   3.721  11.587  0.00  0.00    +0.000 F 
ENDBRANCH  10  13
ENDBRANCH   3   7
BRANCH   1  18
ATOM     17  O   UNL     1       2.327   8.768  17.216  0.00  0.00    +0.000 OA
ATOM     18  C   UNL     1       2.327   8.169  18.288  0.00  0.00    +0.000 C 
ATOM     19  N   UNL     1       1.569   8.548  19.361  0.00  0.00    +0.000 N 
ATOM     20  H   UNL     1       1.599   7.983  20.203  0.00  0.00    +0.000 HD
BRANCH  19  21
ATOM     21  C   UNL     1       0.712   9.712  19.304  0.00  0.00    +0.000 C 
BRANCH  21  22
ATOM     22  C   UNL     1       0.121  10.031  20.654  0.00  0.00    +0.000 A 
ATOM     23  C   UNL     1       0.135   9.084  21.686  0.00  0.00    +0.000 A 
ATOM     24  C   UNL     1      -0.429   9.383  22.927  0.00  0.00    +0.000 A 
ATOM     25  C   UNL     1      -1.015  10.629  23.148  0.00  0.00    +0.000 A 
ATOM     26  C   UNL     1      -1.030  11.581  22.130  0.00  0.00    +0.000 A 
ATOM     27  C   UNL     1      -0.468  11.283  20.887  0.00  0.00    +0.000 A 
ENDBRANCH  21  22
ENDBRANCH  19  21
ENDBRANCH   1  18
BRANCH   5  28
ATOM     28  O   UNL     1       3.269   4.010  20.617  0.00  0.00    +0.000 OA
BRANCH  28  29
ATOM     29  C   UNL     1       1.986   4.331  21.151  0.00  0.00    +0.000 C 
BRANCH  29  30
ATOM     30  C   UNL     1       0.995   3.194  20.928  0.00  0.00    +0.000 C 
BRANCH  30  31
ATOM     31  C   UNL     1       1.575   2.208  19.914  0.00  0.00    +0.000 C 
BRANCH  31  32
ATOM     32  C   UNL     1       1.119   2.486  18.492  0.00  0.00    +0.000 C 
BRANCH  32  33
ATOM     33  O   UNL     1       2.058   1.928  17.581  0.00  0.00    +0.000 OA
ATOM     34  H   UNL     1       2.158   0.985  17.800  0.00  0.00    +0.000 HD
ENDBRANCH  32  33
ENDBRANCH  31  32
ENDBRANCH  30  31
ENDBRANCH  29  30
ENDBRANCH  28  29
ENDBRANCH   5  28
TORSDOF 11
ENDMDL
MODEL 9
REMARK VINA RESULT:      -8.2      5.412      7.958
REMARK  Name = 
REMARK  11 active torsions:
REMARK  status: ('A' for Active; 'I' for Inactive)
REMARK    1  A    between atoms: C_2  and  C_11
REMARK    2  A    between atoms: N_3  and  C_4
REMARK    3  A    between atoms: C_4  and  C_5
REMARK    4  A    between atoms: C_13  and  C_14
REMARK    5  A    between atoms: C_17  and  C_18
REMARK    6  A    between atoms: C_25  and  O_26
REMARK    7  A    between atoms: O_26  and  C_27
REMARK    8  A    between atoms: C_27  and  C_28
REMARK    9  A    between atoms: C_28  and  C_29
REMARK   10  A    between atoms: C_29  and  C_30
REMARK   11  A    between atoms: C_30  and  O_31
REMARK                            x       y       z     vdW  Elec       q    Type
REMARK                         _______ _______ _______ _____ _____    ______ ____
ROOT
ATOM      1  C   UNL     1       2.691   7.333  18.677  0.00  0.00    +0.000 C 
ATOM      2  C   UNL     1       3.853   7.159  18.027  0.00  0.00    +0.000 C 
ATOM      3  C   UNL     1       4.672   5.919  18.142  0.00  0.00    +0.000 C 
ATOM      4  C   UNL     1       3.964   4.856  18.971  0.00  0.00    +0.000 C 
ATOM      5  C   UNL     1       3.147   5.482  20.102  0.00  0.00    +0.000 C 
ATOM      6  O   UNL     1       2.176   6.422  19.589  0.00  0.00    +0.000 OA
ENDROOT
BRANCH   3   7
ATOM      7  C   UNL     1       5.039   5.361  16.778  0.00  0.00    +0.000 A 
ATOM      8  C   UNL     1       5.328   6.223  15.715  0.00  0.00    +0.000 A 
ATOM      9  C   UNL     1       5.654   5.708  14.456  0.00  0.00    +0.000 A 
ATOM     10  C   UNL     1       5.702   4.322  14.240  0.00  0.00    +0.000 A 
ATOM     11  C   UNL     1       5.422   3.462  15.307  0.00  0.00    +0.000 A 
ATOM     12  C   UNL     1       5.094   3.974  16.562  0.00  0.00    +0.000 A 
BRANCH  10  13
ATOM     13  C   UNL     1       6.037   3.753  12.887  0.00  0.00    +0.000 C 
ATOM     14  F   UNL     1       7.001   4.449  12.223  0.00  0.00    +0.000 F 
ATOM     15  F   UNL     1       6.491   2.469  12.960  0.00  0.00    +0.000 F 
ATOM     16  F   UNL     1       4.961   3.719  12.052  0.00  0.00    +0.000 F 
ENDBRANCH  10  13
ENDBRANCH   3   7
BRANCH   1  18
ATOM     17  O   UNL     1       1.951   9.089  17.226  0.00  0.00    +0.000 OA
ATOM     18  C   UNL     1       1.925   8.589  18.347  0.00  0.00    +0.000 C 
ATOM     19  N   UNL     1       1.213   9.114  19.389  0.00  0.00    +0.000 N 
ATOM     20  H   UNL     1       1.216   8.625  20.277  0.00  0.00    +0.000 HD
BRANCH  19  21
ATOM     21  C   UNL     1       0.441  10.328  19.237  0.00  0.00    +0.000 C 
BRANCH  21  22
ATOM     22  C   UNL     1      -0.234  10.720  20.527  0.00  0.00    +0.000 A 
ATOM     23  C   UNL     1      -1.020  11.877  20.603  0.00  0.00    +0.000 A 
ATOM     24  C   UNL     1      -1.627  12.242  21.805  0.00  0.00    +0.000 A 
ATOM     25  C   UNL     1      -1.452  11.456  22.944  0.00  0.00    +0.000 A 
ATOM     26  C   UNL     1      -0.675  10.301  22.879  0.00  0.00    +0.000 A 
ATOM     27  C   UNL     1      -0.066   9.936  21.677  0.00  0.00    +0.000 A 
ENDBRANCH  21  22
ENDBRANCH  19  21
ENDBRANCH   1  18
BRANCH   5  28
ATOM     28  O   UNL     1       2.456   4.453  20.842  0.00  0.00    +0.000 OA
BRANCH  28  29
ATOM     29  C   UNL     1       1.087   4.321  20.463  0.00  0.00    +0.000 C 
BRANCH  29  30
ATOM     30  C   UNL     1       0.885   3.136  19.525  0.00  0.00    +0.000 C 
BRANCH  30  31
ATOM     31  C   UNL     1       1.917   2.055  19.847  0.00  0.00    +0.000 C 
BRANCH  31  32
ATOM     32  C   UNL     1       2.825   1.737  18.671  0.00  0.00    +0.000 C 
BRANCH  32  33
ATOM     33  O   UNL     1       2.094   1.891  17.461  0.00  0.00    +0.000 OA
ATOM     34  H   UNL     1       1.301   2.420  17.659  0.00  0.00    +0.000 HD
ENDBRANCH  32  33
ENDBRANCH  31  32
ENDBRANCH  30  31
ENDBRANCH  29  30
ENDBRANCH  28  29
ENDBRANCH   5  28
TORSDOF 11
ENDMDL
