MODEL 1
REMARK VINA RESULT:      -8.2      0.000      0.000
REMARK  Name = 
REMARK  9 active torsions:
REMARK  status: ('A' for Active; 'I' for Inactive)
REMARK    1  A    between atoms: C_1  and  C_2
REMARK    2  A    between atoms: C_3  and  C_4
REMARK    3  A    between atoms: N_6  and  C_7
REMARK    4  A    between atoms: C_7  and  C_8
REMARK    5  A    between atoms: C_8  and  C_9
REMARK    6  A    between atoms: C_9  and  N_10
REMARK    7  A    between atoms: N_13  and  C_14
REMARK    8  A    between atoms: C_27  and  C_28
REMARK    9  A    between atoms: N_34  and  C_35
REMARK                            x       y       z     vdW  Elec       q    Type
REMARK                         _______ _______ _______ _____ _____    ______ ____
ROOT
ATOM      1  C   UNL     1       9.287   9.523  18.607  0.00  0.00    +0.000 C 
ENDROOT
BRANCH   1   4
ATOM      2  C   UNL     1       9.911  11.318  20.166  0.00  0.00    +0.000 C 
ATOM      3  O   UNL     1      10.995  11.451  19.603  0.00  0.00    +0.000 OA
ATOM      4  N   UNL     1       9.011  10.366  19.756  0.00  0.00    +0.000 N 
ATOM      5  H   UNL     1       8.105  10.308  20.195  0.00  0.00    +0.000 HD
BRANCH   2   8
ATOM      6  C   UNL     1      10.646  14.414  20.606  0.00  0.00    +0.000 C 
ATOM      7  C   UNL     1       9.831  13.501  21.468  0.00  0.00    +0.000 A 
ATOM      8  C   UNL     1       9.496  12.161  21.301  0.00  0.00    +0.000 A 
ATOM      9  C   UNL     1       8.686  11.829  22.432  0.00  0.00    +0.000 A 
ATOM     10  C   UNL     1       8.521  12.945  23.245  0.00  0.00    +0.000 A 
ATOM     11  N   UNL     1       9.270  13.949  22.654  0.00  0.00    +0.000 N 
ATOM     12  C   UNL     1       9.502  15.291  23.155  0.00  0.00    +0.000 C 
BRANCH  10  13
ATOM     13  C   UNL     1       7.743  13.052  24.497  0.00  0.00    +0.000 A 
ATOM     14  C   UNL     1       6.347  13.201  24.454  0.00  0.00    +0.000 A 
ATOM     15  C   UNL     1       5.593  13.295  25.631  0.00  0.00    +0.000 A 
ATOM     16  C   UNL     1       6.219  13.220  26.871  0.00  0.00    +0.000 A 
ATOM     17  C   UNL     1       7.602  13.087  26.935  0.00  0.00    +0.000 A 
ATOM     18  C   UNL     1       8.357  13.037  25.758  0.00  0.00    +0.000 A 
ENDBRANCH  10  13
ENDBRANCH   2   8
ENDBRANCH   1   4
BRANCH   1  19
ATOM     19  C   UNL     1       8.390   8.286  18.598  0.00  0.00    +0.000 C 
BRANCH  19  20
ATOM     20  C   UNL     1       7.698   8.056  17.247  0.00  0.00    +0.000 C 
BRANCH  20  21
ATOM     21  N   UNL     1       7.473   6.640  16.932  0.00  0.00    +0.000 NA
ATOM     22  C   UNL     1       7.533   5.740  18.109  0.00  0.00    +0.000 C 
ATOM     23  C   UNL     1       6.271   5.612  19.005  0.00  0.00    +0.000 C 
ATOM     24  N   UNL     1       5.051   5.488  18.189  0.00  0.00    +0.000 N 
ATOM     25  C   UNL     1       4.943   6.503  17.137  0.00  0.00    +0.000 C 
ATOM     26  C   UNL     1       6.188   6.434  16.225  0.00  0.00    +0.000 C 
BRANCH  24  27
ATOM     27  C   UNL     1       4.231   4.357  18.251  0.00  0.00    +0.000 A 
ATOM     28  C   UNL     1       4.529   3.242  17.432  0.00  0.00    +0.000 A 
ATOM     29  C   UNL     1       3.732   2.102  17.399  0.00  0.00    +0.000 A 
ATOM     30  C   UNL     1       2.608   2.036  18.204  0.00  0.00    +0.000 A 
ATOM     31  C   UNL     1       2.283   3.104  19.048  0.00  0.00    +0.000 A 
ATOM     32  C   UNL     1       1.143   3.017  19.860  0.00  0.00    +0.000 A 
ATOM     33  C   UNL     1       0.802   4.063  20.700  0.00  0.00    +0.000 A 
ATOM     34  C   UNL     1       1.611   5.175  20.691  0.00  0.00    +0.000 A 
ATOM     35  N   UNL     1       2.702   5.299  19.909  0.00  0.00    +0.000 NA
ATOM     36  C   UNL     1       3.078   4.280  19.090  0.00  0.00    +0.000 A 
ENDBRANCH  24  27
ENDBRANCH  20  21
ENDBRANCH  19  20
ENDBRANCH   1  19
TORSDOF 7
ENDMDL
MODEL 2
REMARK VINA RESULT:      -8.2      5.830      8.141
REMARK  Name = 
REMARK  9 active torsions:
REMARK  status: ('A' for Active; 'I' for Inactive)
REMARK    1  A    between atoms: C_1  and  C_2
REMARK    2  A    between atoms: C_3  and  C_4
REMARK    3  A    between atoms: N_6  and  C_7
REMARK    4  A    between atoms: C_7  and  C_8
REMARK    5  A    between atoms: C_8  and  C_9
REMARK    6  A    between atoms: C_9  and  N_10
REMARK    7  A    between atoms: N_13  and  C_14
REMARK    8  A    between atoms: C_27  and  C_28
REMARK    9  A    between atoms: N_34  and  C_35
REMARK                            x       y       z     vdW  Elec       q    Type
REMARK                         _______ _______ _______ _____ _____    ______ ____
ROOT
ATOM      1  C   UNL     1       0.992   3.660  20.589  0.00  0.00    +0.000 C 
ENDROOT
BRANCH   1   4
ATOM      2  C   UNL     1       1.733   6.003  20.584  0.00  0.00    +0.000 C 
ATOM      3  O   UNL     1       2.872   5.660  20.890  0.00  0.00    +0.000 OA
ATOM      4  N   UNL     1       0.728   5.080  20.441  0.00  0.00    +0.000 N 
ATOM      5  H   UNL     1      -0.187   5.375  20.137  0.00  0.00    +0.000 HD
BRANCH   2   8
ATOM      6  C   UNL     1       2.768   7.858  18.175  0.00  0.00    +0.000 C 
ATOM      7  C   UNL     1       1.830   8.192  19.293  0.00  0.00    +0.000 A 
ATOM      8  C   UNL     1       1.364   7.410  20.345  0.00  0.00    +0.000 A 
ATOM      9  C   UNL     1       0.481   8.256  21.085  0.00  0.00    +0.000 A 
ATOM     10  C   UNL     1       0.400   9.507  20.482  0.00  0.00    +0.000 A 
ATOM     11  N   UNL     1       1.273   9.456  19.406  0.00  0.00    +0.000 N 
ATOM     12  C   UNL     1       1.623  10.535  18.501  0.00  0.00    +0.000 C 
BRANCH  10  13
ATOM     13  C   UNL     1      -0.409  10.670  20.900  0.00  0.00    +0.000 A 
ATOM     14  C   UNL     1      -0.209  11.255  22.161  0.00  0.00    +0.000 A 
ATOM     15  C   UNL     1      -0.962  12.364  22.572  0.00  0.00    +0.000 A 
ATOM     16  C   UNL     1      -1.911  12.919  21.719  0.00  0.00    +0.000 A 
ATOM     17  C   UNL     1      -2.134  12.346  20.473  0.00  0.00    +0.000 A 
ATOM     18  C   UNL     1      -1.412  11.212  20.083  0.00  0.00    +0.000 A 
ENDBRANCH  10  13
ENDBRANCH   2   8
ENDBRANCH   1   4
BRANCH   1  19
ATOM     19  C   UNL     1       0.671   2.898  19.303  0.00  0.00    +0.000 C 
BRANCH  19  20
ATOM     20  C   UNL     1       1.581   1.683  19.081  0.00  0.00    +0.000 C 
BRANCH  20  21
ATOM     21  N   UNL     1       2.546   1.859  17.989  0.00  0.00    +0.000 NA
ATOM     22  C   UNL     1       2.362   3.109  17.213  0.00  0.00    +0.000 C 
ATOM     23  C   UNL     1       2.960   4.424  17.783  0.00  0.00    +0.000 C 
ATOM     24  N   UNL     1       4.321   4.207  18.303  0.00  0.00    +0.000 N 
ATOM     25  C   UNL     1       4.430   3.056  19.203  0.00  0.00    +0.000 C 
ATOM     26  C   UNL     1       3.943   1.785  18.475  0.00  0.00    +0.000 C 
BRANCH  24  27
ATOM     27  C   UNL     1       5.431   4.874  17.771  0.00  0.00    +0.000 A 
ATOM     28  C   UNL     1       6.150   5.776  18.591  0.00  0.00    +0.000 A 
ATOM     29  C   UNL     1       7.232   6.515  18.120  0.00  0.00    +0.000 A 
ATOM     30  C   UNL     1       7.639   6.363  16.807  0.00  0.00    +0.000 A 
ATOM     31  C   UNL     1       6.972   5.467  15.962  0.00  0.00    +0.000 A 
ATOM     32  C   UNL     1       7.402   5.321  14.636  0.00  0.00    +0.000 A 
ATOM     33  C   UNL     1       6.755   4.442  13.784  0.00  0.00    +0.000 A 
ATOM     34  C   UNL     1       5.683   3.742  14.287  0.00  0.00    +0.000 A 
ATOM     35  N   UNL     1       5.233   3.872  15.551  0.00  0.00    +0.000 NA
ATOM     36  C   UNL     1       5.861   4.709  16.420  0.00  0.00    +0.000 A 
ENDBRANCH  24  27
ENDBRANCH  20  21
ENDBRANCH  19  20
ENDBRANCH   1  19
TORSDOF 7
ENDMDL
MODEL 3
REMARK VINA RESULT:      -8.1      1.063      1.100
REMARK  Name = 
REMARK  9 active torsions:
REMARK  status: ('A' for Active; 'I' for Inactive)
REMARK    1  A    between atoms: C_1  and  C_2
REMARK    2  A    between atoms: C_3  and  C_4
REMARK    3  A    between atoms: N_6  and  C_7
REMARK    4  A    between atoms: C_7  and  C_8
REMARK    5  A    between atoms: C_8  and  C_9
REMARK    6  A    between atoms: C_9  and  N_10
REMARK    7  A    between atoms: N_13  and  C_14
REMARK    8  A    between atoms: C_27  and  C_28
REMARK    9  A    between atoms: N_34  and  C_35
REMARK                            x       y       z     vdW  Elec       q    Type
REMARK                         _______ _______ _______ _____ _____    ______ ____
ROOT
ATOM      1  C   UNL     1       9.288  10.141  18.829  0.00  0.00    +0.000 C 
ENDROOT
BRANCH   1   4
ATOM      2  C   UNL     1       9.049  11.975  20.448  0.00  0.00    +0.000 C 
ATOM      3  O   UNL     1       9.326  12.798  19.579  0.00  0.00    +0.000 OA
ATOM      4  N   UNL     1       9.034  10.631  20.172  0.00  0.00    +0.000 N 
ATOM      5  H   UNL     1       8.751   9.974  20.884  0.00  0.00    +0.000 HD
BRANCH   2   8
ATOM      6  C   UNL     1       9.804  14.744  21.888  0.00  0.00    +0.000 C 
ATOM      7  C   UNL     1       9.052  13.568  22.429  0.00  0.00    +0.000 A 
ATOM      8  C   UNL     1       8.711  12.361  21.829  0.00  0.00    +0.000 A 
ATOM      9  C   UNL     1       7.980  11.637  22.822  0.00  0.00    +0.000 A 
ATOM     10  C   UNL     1       7.867  12.398  23.981  0.00  0.00    +0.000 A 
ATOM     11  N   UNL     1       8.572  13.563  23.730  0.00  0.00    +0.000 N 
ATOM     12  C   UNL     1       8.834  14.654  24.650  0.00  0.00    +0.000 C 
BRANCH  10  13
ATOM     13  C   UNL     1       7.177  12.044  25.239  0.00  0.00    +0.000 A 
ATOM     14  C   UNL     1       5.956  11.349  25.206  0.00  0.00    +0.000 A 
ATOM     15  C   UNL     1       5.291  10.998  26.388  0.00  0.00    +0.000 A 
ATOM     16  C   UNL     1       5.847  11.315  27.624  0.00  0.00    +0.000 A 
ATOM     17  C   UNL     1       7.048  12.015  27.678  0.00  0.00    +0.000 A 
ATOM     18  C   UNL     1       7.687  12.403  26.495  0.00  0.00    +0.000 A 
ENDBRANCH  10  13
ENDBRANCH   2   8
ENDBRANCH   1   4
BRANCH   1  19
ATOM     19  C   UNL     1       8.823   8.693  18.670  0.00  0.00    +0.000 C 
BRANCH  19  20
ATOM     20  C   UNL     1       7.612   8.550  17.738  0.00  0.00    +0.000 C 
BRANCH  20  21
ATOM     21  N   UNL     1       7.439   7.197  17.196  0.00  0.00    +0.000 NA
ATOM     22  C   UNL     1       7.581   6.118  18.202  0.00  0.00    +0.000 C 
ATOM     23  C   UNL     1       6.358   5.780  19.097  0.00  0.00    +0.000 C 
ATOM     24  N   UNL     1       5.117   5.733  18.305  0.00  0.00    +0.000 N 
ATOM     25  C   UNL     1       4.927   6.902  17.442  0.00  0.00    +0.000 C 
ATOM     26  C   UNL     1       6.141   7.048  16.499  0.00  0.00    +0.000 C 
BRANCH  24  27
ATOM     27  C   UNL     1       4.351   4.567  18.199  0.00  0.00    +0.000 A 
ATOM     28  C   UNL     1       4.619   3.659  17.148  0.00  0.00    +0.000 A 
ATOM     29  C   UNL     1       3.868   2.505  16.945  0.00  0.00    +0.000 A 
ATOM     30  C   UNL     1       2.823   2.215  17.804  0.00  0.00    +0.000 A 
ATOM     31  C   UNL     1       2.531   3.072  18.872  0.00  0.00    +0.000 A 
ATOM     32  C   UNL     1       1.473   2.759  19.736  0.00  0.00    +0.000 A 
ATOM     33  C   UNL     1       1.165   3.594  20.797  0.00  0.00    +0.000 A 
ATOM     34  C   UNL     1       1.926   4.730  20.952  0.00  0.00    +0.000 A 
ATOM     35  N   UNL     1       2.938   5.070  20.129  0.00  0.00    +0.000 NA
ATOM     36  C   UNL     1       3.280   4.259  19.092  0.00  0.00    +0.000 A 
ENDBRANCH  24  27
ENDBRANCH  20  21
ENDBRANCH  19  20
ENDBRANCH   1  19
TORSDOF 7
ENDMDL
MODEL 4
REMARK VINA RESULT:      -8.0      4.645     11.556
REMARK  Name = 
REMARK  9 active torsions:
REMARK  status: ('A' for Active; 'I' for Inactive)
REMARK    1  A    between atoms: C_1  and  C_2
REMARK    2  A    between atoms: C_3  and  C_4
REMARK    3  A    between atoms: N_6  and  C_7
REMARK    4  A    between atoms: C_7  and  C_8
REMARK    5  A    between atoms: C_8  and  C_9
REMARK    6  A    between atoms: C_9  and  N_10
REMARK    7  A    between atoms: N_13  and  C_14
REMARK    8  A    between atoms: C_27  and  C_28
REMARK    9  A    between atoms: N_34  and  C_35
REMARK                            x       y       z     vdW  Elec       q    Type
REMARK                         _______ _______ _______ _____ _____    ______ ____
ROOT
ATOM      1  C   UNL     1       1.038  12.768  18.318  0.00  0.00    +0.000 C 
ENDROOT
BRANCH   1   4
ATOM      2  C   UNL     1       1.071  10.541  19.357  0.00  0.00    +0.000 C 
ATOM      3  O   UNL     1       0.271  10.912  20.212  0.00  0.00    +0.000 OA
ATOM      4  N   UNL     1       1.529  11.404  18.394  0.00  0.00    +0.000 N 
ATOM      5  H   UNL     1       2.144  11.067  17.668  0.00  0.00    +0.000 HD
BRANCH   2   8
ATOM      6  C   UNL     1       0.684   8.265  21.590  0.00  0.00    +0.000 C 
ATOM      7  C   UNL     1       1.406   8.196  20.280  0.00  0.00    +0.000 A 
ATOM      8  C   UNL     1       1.587   9.162  19.297  0.00  0.00    +0.000 A 
ATOM      9  C   UNL     1       2.341   8.519  18.267  0.00  0.00    +0.000 A 
ATOM     10  C   UNL     1       2.589   7.195  18.612  0.00  0.00    +0.000 A 
ATOM     11  N   UNL     1       2.041   7.032  19.874  0.00  0.00    +0.000 N 
ATOM     12  C   UNL     1       2.103   5.855  20.720  0.00  0.00    +0.000 C 
BRANCH  10  13
ATOM     13  C   UNL     1       3.311   6.169  17.831  0.00  0.00    +0.000 A 
ATOM     14  C   UNL     1       4.469   6.511  17.113  0.00  0.00    +0.000 A 
ATOM     15  C   UNL     1       5.172   5.550  16.374  0.00  0.00    +0.000 A 
ATOM     16  C   UNL     1       4.741   4.227  16.358  0.00  0.00    +0.000 A 
ATOM     17  C   UNL     1       3.589   3.871  17.051  0.00  0.00    +0.000 A 
ATOM     18  C   UNL     1       2.865   4.842  17.752  0.00  0.00    +0.000 A 
ENDBRANCH  10  13
ENDBRANCH   2   8
ENDBRANCH   1   4
BRANCH   1  19
ATOM     19  C   UNL     1       2.178  13.755  18.064  0.00  0.00    +0.000 C 
BRANCH  19  20
ATOM     20  C   UNL     1       2.820  14.277  19.356  0.00  0.00    +0.000 C 
BRANCH  20  21
ATOM     21  N   UNL     1       3.581  15.520  19.178  0.00  0.00    +0.000 NA
ATOM     22  C   UNL     1       4.576  15.779  20.246  0.00  0.00    +0.000 C 
ATOM     23  C   UNL     1       5.954  15.070  20.157  0.00  0.00    +0.000 C 
ATOM     24  N   UNL     1       6.488  15.116  18.785  0.00  0.00    +0.000 N 
ATOM     25  C   UNL     1       5.525  14.691  17.766  0.00  0.00    +0.000 C 
ATOM     26  C   UNL     1       4.255  15.565  17.860  0.00  0.00    +0.000 C 
BRANCH  24  27
ATOM     27  C   UNL     1       7.695  15.756  18.482  0.00  0.00    +0.000 A 
ATOM     28  C   UNL     1       7.767  17.167  18.565  0.00  0.00    +0.000 A 
ATOM     29  C   UNL     1       8.914  17.879  18.229  0.00  0.00    +0.000 A 
ATOM     30  C   UNL     1      10.040  17.194  17.809  0.00  0.00    +0.000 A 
ATOM     31  C   UNL     1      10.025  15.796  17.731  0.00  0.00    +0.000 A 
ATOM     32  C   UNL     1      11.177  15.118  17.308  0.00  0.00    +0.000 A 
ATOM     33  C   UNL     1      11.183  13.736  17.221  0.00  0.00    +0.000 A 
ATOM     34  C   UNL     1      10.024  13.074  17.550  0.00  0.00    +0.000 A 
ATOM     35  N   UNL     1       8.893  13.696  17.941  0.00  0.00    +0.000 NA
ATOM     36  C   UNL     1       8.862  15.051  18.061  0.00  0.00    +0.000 A 
ENDBRANCH  24  27
ENDBRANCH  20  21
ENDBRANCH  19  20
ENDBRANCH   1  19
TORSDOF 7
ENDMDL
MODEL 5
REMARK VINA RESULT:      -7.9      0.737      1.112
REMARK  Name = 
REMARK  9 active torsions:
REMARK  status: ('A' for Active; 'I' for Inactive)
REMARK    1  A    between atoms: C_1  and  C_2
REMARK    2  A    between atoms: C_3  and  C_4
REMARK    3  A    between atoms: N_6  and  C_7
REMARK    4  A    between atoms: C_7  and  C_8
REMARK    5  A    between atoms: C_8  and  C_9
REMARK    6  A    between atoms: C_9  and  N_10
REMARK    7  A    between atoms: N_13  and  C_14
REMARK    8  A    between atoms: C_27  and  C_28
REMARK    9  A    between atoms: N_34  and  C_35
REMARK                            x       y       z     vdW  Elec       q    Type
REMARK                         _______ _______ _______ _____ _____    ______ ____
ROOT
ATOM      1  C   UNL     1       9.029  10.147  18.101  0.00  0.00    +0.000 C 
ENDROOT
BRANCH   1   4
ATOM      2  C   UNL     1       9.516  11.174  20.280  0.00  0.00    +0.000 C 
ATOM      3  O   UNL     1      10.636  10.671  20.284  0.00  0.00    +0.000 OA
ATOM      4  N   UNL     1       8.639  10.946  19.249  0.00  0.00    +0.000 N 
ATOM      5  H   UNL     1       7.744  11.411  19.237  0.00  0.00    +0.000 HD
BRANCH   2   8
ATOM      6  C   UNL     1       9.656  14.383  20.324  0.00  0.00    +0.000 C 
ATOM      7  C   UNL     1       9.111  13.443  21.355  0.00  0.00    +0.000 A 
ATOM      8  C   UNL     1       9.037  12.055  21.361  0.00  0.00    +0.000 A 
ATOM      9  C   UNL     1       8.404  11.714  22.597  0.00  0.00    +0.000 A 
ATOM     10  C   UNL     1       8.087  12.868  23.305  0.00  0.00    +0.000 A 
ATOM     11  N   UNL     1       8.572  13.917  22.541  0.00  0.00    +0.000 N 
ATOM     12  C   UNL     1       8.572  15.328  22.876  0.00  0.00    +0.000 C 
BRANCH  10  13
ATOM     13  C   UNL     1       7.409  12.976  24.614  0.00  0.00    +0.000 A 
ATOM     14  C   UNL     1       8.120  12.738  25.802  0.00  0.00    +0.000 A 
ATOM     15  C   UNL     1       7.496  12.845  27.052  0.00  0.00    +0.000 A 
ATOM     16  C   UNL     1       6.157  13.213  27.136  0.00  0.00    +0.000 A 
ATOM     17  C   UNL     1       5.432  13.439  25.971  0.00  0.00    +0.000 A 
ATOM     18  C   UNL     1       6.046  13.289  24.723  0.00  0.00    +0.000 A 
ENDBRANCH  10  13
ENDBRANCH   2   8
ENDBRANCH   1   4
BRANCH   1  19
ATOM     19  C   UNL     1       7.960   9.109  17.759  0.00  0.00    +0.000 C 
BRANCH  19  20
ATOM     20  C   UNL     1       8.177   7.767  18.469  0.00  0.00    +0.000 C 
BRANCH  20  21
ATOM     21  N   UNL     1       7.735   6.606  17.688  0.00  0.00    +0.000 NA
ATOM     22  C   UNL     1       7.670   5.344  18.463  0.00  0.00    +0.000 C 
ATOM     23  C   UNL     1       6.411   5.077  19.333  0.00  0.00    +0.000 C 
ATOM     24  N   UNL     1       5.179   5.426  18.606  0.00  0.00    +0.000 N 
ATOM     25  C   UNL     1       5.216   6.756  17.990  0.00  0.00    +0.000 C 
ATOM     26  C   UNL     1       6.427   6.848  17.037  0.00  0.00    +0.000 C 
BRANCH  24  27
ATOM     27  C   UNL     1       4.196   4.473  18.315  0.00  0.00    +0.000 A 
ATOM     28  C   UNL     1       4.177   3.871  17.035  0.00  0.00    +0.000 A 
ATOM     29  C   UNL     1       3.201   2.955  16.653  0.00  0.00    +0.000 A 
ATOM     30  C   UNL     1       2.214   2.599  17.554  0.00  0.00    +0.000 A 
ATOM     31  C   UNL     1       2.203   3.151  18.841  0.00  0.00    +0.000 A 
ATOM     32  C   UNL     1       1.198   2.775  19.743  0.00  0.00    +0.000 A 
ATOM     33  C   UNL     1       1.167   3.311  21.019  0.00  0.00    +0.000 A 
ATOM     34  C   UNL     1       2.143   4.222  21.349  0.00  0.00    +0.000 A 
ATOM     35  N   UNL     1       3.111   4.620  20.500  0.00  0.00    +0.000 NA
ATOM     36  C   UNL     1       3.184   4.094  19.248  0.00  0.00    +0.000 A 
ENDBRANCH  24  27
ENDBRANCH  20  21
ENDBRANCH  19  20
ENDBRANCH   1  19
TORSDOF 7
ENDMDL
MODEL 6
REMARK VINA RESULT:      -7.9      6.856     11.428
REMARK  Name = 
REMARK  9 active torsions:
REMARK  status: ('A' for Active; 'I' for Inactive)
REMARK    1  A    between atoms: C_1  and  C_2
REMARK    2  A    between atoms: C_3  and  C_4
REMARK    3  A    between atoms: N_6  and  C_7
REMARK    4  A    between atoms: C_7  and  C_8
REMARK    5  A    between atoms: C_8  and  C_9
REMARK    6  A    between atoms: C_9  and  N_10
REMARK    7  A    between atoms: N_13  and  C_14
REMARK    8  A    between atoms: C_27  and  C_28
REMARK    9  A    between atoms: N_34  and  C_35
REMARK                            x       y       z     vdW  Elec       q    Type
REMARK                         _______ _______ _______ _____ _____    ______ ____
ROOT
ATOM      1  C   UNL     1       1.773   8.363  18.681  0.00  0.00    +0.000 C 
ENDROOT
BRANCH   1   4
ATOM      2  C   UNL     1       3.512   6.635  18.507  0.00  0.00    +0.000 C 
ATOM      3  O   UNL     1       3.234   6.221  19.630  0.00  0.00    +0.000 OA
ATOM      4  N   UNL     1       2.857   7.712  17.966  0.00  0.00    +0.000 N 
ATOM      5  H   UNL     1       3.061   8.004  17.023  0.00  0.00    +0.000 HD
BRANCH   2   8
ATOM      6  C   UNL     1       6.275   5.352  19.525  0.00  0.00    +0.000 C 
ATOM      7  C   UNL     1       5.738   5.465  18.132  0.00  0.00    +0.000 A 
ATOM      8  C   UNL     1       4.548   6.012  17.664  0.00  0.00    +0.000 A 
ATOM      9  C   UNL     1       4.572   5.818  16.248  0.00  0.00    +0.000 A 
ATOM     10  C   UNL     1       5.736   5.153  15.877  0.00  0.00    +0.000 A 
ATOM     11  N   UNL     1       6.457   4.986  17.048  0.00  0.00    +0.000 N 
ATOM     12  C   UNL     1       7.786   4.423  17.195  0.00  0.00    +0.000 C 
BRANCH  10  13
ATOM     13  C   UNL     1       6.153   4.735  14.522  0.00  0.00    +0.000 A 
ATOM     14  C   UNL     1       7.272   5.325  13.912  0.00  0.00    +0.000 A 
ATOM     15  C   UNL     1       7.688   4.935  12.632  0.00  0.00    +0.000 A 
ATOM     16  C   UNL     1       7.006   3.932  11.950  0.00  0.00    +0.000 A 
ATOM     17  C   UNL     1       5.887   3.345  12.532  0.00  0.00    +0.000 A 
ATOM     18  C   UNL     1       5.449   3.767  13.791  0.00  0.00    +0.000 A 
ENDBRANCH  10  13
ENDBRANCH   2   8
ENDBRANCH   1   4
BRANCH   1  19
ATOM     19  C   UNL     1       1.233   9.561  17.899  0.00  0.00    +0.000 C 
BRANCH  19  20
ATOM     20  C   UNL     1       1.429  10.894  18.633  0.00  0.00    +0.000 C 
BRANCH  20  21
ATOM     21  N   UNL     1       0.596  11.038  19.832  0.00  0.00    +0.000 NA
ATOM     22  C   UNL     1       0.204  12.436  20.134  0.00  0.00    +0.000 C 
ATOM     23  C   UNL     1      -1.006  13.042  19.374  0.00  0.00    +0.000 C 
ATOM     24  N   UNL     1      -2.123  12.084  19.303  0.00  0.00    +0.000 N 
ATOM     25  C   UNL     1      -1.725  10.752  18.838  0.00  0.00    +0.000 C 
ATOM     26  C   UNL     1      -0.619  10.195  19.759  0.00  0.00    +0.000 C 
BRANCH  24  27
ATOM     27  C   UNL     1      -3.369  12.357  19.877  0.00  0.00    +0.000 A 
ATOM     28  C   UNL     1      -3.442  12.650  21.260  0.00  0.00    +0.000 A 
ATOM     29  C   UNL     1      -4.648  12.879  21.914  0.00  0.00    +0.000 A 
ATOM     30  C   UNL     1      -5.829  12.837  21.196  0.00  0.00    +0.000 A 
ATOM     31  C   UNL     1      -5.808  12.571  19.821  0.00  0.00    +0.000 A 
ATOM     32  C   UNL     1      -7.015  12.537  19.108  0.00  0.00    +0.000 A 
ATOM     33  C   UNL     1      -7.016  12.275  17.749  0.00  0.00    +0.000 A 
ATOM     34  C   UNL     1      -5.803  12.041  17.145  0.00  0.00    +0.000 A 
ATOM     35  N   UNL     1      -4.627  12.047  17.805  0.00  0.00    +0.000 NA
ATOM     36  C   UNL     1      -4.589  12.326  19.135  0.00  0.00    +0.000 A 
ENDBRANCH  24  27
ENDBRANCH  20  21
ENDBRANCH  19  20
ENDBRANCH   1  19
TORSDOF 7
ENDMDL
MODEL 7
REMARK VINA RESULT:      -7.9      6.467     12.074
REMARK  Name = 
REMARK  9 active torsions:
REMARK  status: ('A' for Active; 'I' for Inactive)
REMARK    1  A    between atoms: C_1  and  C_2
REMARK    2  A    between atoms: C_3  and  C_4
REMARK    3  A    between atoms: N_6  and  C_7
REMARK    4  A    between atoms: C_7  and  C_8
REMARK    5  A    between atoms: C_8  and  C_9
REMARK    6  A    between atoms: C_9  and  N_10
REMARK    7  A    between atoms: N_13  and  C_14
REMARK    8  A    between atoms: C_27  and  C_28
REMARK    9  A    between atoms: N_34  and  C_35
REMARK                            x       y       z     vdW  Elec       q    Type
REMARK                         _______ _______ _______ _____ _____    ______ ____
ROOT
ATOM      1  C   UNL     1       1.288   8.261  21.144  0.00  0.00    +0.000 C 
ENDROOT
BRANCH   1   4
ATOM      2  C   UNL     1       1.885   6.017  20.338  0.00  0.00    +0.000 C 
ATOM      3  O   UNL     1       1.109   5.506  21.141  0.00  0.00    +0.000 OA
ATOM      4  N   UNL     1       2.059   7.378  20.288  0.00  0.00    +0.000 N 
ATOM      5  H   UNL     1       2.659   7.783  19.585  0.00  0.00    +0.000 HD
BRANCH   2   8
ATOM      6  C   UNL     1       1.627   2.858  19.818  0.00  0.00    +0.000 C 
ATOM      7  C   UNL     1       2.540   3.854  19.172  0.00  0.00    +0.000 A 
ATOM      8  C   UNL     1       2.671   5.223  19.376  0.00  0.00    +0.000 A 
ATOM      9  C   UNL     1       3.687   5.648  18.464  0.00  0.00    +0.000 A 
ATOM     10  C   UNL     1       4.140   4.565  17.717  0.00  0.00    +0.000 A 
ATOM     11  N   UNL     1       3.450   3.466  18.202  0.00  0.00    +0.000 N 
ATOM     12  C   UNL     1       3.618   2.077  17.817  0.00  0.00    +0.000 C 
BRANCH  10  13
ATOM     13  C   UNL     1       5.164   4.559  16.652  0.00  0.00    +0.000 A 
ATOM     14  C   UNL     1       4.785   4.421  15.306  0.00  0.00    +0.000 A 
ATOM     15  C   UNL     1       5.742   4.422  14.282  0.00  0.00    +0.000 A 
ATOM     16  C   UNL     1       7.090   4.582  14.584  0.00  0.00    +0.000 A 
ATOM     17  C   UNL     1       7.487   4.705  15.911  0.00  0.00    +0.000 A 
ATOM     18  C   UNL     1       6.534   4.661  16.935  0.00  0.00    +0.000 A 
ENDBRANCH  10  13
ENDBRANCH   2   8
ENDBRANCH   1   4
BRANCH   1  19
ATOM     19  C   UNL     1       0.673   9.410  20.345  0.00  0.00    +0.000 C 
BRANCH  19  20
ATOM     20  C   UNL     1       0.917  10.784  20.984  0.00  0.00    +0.000 C 
BRANCH  20  21
ATOM     21  N   UNL     1       1.410  11.795  20.042  0.00  0.00    +0.000 NA
ATOM     22  C   UNL     1       0.480  12.088  18.926  0.00  0.00    +0.000 C 
ATOM     23  C   UNL     1      -0.689  13.078  19.181  0.00  0.00    +0.000 C 
ATOM     24  N   UNL     1      -0.232  14.257  19.936  0.00  0.00    +0.000 N 
ATOM     25  C   UNL     1       0.547  13.923  21.132  0.00  0.00    +0.000 C 
ATOM     26  C   UNL     1       1.762  13.059  20.730  0.00  0.00    +0.000 C 
BRANCH  24  27
ATOM     27  C   UNL     1      -0.310  15.551  19.408  0.00  0.00    +0.000 A 
ATOM     28  C   UNL     1      -1.476  16.320  19.638  0.00  0.00    +0.000 A 
ATOM     29  C   UNL     1      -1.650  17.592  19.103  0.00  0.00    +0.000 A 
ATOM     30  C   UNL     1      -0.649  18.145  18.324  0.00  0.00    +0.000 A 
ATOM     31  C   UNL     1       0.532  17.432  18.085  0.00  0.00    +0.000 A 
ATOM     32  C   UNL     1       1.537  18.010  17.298  0.00  0.00    +0.000 A 
ATOM     33  C   UNL     1       2.712  17.321  17.047  0.00  0.00    +0.000 A 
ATOM     34  C   UNL     1       2.837  16.062  17.586  0.00  0.00    +0.000 A 
ATOM     35  N   UNL     1       1.882  15.469  18.330  0.00  0.00    +0.000 NA
ATOM     36  C   UNL     1       0.727  16.128  18.615  0.00  0.00    +0.000 A 
ENDBRANCH  24  27
ENDBRANCH  20  21
ENDBRANCH  19  20
ENDBRANCH   1  19
TORSDOF 7
ENDMDL
MODEL 8
REMARK VINA RESULT:      -7.8      7.169     12.353
REMARK  Name = 
REMARK  9 active torsions:
REMARK  status: ('A' for Active; 'I' for Inactive)
REMARK    1  A    between atoms: C_1  and  C_2
REMARK    2  A    between atoms: C_3  and  C_4
REMARK    3  A    between atoms: N_6  and  C_7
REMARK    4  A    between atoms: C_7  and  C_8
REMARK    5  A    between atoms: C_8  and  C_9
REMARK    6  A    between atoms: C_9  and  N_10
REMARK    7  A    between atoms: N_13  and  C_14
REMARK    8  A    between atoms: C_27  and  C_28
REMARK    9  A    between atoms: N_34  and  C_35
REMARK                            x       y       z     vdW  Elec       q    Type
REMARK                         _______ _______ _______ _____ _____    ______ ____
ROOT
ATOM      1  C   UNL     1       1.290   8.836  21.856  0.00  0.00    +0.000 C 
ENDROOT
BRANCH   1   4
ATOM      2  C   UNL     1       2.046   7.864  19.729  0.00  0.00    +0.000 C 
ATOM      3  O   UNL     1       1.649   8.853  19.119  0.00  0.00    +0.000 OA
ATOM      4  N   UNL     1       1.885   7.757  21.087  0.00  0.00    +0.000 N 
ATOM      5  H   UNL     1       2.265   6.962  21.578  0.00  0.00    +0.000 HD
BRANCH   2   8
ATOM      6  C   UNL     1       1.445   4.742  20.187  0.00  0.00    +0.000 C 
ATOM      7  C   UNL     1       2.443   5.393  19.280  0.00  0.00    +0.000 A 
ATOM      8  C   UNL     1       2.723   6.738  19.061  0.00  0.00    +0.000 A 
ATOM      9  C   UNL     1       3.758   6.755  18.075  0.00  0.00    +0.000 A 
ATOM     10  C   UNL     1       4.077   5.456  17.696  0.00  0.00    +0.000 A 
ATOM     11  N   UNL     1       3.286   4.634  18.483  0.00  0.00    +0.000 N 
ATOM     12  C   UNL     1       3.298   3.185  18.538  0.00  0.00    +0.000 C 
BRANCH  10  13
ATOM     13  C   UNL     1       5.071   5.018  16.694  0.00  0.00    +0.000 A 
ATOM     14  C   UNL     1       4.658   4.627  15.409  0.00  0.00    +0.000 A 
ATOM     15  C   UNL     1       5.587   4.218  14.443  0.00  0.00    +0.000 A 
ATOM     16  C   UNL     1       6.947   4.213  14.739  0.00  0.00    +0.000 A 
ATOM     17  C   UNL     1       7.375   4.582  16.009  0.00  0.00    +0.000 A 
ATOM     18  C   UNL     1       6.442   4.949  16.984  0.00  0.00    +0.000 A 
ENDBRANCH  10  13
ENDBRANCH   2   8
ENDBRANCH   1   4
BRANCH   1  19
ATOM     19  C   UNL     1      -0.234   8.830  21.734  0.00  0.00    +0.000 C 
BRANCH  19  20
ATOM     20  C   UNL     1      -0.787  10.092  21.059  0.00  0.00    +0.000 C 
BRANCH  20  21
ATOM     21  N   UNL     1      -0.430  11.336  21.750  0.00  0.00    +0.000 NA
ATOM     22  C   UNL     1      -0.817  12.567  21.020  0.00  0.00    +0.000 C 
ATOM     23  C   UNL     1      -2.282  13.068  21.142  0.00  0.00    +0.000 C 
ATOM     24  N   UNL     1      -2.752  12.997  22.536  0.00  0.00    +0.000 N 
ATOM     25  C   UNL     1      -2.502  11.703  23.176  0.00  0.00    +0.000 C 
ATOM     26  C   UNL     1      -0.992  11.384  23.120  0.00  0.00    +0.000 C 
BRANCH  24  27
ATOM     27  C   UNL     1      -3.148  14.139  23.242  0.00  0.00    +0.000 A 
ATOM     28  C   UNL     1      -2.179  14.868  23.973  0.00  0.00    +0.000 A 
ATOM     29  C   UNL     1      -2.503  15.982  24.741  0.00  0.00    +0.000 A 
ATOM     30  C   UNL     1      -3.817  16.414  24.791  0.00  0.00    +0.000 A 
ATOM     31  C   UNL     1      -4.808  15.738  24.068  0.00  0.00    +0.000 A 
ATOM     32  C   UNL     1      -6.132  16.193  24.127  0.00  0.00    +0.000 A 
ATOM     33  C   UNL     1      -7.128  15.539  23.422  0.00  0.00    +0.000 A 
ATOM     34  C   UNL     1      -6.765  14.435  22.686  0.00  0.00    +0.000 A 
ATOM     35  N   UNL     1      -5.505  13.960  22.624  0.00  0.00    +0.000 NA
ATOM     36  C   UNL     1      -4.500  14.594  23.285  0.00  0.00    +0.000 A 
ENDBRANCH  24  27
ENDBRANCH  20  21
ENDBRANCH  19  20
ENDBRANCH   1  19
TORSDOF 7
ENDMDL
MODEL 9
REMARK VINA RESULT:      -7.8      4.230      6.274
REMARK  Name = 
REMARK  9 active torsions:
REMARK  status: ('A' for Active; 'I' for Inactive)
REMARK    1  A    between atoms: C_1  and  C_2
REMARK    2  A    between atoms: C_3  and  C_4
REMARK    3  A    between atoms: N_6  and  C_7
REMARK    4  A    between atoms: C_7  and  C_8
REMARK    5  A    between atoms: C_8  and  C_9
REMARK    6  A    between atoms: C_9  and  N_10
REMARK    7  A    between atoms: N_13  and  C_14
REMARK    8  A    between atoms: C_27  and  C_28
REMARK    9  A    between atoms: N_34  and  C_35
REMARK                            x       y       z     vdW  Elec       q    Type
REMARK                         _______ _______ _______ _____ _____    ______ ____
ROOT
ATOM      1  C   UNL     1       1.763  13.596  17.927  0.00  0.00    +0.000 C 
ENDROOT
BRANCH   1   4
ATOM      2  C   UNL     1       3.942  14.731  17.981  0.00  0.00    +0.000 C 
ATOM      3  O   UNL     1       3.448  15.738  17.482  0.00  0.00    +0.000 OA
ATOM      4  N   UNL     1       3.187  13.609  18.212  0.00  0.00    +0.000 N 
ATOM      5  H   UNL     1       3.598  12.811  18.672  0.00  0.00    +0.000 HD
BRANCH   2   8
ATOM      6  C   UNL     1       5.183  15.553  20.827  0.00  0.00    +0.000 C 
ATOM      7  C   UNL     1       5.873  15.017  19.611  0.00  0.00    +0.000 A 
ATOM      8  C   UNL     1       5.362  14.652  18.371  0.00  0.00    +0.000 A 
ATOM      9  C   UNL     1       6.487  14.195  17.616  0.00  0.00    +0.000 A 
ATOM     10  C   UNL     1       7.640  14.264  18.390  0.00  0.00    +0.000 A 
ATOM     11  N   UNL     1       7.244  14.813  19.598  0.00  0.00    +0.000 N 
ATOM     12  C   UNL     1       8.086  15.174  20.724  0.00  0.00    +0.000 C 
BRANCH  10  13
ATOM     13  C   UNL     1       9.015  13.872  18.014  0.00  0.00    +0.000 A 
ATOM     14  C   UNL     1       9.964  14.852  17.679  0.00  0.00    +0.000 A 
ATOM     15  C   UNL     1      11.274  14.500  17.328  0.00  0.00    +0.000 A 
ATOM     16  C   UNL     1      11.663  13.164  17.327  0.00  0.00    +0.000 A 
ATOM     17  C   UNL     1      10.735  12.178  17.642  0.00  0.00    +0.000 A 
ATOM     18  C   UNL     1       9.416  12.530  17.950  0.00  0.00    +0.000 A 
ENDBRANCH  10  13
ENDBRANCH   2   8
ENDBRANCH   1   4
BRANCH   1  19
ATOM     19  C   UNL     1       1.012  12.680  18.894  0.00  0.00    +0.000 C 
BRANCH  19  20
ATOM     20  C   UNL     1       1.744  11.359  19.160  0.00  0.00    +0.000 C 
BRANCH  20  21
ATOM     21  N   UNL     1       0.951  10.167  18.835  0.00  0.00    +0.000 NA
ATOM     22  C   UNL     1       1.537   9.322  17.767  0.00  0.00    +0.000 C 
ATOM     23  C   UNL     1       2.657   8.317  18.153  0.00  0.00    +0.000 C 
ATOM     24  N   UNL     1       2.324   7.605  19.399  0.00  0.00    +0.000 N 
ATOM     25  C   UNL     1       1.907   8.491  20.489  0.00  0.00    +0.000 C 
ATOM     26  C   UNL     1       0.697   9.334  20.033  0.00  0.00    +0.000 C 
BRANCH  24  27
ATOM     27  C   UNL     1       2.168   6.215  19.437  0.00  0.00    +0.000 A 
ATOM     28  C   UNL     1       1.265   5.648  20.368  0.00  0.00    +0.000 A 
ATOM     29  C   UNL     1       1.094   4.273  20.503  0.00  0.00    +0.000 A 
ATOM     30  C   UNL     1       1.817   3.416  19.693  0.00  0.00    +0.000 A 
ATOM     31  C   UNL     1       2.707   3.929  18.741  0.00  0.00    +0.000 A 
ATOM     32  C   UNL     1       3.427   3.046  17.925  0.00  0.00    +0.000 A 
ATOM     33  C   UNL     1       4.314   3.532  16.980  0.00  0.00    +0.000 A 
ATOM     34  C   UNL     1       4.461   4.897  16.890  0.00  0.00    +0.000 A 
ATOM     35  N   UNL     1       3.799   5.773  17.672  0.00  0.00    +0.000 NA
ATOM     36  C   UNL     1       2.903   5.329  18.594  0.00  0.00    +0.000 A 
ENDBRANCH  24  27
ENDBRANCH  20  21
ENDBRANCH  19  20
ENDBRANCH   1  19
TORSDOF 7
ENDMDL
