MODEL 1
REMARK VINA RESULT:      -7.1      0.000      0.000
REMARK  Name = 
REMARK  9 active torsions:
REMARK  status: ('A' for Active; 'I' for Inactive)
REMARK    1  A    between atoms: C_1  and  C_2
REMARK    2  A    between atoms: C_2  and  C_3
REMARK    3  A    between atoms: C_3  and  C_4
REMARK    4  A    between atoms: C_4  and  N_5
REMARK    5  A    between atoms: C_9  and  C_10
REMARK    6  A    between atoms: N_12  and  C_13
REMARK    7  A    between atoms: C_19  and  N_20
REMARK    8  A    between atoms: N_20  and  C_21
REMARK    9  A    between atoms: C_24  and  O_25
REMARK                            x       y       z     vdW  Elec       q    Type
REMARK                         _______ _______ _______ _____ _____    ______ ____
ROOT
ATOM      1  N   UNL     1       1.504   4.579  21.080  0.00  0.00    +0.000 N 
ATOM      2  C   UNL     1       1.790   5.802  20.512  0.00  0.00    +0.000 A 
ATOM      3  N   UNL     1       1.178   6.839  21.079  0.00  0.00    +0.000 NA
ATOM      4  C   UNL     1       1.268   8.014  20.428  0.00  0.00    +0.000 A 
ATOM      5  C   UNL     1       1.957   8.206  19.244  0.00  0.00    +0.000 A 
ATOM      6  C   UNL     1       2.659   7.100  18.783  0.00  0.00    +0.000 A 
ATOM      7  N   UNL     1       2.570   5.908  19.425  0.00  0.00    +0.000 NA
ATOM      8  H   UNL     1       1.175   4.739  22.025  0.00  0.00    +0.000 HD
ENDROOT
BRANCH   5   9
ATOM      9  C   UNL     1       1.815   9.545  18.627  0.00  0.00    +0.000 C 
ATOM     10  O   UNL     1       2.050   9.662  17.423  0.00  0.00    +0.000 OA
ATOM     11  N   UNL     1       1.400  10.617  19.388  0.00  0.00    +0.000 N 
ATOM     12  H   UNL     1       1.065  10.435  20.331  0.00  0.00    +0.000 HD
BRANCH  11  13
ATOM     13  C   UNL     1       1.158  11.920  18.757  0.00  0.00    +0.000 C 
ATOM     14  C   UNL     1       2.286  12.906  19.053  0.00  0.00    +0.000 C 
ATOM     15  C   UNL     1       1.956  14.292  18.507  0.00  0.00    +0.000 C 
ATOM     16  O   UNL     1       0.700  14.747  19.008  0.00  0.00    +0.000 OA
ATOM     17  C   UNL     1      -0.374  13.907  18.589  0.00  0.00    +0.000 C 
ATOM     18  C   UNL     1      -0.203  12.505  19.157  0.00  0.00    +0.000 C 
ENDBRANCH  11  13
ENDBRANCH   5   9
BRANCH   6  19
ATOM     19  N   UNL     1       3.472   7.163  17.632  0.00  0.00    +0.000 N 
ATOM     20  H   UNL     1       2.887   7.108  16.798  0.00  0.00    +0.000 HD
BRANCH  19  21
ATOM     21  C   UNL     1       4.630   6.250  17.597  0.00  0.00    +0.000 C 
ATOM     22  C   UNL     1       4.463   5.080  16.613  0.00  0.00    +0.000 C 
ATOM     23  C   UNL     1       5.715   4.196  16.594  0.00  0.00    +0.000 C 
ATOM     24  C   UNL     1       6.976   5.000  16.279  0.00  0.00    +0.000 C 
ATOM     25  C   UNL     1       7.127   6.204  17.207  0.00  0.00    +0.000 C 
ATOM     26  C   UNL     1       5.870   7.070  17.205  0.00  0.00    +0.000 C 
BRANCH  24  27
ATOM     27  O   UNL     1       8.123   4.163  16.390  0.00  0.00    +0.000 OA
ATOM     28  H   UNL     1       8.068   3.675  17.229  0.00  0.00    +0.000 HD
ENDBRANCH  24  27
ENDBRANCH  19  21
ENDBRANCH   6  19
BRANCH   1  29
ATOM     29  C   UNL     1       2.417   3.482  20.861  0.00  0.00    +0.000 C 
BRANCH  29  30
ATOM     30  C   UNL     1       1.728   2.373  20.058  0.00  0.00    +0.000 C 
BRANCH  30  32
ATOM     31  C   UNL     1       3.227   1.797  18.107  0.00  0.00    +0.000 C 
ATOM     32  C   UNL     1       1.950   2.499  18.546  0.00  0.00    +0.000 C 
ENDBRANCH  30  32
ENDBRANCH  29  30
ENDBRANCH   1  29
TORSDOF 8
ENDMDL
MODEL 2
REMARK VINA RESULT:      -6.9      2.737      5.130
REMARK  Name = 
REMARK  9 active torsions:
REMARK  status: ('A' for Active; 'I' for Inactive)
REMARK    1  A    between atoms: C_1  and  C_2
REMARK    2  A    between atoms: C_2  and  C_3
REMARK    3  A    between atoms: C_3  and  C_4
REMARK    4  A    between atoms: C_4  and  N_5
REMARK    5  A    between atoms: C_9  and  C_10
REMARK    6  A    between atoms: N_12  and  C_13
REMARK    7  A    between atoms: C_19  and  N_20
REMARK    8  A    between atoms: N_20  and  C_21
REMARK    9  A    between atoms: C_24  and  O_25
REMARK                            x       y       z     vdW  Elec       q    Type
REMARK                         _______ _______ _______ _____ _____    ______ ____
ROOT
ATOM      1  N   UNL     1       7.159   5.661  16.180  0.00  0.00    +0.000 N 
ATOM      2  C   UNL     1       5.928   6.155  16.554  0.00  0.00    +0.000 A 
ATOM      3  N   UNL     1       5.887   7.471  16.743  0.00  0.00    +0.000 NA
ATOM      4  C   UNL     1       4.765   7.958  17.306  0.00  0.00    +0.000 A 
ATOM      5  C   UNL     1       3.672   7.193  17.672  0.00  0.00    +0.000 A 
ATOM      6  C   UNL     1       3.754   5.847  17.336  0.00  0.00    +0.000 A 
ATOM      7  N   UNL     1       4.882   5.342  16.776  0.00  0.00    +0.000 NA
ATOM      8  H   UNL     1       7.695   6.422  15.777  0.00  0.00    +0.000 HD
ENDROOT
BRANCH   5   9
ATOM      9  C   UNL     1       2.600   7.909  18.399  0.00  0.00    +0.000 C 
ATOM     10  O   UNL     1       2.348   7.568  19.556  0.00  0.00    +0.000 OA
ATOM     11  N   UNL     1       1.927   8.949  17.793  0.00  0.00    +0.000 N 
ATOM     12  H   UNL     1       2.280   9.294  16.904  0.00  0.00    +0.000 HD
BRANCH  11  13
ATOM     13  C   UNL     1       0.937   9.728  18.547  0.00  0.00    +0.000 C 
ATOM     14  C   UNL     1      -0.406   9.781  17.821  0.00  0.00    +0.000 C 
ATOM     15  C   UNL     1      -1.380  10.704  18.546  0.00  0.00    +0.000 C 
ATOM     16  O   UNL     1      -0.813  12.001  18.722  0.00  0.00    +0.000 OA
ATOM     17  C   UNL     1       0.354  11.962  19.540  0.00  0.00    +0.000 C 
ATOM     18  C   UNL     1       1.445  11.139  18.870  0.00  0.00    +0.000 C 
ENDBRANCH  11  13
ENDBRANCH   5   9
BRANCH   6  19
ATOM     19  N   UNL     1       2.687   4.956  17.574  0.00  0.00    +0.000 N 
ATOM     20  H   UNL     1       1.825   5.345  17.191  0.00  0.00    +0.000 HD
BRANCH  19  21
ATOM     21  C   UNL     1       2.544   4.461  18.957  0.00  0.00    +0.000 C 
ATOM     22  C   UNL     1       1.098   4.097  19.333  0.00  0.00    +0.000 C 
ATOM     23  C   UNL     1       1.025   3.551  20.764  0.00  0.00    +0.000 C 
ATOM     24  C   UNL     1       1.960   2.359  20.968  0.00  0.00    +0.000 C 
ATOM     25  C   UNL     1       3.390   2.682  20.540  0.00  0.00    +0.000 C 
ATOM     26  C   UNL     1       3.437   3.219  19.111  0.00  0.00    +0.000 C 
BRANCH  24  27
ATOM     27  O   UNL     1       1.947   1.964  22.336  0.00  0.00    +0.000 OA
ATOM     28  H   UNL     1       2.822   1.605  22.561  0.00  0.00    +0.000 HD
ENDBRANCH  24  27
ENDBRANCH  19  21
ENDBRANCH   6  19
BRANCH   1  29
ATOM     29  C   UNL     1       7.222   4.374  15.527  0.00  0.00    +0.000 C 
BRANCH  29  30
ATOM     30  C   UNL     1       6.969   4.531  14.024  0.00  0.00    +0.000 C 
BRANCH  30  32
ATOM     31  C   UNL     1       5.864   3.196  12.186  0.00  0.00    +0.000 C 
ATOM     32  C   UNL     1       5.685   3.838  13.554  0.00  0.00    +0.000 C 
ENDBRANCH  30  32
ENDBRANCH  29  30
ENDBRANCH   1  29
TORSDOF 8
ENDMDL
MODEL 3
REMARK VINA RESULT:      -6.9      2.720      5.085
REMARK  Name = 
REMARK  9 active torsions:
REMARK  status: ('A' for Active; 'I' for Inactive)
REMARK    1  A    between atoms: C_1  and  C_2
REMARK    2  A    between atoms: C_2  and  C_3
REMARK    3  A    between atoms: C_3  and  C_4
REMARK    4  A    between atoms: C_4  and  N_5
REMARK    5  A    between atoms: C_9  and  C_10
REMARK    6  A    between atoms: N_12  and  C_13
REMARK    7  A    between atoms: C_19  and  N_20
REMARK    8  A    between atoms: N_20  and  C_21
REMARK    9  A    between atoms: C_24  and  O_25
REMARK                            x       y       z     vdW  Elec       q    Type
REMARK                         _______ _______ _______ _____ _____    ______ ____
ROOT
ATOM      1  N   UNL     1       6.976   5.316  16.170  0.00  0.00    +0.000 N 
ATOM      2  C   UNL     1       5.781   5.888  16.547  0.00  0.00    +0.000 A 
ATOM      3  N   UNL     1       5.845   7.190  16.818  0.00  0.00    +0.000 NA
ATOM      4  C   UNL     1       4.752   7.735  17.386  0.00  0.00    +0.000 A 
ATOM      5  C   UNL     1       3.590   7.045  17.679  0.00  0.00    +0.000 A 
ATOM      6  C   UNL     1       3.568   5.720  17.261  0.00  0.00    +0.000 A 
ATOM      7  N   UNL     1       4.666   5.156  16.695  0.00  0.00    +0.000 NA
ATOM      8  H   UNL     1       7.585   6.051  15.828  0.00  0.00    +0.000 HD
ENDROOT
BRANCH   5   9
ATOM      9  C   UNL     1       2.562   7.804  18.426  0.00  0.00    +0.000 C 
ATOM     10  O   UNL     1       2.310   7.466  19.583  0.00  0.00    +0.000 OA
ATOM     11  N   UNL     1       1.931   8.879  17.836  0.00  0.00    +0.000 N 
ATOM     12  H   UNL     1       2.288   9.215  16.945  0.00  0.00    +0.000 HD
BRANCH  11  13
ATOM     13  C   UNL     1       0.989   9.697  18.609  0.00  0.00    +0.000 C 
ATOM     14  C   UNL     1      -0.387   9.746  17.947  0.00  0.00    +0.000 C 
ATOM     15  C   UNL     1      -1.314  10.706  18.686  0.00  0.00    +0.000 C 
ATOM     16  O   UNL     1      -0.723  12.000  18.790  0.00  0.00    +0.000 OA
ATOM     17  C   UNL     1       0.482  11.973  19.552  0.00  0.00    +0.000 C 
ATOM     18  C   UNL     1       1.529  11.111  18.859  0.00  0.00    +0.000 C 
ENDBRANCH  11  13
ENDBRANCH   5   9
BRANCH   6  19
ATOM     19  N   UNL     1       2.425   4.910  17.419  0.00  0.00    +0.000 N 
ATOM     20  H   UNL     1       1.591   5.498  17.439  0.00  0.00    +0.000 HD
BRANCH  19  21
ATOM     21  C   UNL     1       2.471   3.919  18.512  0.00  0.00    +0.000 C 
ATOM     22  C   UNL     1       3.743   4.009  19.370  0.00  0.00    +0.000 C 
ATOM     23  C   UNL     1       3.708   2.985  20.511  0.00  0.00    +0.000 C 
ATOM     24  C   UNL     1       2.455   3.133  21.373  0.00  0.00    +0.000 C 
ATOM     25  C   UNL     1       1.181   3.110  20.529  0.00  0.00    +0.000 C 
ATOM     26  C   UNL     1       1.239   4.141  19.405  0.00  0.00    +0.000 C 
BRANCH  24  27
ATOM     27  O   UNL     1       2.407   2.089  22.340  0.00  0.00    +0.000 OA
ATOM     28  H   UNL     1       1.610   2.209  22.884  0.00  0.00    +0.000 HD
ENDBRANCH  24  27
ENDBRANCH  19  21
ENDBRANCH   6  19
BRANCH   1  29
ATOM     29  C   UNL     1       6.949   4.070  15.440  0.00  0.00    +0.000 C 
BRANCH  29  30
ATOM     30  C   UNL     1       6.842   4.342  13.935  0.00  0.00    +0.000 C 
BRANCH  30  32
ATOM     31  C   UNL     1       5.887   3.037  11.994  0.00  0.00    +0.000 C 
ATOM     32  C   UNL     1       5.578   3.747  13.305  0.00  0.00    +0.000 C 
ENDBRANCH  30  32
ENDBRANCH  29  30
ENDBRANCH   1  29
TORSDOF 8
ENDMDL
MODEL 4
REMARK VINA RESULT:      -6.7      2.482      4.846
REMARK  Name = 
REMARK  9 active torsions:
REMARK  status: ('A' for Active; 'I' for Inactive)
REMARK    1  A    between atoms: C_1  and  C_2
REMARK    2  A    between atoms: C_2  and  C_3
REMARK    3  A    between atoms: C_3  and  C_4
REMARK    4  A    between atoms: C_4  and  N_5
REMARK    5  A    between atoms: C_9  and  C_10
REMARK    6  A    between atoms: N_12  and  C_13
REMARK    7  A    between atoms: C_19  and  N_20
REMARK    8  A    between atoms: N_20  and  C_21
REMARK    9  A    between atoms: C_24  and  O_25
REMARK                            x       y       z     vdW  Elec       q    Type
REMARK                         _______ _______ _______ _____ _____    ______ ____
ROOT
ATOM      1  N   UNL     1       6.185   6.374  16.086  0.00  0.00    +0.000 N 
ATOM      2  C   UNL     1       5.047   6.643  16.814  0.00  0.00    +0.000 A 
ATOM      3  N   UNL     1       4.286   7.619  16.324  0.00  0.00    +0.000 NA
ATOM      4  C   UNL     1       3.283   8.047  17.114  0.00  0.00    +0.000 A 
ATOM      5  C   UNL     1       2.992   7.532  18.365  0.00  0.00    +0.000 A 
ATOM      6  C   UNL     1       3.763   6.443  18.750  0.00  0.00    +0.000 A 
ATOM      7  N   UNL     1       4.782   6.007  17.967  0.00  0.00    +0.000 NA
ATOM      8  H   UNL     1       6.044   6.715  15.142  0.00  0.00    +0.000 HD
ENDROOT
BRANCH   5   9
ATOM      9  C   UNL     1       1.933   8.239  19.121  0.00  0.00    +0.000 C 
ATOM     10  O   UNL     1       1.672   7.854  20.261  0.00  0.00    +0.000 OA
ATOM     11  N   UNL     1       1.285   9.319  18.559  0.00  0.00    +0.000 N 
ATOM     12  H   UNL     1       1.648   9.695  17.687  0.00  0.00    +0.000 HD
BRANCH  11  13
ATOM     13  C   UNL     1       0.311  10.086  19.345  0.00  0.00    +0.000 C 
ATOM     14  C   UNL     1      -0.868  10.542  18.487  0.00  0.00    +0.000 C 
ATOM     15  C   UNL     1      -1.801  11.450  19.282  0.00  0.00    +0.000 C 
ATOM     16  O   UNL     1      -1.084  12.550  19.838  0.00  0.00    +0.000 OA
ATOM     17  C   UNL     1      -0.090  12.121  20.766  0.00  0.00    +0.000 C 
ATOM     18  C   UNL     1       0.963  11.274  20.063  0.00  0.00    +0.000 C 
ENDBRANCH  11  13
ENDBRANCH   5   9
BRANCH   6  19
ATOM     19  N   UNL     1       3.534   5.761  19.963  0.00  0.00    +0.000 N 
ATOM     20  H   UNL     1       4.394   5.741  20.511  0.00  0.00    +0.000 HD
BRANCH  19  21
ATOM     21  C   UNL     1       2.872   4.447  19.860  0.00  0.00    +0.000 C 
ATOM     22  C   UNL     1       1.455   4.423  20.456  0.00  0.00    +0.000 C 
ATOM     23  C   UNL     1       0.809   3.044  20.279  0.00  0.00    +0.000 C 
ATOM     24  C   UNL     1       0.794   2.605  18.815  0.00  0.00    +0.000 C 
ATOM     25  C   UNL     1       2.184   2.682  18.187  0.00  0.00    +0.000 C 
ATOM     26  C   UNL     1       2.804   4.065  18.372  0.00  0.00    +0.000 C 
BRANCH  24  27
ATOM     27  O   UNL     1       0.297   1.274  18.715  0.00  0.00    +0.000 OA
ATOM     28  H   UNL     1      -0.475   1.277  18.124  0.00  0.00    +0.000 HD
ENDBRANCH  24  27
ENDBRANCH  19  21
ENDBRANCH   6  19
BRANCH   1  29
ATOM     29  C   UNL     1       6.827   5.091  16.249  0.00  0.00    +0.000 C 
BRANCH  29  30
ATOM     30  C   UNL     1       7.059   4.439  14.881  0.00  0.00    +0.000 C 
BRANCH  30  32
ATOM     31  C   UNL     1       6.029   3.551  12.752  0.00  0.00    +0.000 C 
ATOM     32  C   UNL     1       5.757   4.140  14.129  0.00  0.00    +0.000 C 
ENDBRANCH  30  32
ENDBRANCH  29  30
ENDBRANCH   1  29
TORSDOF 8
ENDMDL
MODEL 5
REMARK VINA RESULT:      -6.6      2.768      5.366
REMARK  Name = 
REMARK  9 active torsions:
REMARK  status: ('A' for Active; 'I' for Inactive)
REMARK    1  A    between atoms: C_1  and  C_2
REMARK    2  A    between atoms: C_2  and  C_3
REMARK    3  A    between atoms: C_3  and  C_4
REMARK    4  A    between atoms: C_4  and  N_5
REMARK    5  A    between atoms: C_9  and  C_10
REMARK    6  A    between atoms: N_12  and  C_13
REMARK    7  A    between atoms: C_19  and  N_20
REMARK    8  A    between atoms: N_20  and  C_21
REMARK    9  A    between atoms: C_24  and  O_25
REMARK                            x       y       z     vdW  Elec       q    Type
REMARK                         _______ _______ _______ _____ _____    ______ ____
ROOT
ATOM      1  N   UNL     1       6.605   5.374  16.453  0.00  0.00    +0.000 N 
ATOM      2  C   UNL     1       5.405   5.985  16.744  0.00  0.00    +0.000 A 
ATOM      3  N   UNL     1       5.443   7.315  16.758  0.00  0.00    +0.000 NA
ATOM      4  C   UNL     1       4.351   7.939  17.239  0.00  0.00    +0.000 A 
ATOM      5  C   UNL     1       3.213   7.295  17.691  0.00  0.00    +0.000 A 
ATOM      6  C   UNL     1       3.214   5.914  17.537  0.00  0.00    +0.000 A 
ATOM      7  N   UNL     1       4.311   5.273  17.061  0.00  0.00    +0.000 NA
ATOM      8  H   UNL     1       7.187   6.041  15.959  0.00  0.00    +0.000 HD
ENDROOT
BRANCH   5   9
ATOM      9  C   UNL     1       2.183   8.164  18.305  0.00  0.00    +0.000 C 
ATOM     10  O   UNL     1       1.399   8.757  17.562  0.00  0.00    +0.000 OA
ATOM     11  N   UNL     1       2.099   8.275  19.677  0.00  0.00    +0.000 N 
ATOM     12  H   UNL     1       2.660   7.644  20.244  0.00  0.00    +0.000 HD
BRANCH  11  13
ATOM     13  C   UNL     1       1.015   9.052  20.290  0.00  0.00    +0.000 C 
ATOM     14  C   UNL     1       1.276  10.554  20.193  0.00  0.00    +0.000 C 
ATOM     15  C   UNL     1       0.213  11.341  20.951  0.00  0.00    +0.000 C 
ATOM     16  O   UNL     1       0.124  10.898  22.304  0.00  0.00    +0.000 OA
ATOM     17  C   UNL     1      -0.281   9.534  22.390  0.00  0.00    +0.000 C 
ATOM     18  C   UNL     1       0.760   8.630  21.742  0.00  0.00    +0.000 C 
ENDBRANCH  11  13
ENDBRANCH   5   9
BRANCH   6  19
ATOM     19  N   UNL     1       2.094   5.128  17.879  0.00  0.00    +0.000 N 
ATOM     20  H   UNL     1       1.264   5.720  17.930  0.00  0.00    +0.000 HD
BRANCH  19  21
ATOM     21  C   UNL     1       2.252   4.236  19.044  0.00  0.00    +0.000 C 
ATOM     22  C   UNL     1       2.106   4.957  20.394  0.00  0.00    +0.000 C 
ATOM     23  C   UNL     1       2.237   3.969  21.559  0.00  0.00    +0.000 C 
ATOM     24  C   UNL     1       1.241   2.816  21.444  0.00  0.00    +0.000 C 
ATOM     25  C   UNL     1       1.327   2.126  20.083  0.00  0.00    +0.000 C 
ATOM     26  C   UNL     1       1.189   3.129  18.941  0.00  0.00    +0.000 C 
BRANCH  24  27
ATOM     27  O   UNL     1       1.480   1.866  22.478  0.00  0.00    +0.000 OA
ATOM     28  H   UNL     1       1.852   1.062  22.077  0.00  0.00    +0.000 HD
ENDBRANCH  24  27
ENDBRANCH  19  21
ENDBRANCH   6  19
BRANCH   1  29
ATOM     29  C   UNL     1       6.591   4.010  15.977  0.00  0.00    +0.000 C 
BRANCH  29  30
ATOM     30  C   UNL     1       6.114   3.963  14.521  0.00  0.00    +0.000 C 
BRANCH  30  32
ATOM     31  C   UNL     1       6.989   4.132  12.157  0.00  0.00    +0.000 C 
ATOM     32  C   UNL     1       7.039   4.719  13.560  0.00  0.00    +0.000 C 
ENDBRANCH  30  32
ENDBRANCH  29  30
ENDBRANCH   1  29
TORSDOF 8
ENDMDL
MODEL 6
REMARK VINA RESULT:      -6.6      4.043      6.809
REMARK  Name = 
REMARK  9 active torsions:
REMARK  status: ('A' for Active; 'I' for Inactive)
REMARK    1  A    between atoms: C_1  and  C_2
REMARK    2  A    between atoms: C_2  and  C_3
REMARK    3  A    between atoms: C_3  and  C_4
REMARK    4  A    between atoms: C_4  and  N_5
REMARK    5  A    between atoms: C_9  and  C_10
REMARK    6  A    between atoms: N_12  and  C_13
REMARK    7  A    between atoms: C_19  and  N_20
REMARK    8  A    between atoms: N_20  and  C_21
REMARK    9  A    between atoms: C_24  and  O_25
REMARK                            x       y       z     vdW  Elec       q    Type
REMARK                         _______ _______ _______ _____ _____    ______ ____
ROOT
ATOM      1  N   UNL     1       1.839   6.897  20.951  0.00  0.00    +0.000 N 
ATOM      2  C   UNL     1       1.417   8.200  21.099  0.00  0.00    +0.000 A 
ATOM      3  N   UNL     1       1.332   8.621  22.358  0.00  0.00    +0.000 NA
ATOM      4  C   UNL     1       0.729   9.810  22.551  0.00  0.00    +0.000 A 
ATOM      5  C   UNL     1       0.224  10.608  21.540  0.00  0.00    +0.000 A 
ATOM      6  C   UNL     1       0.455  10.146  20.251  0.00  0.00    +0.000 A 
ATOM      7  N   UNL     1       1.053   8.946  20.044  0.00  0.00    +0.000 NA
ATOM      8  H   UNL     1       2.340   6.630  21.791  0.00  0.00    +0.000 HD
ENDROOT
BRANCH   5   9
ATOM      9  C   UNL     1      -0.520  11.810  21.981  0.00  0.00    +0.000 C 
ATOM     10  O   UNL     1       0.087  12.880  22.053  0.00  0.00    +0.000 OA
ATOM     11  N   UNL     1      -1.864  11.724  22.273  0.00  0.00    +0.000 N 
ATOM     12  H   UNL     1      -2.351  10.861  22.044  0.00  0.00    +0.000 HD
BRANCH  11  13
ATOM     13  C   UNL     1      -2.626  12.934  22.609  0.00  0.00    +0.000 C 
ATOM     14  C   UNL     1      -3.347  12.790  23.948  0.00  0.00    +0.000 C 
ATOM     15  C   UNL     1      -4.240  13.996  24.218  0.00  0.00    +0.000 C 
ATOM     16  O   UNL     1      -5.149  14.204  23.139  0.00  0.00    +0.000 OA
ATOM     17  C   UNL     1      -4.469  14.500  21.921  0.00  0.00    +0.000 C 
ATOM     18  C   UNL     1      -3.607  13.319  21.494  0.00  0.00    +0.000 C 
ENDBRANCH  11  13
ENDBRANCH   5   9
BRANCH   6  19
ATOM     19  N   UNL     1       0.068  10.888  19.115  0.00  0.00    +0.000 N 
ATOM     20  H   UNL     1       0.347  11.863  19.234  0.00  0.00    +0.000 HD
BRANCH  19  21
ATOM     21  C   UNL     1      -1.331  10.728  18.674  0.00  0.00    +0.000 C 
ATOM     22  C   UNL     1      -2.105  12.053  18.590  0.00  0.00    +0.000 C 
ATOM     23  C   UNL     1      -3.534  11.822  18.085  0.00  0.00    +0.000 C 
ATOM     24  C   UNL     1      -3.554  11.091  16.742  0.00  0.00    +0.000 C 
ATOM     25  C   UNL     1      -2.736   9.801  16.788  0.00  0.00    +0.000 C 
ATOM     26  C   UNL     1      -1.317  10.059  17.289  0.00  0.00    +0.000 C 
BRANCH  24  27
ATOM     27  O   UNL     1      -4.897  10.794  16.374  0.00  0.00    +0.000 OA
ATOM     28  H   UNL     1      -5.246  10.129  16.992  0.00  0.00    +0.000 HD
ENDBRANCH  24  27
ENDBRANCH  19  21
ENDBRANCH   6  19
BRANCH   1  29
ATOM     29  C   UNL     1       2.388   6.485  19.680  0.00  0.00    +0.000 C 
BRANCH  29  30
ATOM     30  C   UNL     1       2.121   4.993  19.448  0.00  0.00    +0.000 C 
BRANCH  30  32
ATOM     31  C   UNL     1       1.639   3.299  21.259  0.00  0.00    +0.000 C 
ATOM     32  C   UNL     1       1.066   4.416  20.398  0.00  0.00    +0.000 C 
ENDBRANCH  30  32
ENDBRANCH  29  30
ENDBRANCH   1  29
TORSDOF 8
ENDMDL
MODEL 7
REMARK VINA RESULT:      -6.6      1.527      1.913
REMARK  Name = 
REMARK  9 active torsions:
REMARK  status: ('A' for Active; 'I' for Inactive)
REMARK    1  A    between atoms: C_1  and  C_2
REMARK    2  A    between atoms: C_2  and  C_3
REMARK    3  A    between atoms: C_3  and  C_4
REMARK    4  A    between atoms: C_4  and  N_5
REMARK    5  A    between atoms: C_9  and  C_10
REMARK    6  A    between atoms: N_12  and  C_13
REMARK    7  A    between atoms: C_19  and  N_20
REMARK    8  A    between atoms: N_20  and  C_21
REMARK    9  A    between atoms: C_24  and  O_25
REMARK                            x       y       z     vdW  Elec       q    Type
REMARK                         _______ _______ _______ _____ _____    ______ ____
ROOT
ATOM      1  N   UNL     1       2.578   3.168  20.943  0.00  0.00    +0.000 N 
ATOM      2  C   UNL     1       2.627   4.482  20.529  0.00  0.00    +0.000 A 
ATOM      3  N   UNL     1       1.633   5.246  20.974  0.00  0.00    +0.000 NA
ATOM      4  C   UNL     1       1.533   6.472  20.426  0.00  0.00    +0.000 A 
ATOM      5  C   UNL     1       2.391   6.979  19.467  0.00  0.00    +0.000 A 
ATOM      6  C   UNL     1       3.465   6.158  19.144  0.00  0.00    +0.000 A 
ATOM      7  N   UNL     1       3.573   4.917  19.682  0.00  0.00    +0.000 NA
ATOM      8  H   UNL     1       2.010   3.123  21.782  0.00  0.00    +0.000 HD
ENDROOT
BRANCH   5   9
ATOM      9  C   UNL     1       2.020   8.296  18.902  0.00  0.00    +0.000 C 
ATOM     10  O   UNL     1       2.421   8.582  17.773  0.00  0.00    +0.000 OA
ATOM     11  N   UNL     1       1.222   9.158  19.623  0.00  0.00    +0.000 N 
ATOM     12  H   UNL     1       0.787   8.811  20.475  0.00  0.00    +0.000 HD
BRANCH  11  13
ATOM     13  C   UNL     1       0.766  10.418  19.023  0.00  0.00    +0.000 C 
ATOM     14  C   UNL     1       1.023  11.606  19.950  0.00  0.00    +0.000 C 
ATOM     15  C   UNL     1       0.424  12.884  19.374  0.00  0.00    +0.000 C 
ATOM     16  O   UNL     1      -0.964  12.712  19.095  0.00  0.00    +0.000 OA
ATOM     17  C   UNL     1      -1.186  11.710  18.105  0.00  0.00    +0.000 C 
ATOM     18  C   UNL     1      -0.709  10.353  18.608  0.00  0.00    +0.000 C 
ENDBRANCH  11  13
ENDBRANCH   5   9
BRANCH   6  19
ATOM     19  N   UNL     1       4.468   6.569  18.241  0.00  0.00    +0.000 N 
ATOM     20  H   UNL     1       4.344   7.558  18.021  0.00  0.00    +0.000 HD
BRANCH  19  21
ATOM     21  C   UNL     1       4.662   5.722  17.048  0.00  0.00    +0.000 C 
ATOM     22  C   UNL     1       5.106   6.506  15.802  0.00  0.00    +0.000 C 
ATOM     23  C   UNL     1       5.331   5.564  14.614  0.00  0.00    +0.000 C 
ATOM     24  C   UNL     1       6.328   4.454  14.945  0.00  0.00    +0.000 C 
ATOM     25  C   UNL     1       5.936   3.704  16.218  0.00  0.00    +0.000 C 
ATOM     26  C   UNL     1       5.723   4.662  17.387  0.00  0.00    +0.000 C 
BRANCH  24  27
ATOM     27  O   UNL     1       6.413   3.540  13.857  0.00  0.00    +0.000 OA
ATOM     28  H   UNL     1       7.128   3.830  13.266  0.00  0.00    +0.000 HD
ENDBRANCH  24  27
ENDBRANCH  19  21
ENDBRANCH   6  19
BRANCH   1  29
ATOM     29  C   UNL     1       3.791   2.384  20.908  0.00  0.00    +0.000 C 
BRANCH  29  30
ATOM     30  C   UNL     1       4.229   2.152  19.457  0.00  0.00    +0.000 C 
BRANCH  30  32
ATOM     31  C   UNL     1       2.663   2.333  17.483  0.00  0.00    +0.000 C 
ATOM     32  C   UNL     1       3.163   1.445  18.613  0.00  0.00    +0.000 C 
ENDBRANCH  30  32
ENDBRANCH  29  30
ENDBRANCH   1  29
TORSDOF 8
ENDMDL
MODEL 8
REMARK VINA RESULT:      -6.5      3.824      6.796
REMARK  Name = 
REMARK  9 active torsions:
REMARK  status: ('A' for Active; 'I' for Inactive)
REMARK    1  A    between atoms: C_1  and  C_2
REMARK    2  A    between atoms: C_2  and  C_3
REMARK    3  A    between atoms: C_3  and  C_4
REMARK    4  A    between atoms: C_4  and  N_5
REMARK    5  A    between atoms: C_9  and  C_10
REMARK    6  A    between atoms: N_12  and  C_13
REMARK    7  A    between atoms: C_19  and  N_20
REMARK    8  A    between atoms: N_20  and  C_21
REMARK    9  A    between atoms: C_24  and  O_25
REMARK                            x       y       z     vdW  Elec       q    Type
REMARK                         _______ _______ _______ _____ _____    ______ ____
ROOT
ATOM      1  N   UNL     1       1.905   6.874  20.835  0.00  0.00    +0.000 N 
ATOM      2  C   UNL     1       1.466   8.179  20.888  0.00  0.00    +0.000 A 
ATOM      3  N   UNL     1       1.431   8.709  22.108  0.00  0.00    +0.000 NA
ATOM      4  C   UNL     1       0.816   9.901  22.223  0.00  0.00    +0.000 A 
ATOM      5  C   UNL     1       0.250  10.599  21.171  0.00  0.00    +0.000 A 
ATOM      6  C   UNL     1       0.431  10.028  19.917  0.00  0.00    +0.000 A 
ATOM      7  N   UNL     1       1.042   8.823  19.789  0.00  0.00    +0.000 NA
ATOM      8  H   UNL     1       2.449   6.690  21.671  0.00  0.00    +0.000 HD
ENDROOT
BRANCH   5   9
ATOM      9  C   UNL     1      -0.494  11.825  21.539  0.00  0.00    +0.000 C 
ATOM     10  O   UNL     1      -0.000  12.917  21.255  0.00  0.00    +0.000 OA
ATOM     11  N   UNL     1      -1.723  11.729  22.157  0.00  0.00    +0.000 N 
ATOM     12  H   UNL     1      -2.157  10.812  22.222  0.00  0.00    +0.000 HD
BRANCH  11  13
ATOM     13  C   UNL     1      -2.510  12.939  22.428  0.00  0.00    +0.000 C 
ATOM     14  C   UNL     1      -2.362  13.392  23.879  0.00  0.00    +0.000 C 
ATOM     15  C   UNL     1      -3.288  14.565  24.181  0.00  0.00    +0.000 C 
ATOM     16  O   UNL     1      -4.638  14.241  23.855  0.00  0.00    +0.000 OA
ATOM     17  C   UNL     1      -4.799  13.977  22.463  0.00  0.00    +0.000 C 
ATOM     18  C   UNL     1      -3.987  12.755  22.056  0.00  0.00    +0.000 C 
ENDBRANCH  11  13
ENDBRANCH   5   9
BRANCH   6  19
ATOM     19  N   UNL     1      -0.020  10.661  18.740  0.00  0.00    +0.000 N 
ATOM     20  H   UNL     1       0.369  11.603  18.689  0.00  0.00    +0.000 HD
BRANCH  19  21
ATOM     21  C   UNL     1      -1.473  10.611  18.486  0.00  0.00    +0.000 C 
ATOM     22  C   UNL     1      -2.160  11.983  18.571  0.00  0.00    +0.000 C 
ATOM     23  C   UNL     1      -3.656  11.868  18.255  0.00  0.00    +0.000 C 
ATOM     24  C   UNL     1      -3.903  11.216  16.895  0.00  0.00    +0.000 C 
ATOM     25  C   UNL     1      -3.175   9.879  16.768  0.00  0.00    +0.000 C 
ATOM     26  C   UNL     1      -1.688  10.021  17.083  0.00  0.00    +0.000 C 
BRANCH  24  27
ATOM     27  O   UNL     1      -5.300  11.022  16.699  0.00  0.00    +0.000 OA
ATOM     28  H   UNL     1      -5.569  10.217  17.174  0.00  0.00    +0.000 HD
ENDBRANCH  24  27
ENDBRANCH  19  21
ENDBRANCH   6  19
BRANCH   1  29
ATOM     29  C   UNL     1       2.403   6.359  19.582  0.00  0.00    +0.000 C 
BRANCH  29  30
ATOM     30  C   UNL     1       1.885   4.934  19.352  0.00  0.00    +0.000 C 
BRANCH  30  32
ATOM     31  C   UNL     1       2.363   3.151  17.629  0.00  0.00    +0.000 C 
ATOM     32  C   UNL     1       1.818   4.551  17.870  0.00  0.00    +0.000 C 
ENDBRANCH  30  32
ENDBRANCH  29  30
ENDBRANCH   1  29
TORSDOF 8
ENDMDL
MODEL 9
REMARK VINA RESULT:      -6.5      3.483      8.992
REMARK  Name = 
REMARK  9 active torsions:
REMARK  status: ('A' for Active; 'I' for Inactive)
REMARK    1  A    between atoms: C_1  and  C_2
REMARK    2  A    between atoms: C_2  and  C_3
REMARK    3  A    between atoms: C_3  and  C_4
REMARK    4  A    between atoms: C_4  and  N_5
REMARK    5  A    between atoms: C_9  and  C_10
REMARK    6  A    between atoms: N_12  and  C_13
REMARK    7  A    between atoms: C_19  and  N_20
REMARK    8  A    between atoms: N_20  and  C_21
REMARK    9  A    between atoms: C_24  and  O_25
REMARK                            x       y       z     vdW  Elec       q    Type
REMARK                         _______ _______ _______ _____ _____    ______ ____
ROOT
ATOM      1  N   UNL     1      -0.205  12.040  22.428  0.00  0.00    +0.000 N 
ATOM      2  C   UNL     1       0.085  11.026  21.541  0.00  0.00    +0.000 A 
ATOM      3  N   UNL     1       0.906  10.090  22.010  0.00  0.00    +0.000 NA
ATOM      4  C   UNL     1       1.374   9.202  21.112  0.00  0.00    +0.000 A 
ATOM      5  C   UNL     1       1.046   9.195  19.768  0.00  0.00    +0.000 A 
ATOM      6  C   UNL     1       0.098  10.136  19.386  0.00  0.00    +0.000 A 
ATOM      7  N   UNL     1      -0.376  11.042  20.280  0.00  0.00    +0.000 NA
ATOM      8  H   UNL     1      -0.033  11.697  23.367  0.00  0.00    +0.000 HD
ENDROOT
BRANCH   5   9
ATOM      9  C   UNL     1       1.778   8.217  18.932  0.00  0.00    +0.000 C 
ATOM     10  O   UNL     1       2.019   8.513  17.761  0.00  0.00    +0.000 OA
ATOM     11  N   UNL     1       2.200   7.021  19.475  0.00  0.00    +0.000 N 
ATOM     12  H   UNL     1       2.119   6.896  20.481  0.00  0.00    +0.000 HD
BRANCH  11  13
ATOM     13  C   UNL     1       3.016   6.097  18.678  0.00  0.00    +0.000 C 
ATOM     14  C   UNL     1       2.166   4.989  18.058  0.00  0.00    +0.000 C 
ATOM     15  C   UNL     1       3.043   3.962  17.349  0.00  0.00    +0.000 C 
ATOM     16  O   UNL     1       4.034   3.446  18.235  0.00  0.00    +0.000 OA
ATOM     17  C   UNL     1       4.927   4.463  18.684  0.00  0.00    +0.000 C 
ATOM     18  C   UNL     1       4.175   5.510  19.495  0.00  0.00    +0.000 C 
ENDBRANCH  11  13
ENDBRANCH   5   9
BRANCH   6  19
ATOM     19  N   UNL     1      -0.395  10.201  18.067  0.00  0.00    +0.000 N 
ATOM     20  H   UNL     1       0.118  10.912  17.545  0.00  0.00    +0.000 HD
BRANCH  19  21
ATOM     21  C   UNL     1      -1.860  10.308  17.919  0.00  0.00    +0.000 C 
ATOM     22  C   UNL     1      -2.436  11.630  18.452  0.00  0.00    +0.000 C 
ATOM     23  C   UNL     1      -3.952  11.696  18.230  0.00  0.00    +0.000 C 
ATOM     24  C   UNL     1      -4.323  11.489  16.762  0.00  0.00    +0.000 C 
ATOM     25  C   UNL     1      -3.706  10.210  16.197  0.00  0.00    +0.000 C 
ATOM     26  C   UNL     1      -2.197  10.171  16.426  0.00  0.00    +0.000 C 
BRANCH  24  27
ATOM     27  O   UNL     1      -5.740  11.438  16.624  0.00  0.00    +0.000 OA
ATOM     28  H   UNL     1      -6.020  10.508  16.668  0.00  0.00    +0.000 HD
ENDBRANCH  24  27
ENDBRANCH  19  21
ENDBRANCH   6  19
BRANCH   1  29
ATOM     29  C   UNL     1      -1.390  12.836  22.209  0.00  0.00    +0.000 C 
BRANCH  29  30
ATOM     30  C   UNL     1      -2.591  12.201  22.919  0.00  0.00    +0.000 C 
BRANCH  30  32
ATOM     31  C   UNL     1      -4.933  13.034  23.371  0.00  0.00    +0.000 C 
ATOM     32  C   UNL     1      -3.936  12.605  22.305  0.00  0.00    +0.000 C 
ENDBRANCH  30  32
ENDBRANCH  29  30
ENDBRANCH   1  29
TORSDOF 8
ENDMDL
