MODEL 1
REMARK VINA RESULT:      -8.1      0.000      0.000
REMARK  Name = 
REMARK  4 active torsions:
REMARK  status: ('A' for Active; 'I' for Inactive)
REMARK    1  A    between atoms: C_1  and  C_2
REMARK    2  A    between atoms: C_5  and  N_6
REMARK    3  A    between atoms: N_9  and  C_10
REMARK    4  A    between atoms: C_13  and  C_14
REMARK                            x       y       z     vdW  Elec       q    Type
REMARK                         _______ _______ _______ _____ _____    ______ ____
ROOT
ATOM      1  N   UNL     1       1.155   7.578  21.526  0.00  0.00    +0.000 N 
ATOM      2  C   UNL     1       1.894   7.193  20.412  0.00  0.00    +0.000 C 
ATOM      3  O   UNL     1       2.108   7.927  19.449  0.00  0.00    +0.000 OA
ATOM      4  N   UNL     1       2.357   5.881  20.484  0.00  0.00    +0.000 N 
ATOM      5  H   UNL     1       1.436   7.161  22.403  0.00  0.00    +0.000 HD
ATOM      6  H   UNL     1       1.730   5.231  20.929  0.00  0.00    +0.000 HD
ENDROOT
BRANCH   1  11
ATOM      7  C   UNL     1      -1.558  12.655  21.788  0.00  0.00    +0.000 C 
ATOM      8  C   UNL     1      -0.893  11.311  21.718  0.00  0.00    +0.000 A 
ATOM      9  C   UNL     1      -0.544  10.761  20.485  0.00  0.00    +0.000 A 
ATOM     10  C   UNL     1       0.106   9.525  20.420  0.00  0.00    +0.000 A 
ATOM     11  C   UNL     1       0.439   8.811  21.577  0.00  0.00    +0.000 A 
ATOM     12  C   UNL     1       0.045   9.338  22.813  0.00  0.00    +0.000 A 
ATOM     13  C   UNL     1      -0.606  10.582  22.880  0.00  0.00    +0.000 A 
ENDBRANCH   1  11
BRANCH   4  14
ATOM     14  C   UNL     1       3.180   5.376  19.436  0.00  0.00    +0.000 A 
ATOM     15  C   UNL     1       4.564   5.574  19.437  0.00  0.00    +0.000 A 
ATOM     16  C   UNL     1       5.368   5.159  18.365  0.00  0.00    +0.000 A 
ATOM     17  C   UNL     1       4.812   4.518  17.254  0.00  0.00    +0.000 A 
ATOM     18  C   UNL     1       3.415   4.306  17.261  0.00  0.00    +0.000 A 
ATOM     19  C   UNL     1       2.613   4.696  18.354  0.00  0.00    +0.000 A 
BRANCH  17  20
ATOM     20  C   UNL     1       5.666   4.058  16.069  0.00  0.00    +0.000 C 
ATOM     21  C   UNL     1       7.094   4.683  16.132  0.00  0.00    +0.000 C 
ATOM     22  N   UNL     1       7.518   5.378  14.900  0.00  0.00    +0.000 NA
ATOM     23  C   UNL     1       7.298   4.471  13.770  0.00  0.00    +0.000 C 
ATOM     24  C   UNL     1       5.837   3.993  13.675  0.00  0.00    +0.000 C 
ATOM     25  O   UNL     1       5.038   4.376  14.808  0.00  0.00    +0.000 OA
ATOM     26  H   UNL     1       6.864   6.159  14.778  0.00  0.00    +0.000 HD
ENDBRANCH  17  20
ENDBRANCH   4  14
TORSDOF 3
ENDMDL
MODEL 2
REMARK VINA RESULT:      -8.1      3.686     10.553
REMARK  Name = 
REMARK  4 active torsions:
REMARK  status: ('A' for Active; 'I' for Inactive)
REMARK    1  A    between atoms: C_1  and  C_2
REMARK    2  A    between atoms: C_5  and  N_6
REMARK    3  A    between atoms: N_9  and  C_10
REMARK    4  A    between atoms: C_13  and  C_14
REMARK                            x       y       z     vdW  Elec       q    Type
REMARK                         _______ _______ _______ _____ _____    ______ ____
ROOT
ATOM      1  N   UNL     1       2.033   7.894  20.586  0.00  0.00    +0.000 N 
ATOM      2  C   UNL     1       0.848   8.541  20.923  0.00  0.00    +0.000 C 
ATOM      3  O   UNL     1      -0.258   8.007  20.875  0.00  0.00    +0.000 OA
ATOM      4  N   UNL     1       1.034   9.867  21.308  0.00  0.00    +0.000 N 
ATOM      5  H   UNL     1       2.854   8.189  21.097  0.00  0.00    +0.000 HD
ATOM      6  H   UNL     1       1.760  10.358  20.811  0.00  0.00    +0.000 HD
ENDROOT
BRANCH   1  11
ATOM      7  C   UNL     1       1.895   2.661  18.178  0.00  0.00    +0.000 C 
ATOM      8  C   UNL     1       1.976   4.016  18.818  0.00  0.00    +0.000 A 
ATOM      9  C   UNL     1       2.370   5.126  18.070  0.00  0.00    +0.000 A 
ATOM     10  C   UNL     1       2.412   6.395  18.656  0.00  0.00    +0.000 A 
ATOM     11  C   UNL     1       2.051   6.596  19.994  0.00  0.00    +0.000 A 
ATOM     12  C   UNL     1       1.705   5.476  20.758  0.00  0.00    +0.000 A 
ATOM     13  C   UNL     1       1.658   4.200  20.170  0.00  0.00    +0.000 A 
ENDBRANCH   1  11
BRANCH   4  14
ATOM     14  C   UNL     1      -0.089  10.630  21.738  0.00  0.00    +0.000 A 
ATOM     15  C   UNL     1      -0.643  10.458  23.011  0.00  0.00    +0.000 A 
ATOM     16  C   UNL     1      -1.803  11.139  23.408  0.00  0.00    +0.000 A 
ATOM     17  C   UNL     1      -2.445  12.030  22.544  0.00  0.00    +0.000 A 
ATOM     18  C   UNL     1      -1.876  12.214  21.264  0.00  0.00    +0.000 A 
ATOM     19  C   UNL     1      -0.692  11.552  20.878  0.00  0.00    +0.000 A 
BRANCH  17  20
ATOM     20  C   UNL     1      -3.714  12.785  22.951  0.00  0.00    +0.000 C 
ATOM     21  C   UNL     1      -4.022  12.586  24.467  0.00  0.00    +0.000 C 
ATOM     22  N   UNL     1      -5.391  12.115  24.763  0.00  0.00    +0.000 NA
ATOM     23  C   UNL     1      -6.332  12.991  24.058  0.00  0.00    +0.000 C 
ATOM     24  C   UNL     1      -6.066  13.042  22.543  0.00  0.00    +0.000 C 
ATOM     25  O   UNL     1      -4.849  12.381  22.154  0.00  0.00    +0.000 OA
ATOM     26  H   UNL     1      -5.471  11.191  24.326  0.00  0.00    +0.000 HD
ENDBRANCH  17  20
ENDBRANCH   4  14
TORSDOF 3
ENDMDL
MODEL 3
REMARK VINA RESULT:      -8.0      3.682     10.558
REMARK  Name = 
REMARK  4 active torsions:
REMARK  status: ('A' for Active; 'I' for Inactive)
REMARK    1  A    between atoms: C_1  and  C_2
REMARK    2  A    between atoms: C_5  and  N_6
REMARK    3  A    between atoms: N_9  and  C_10
REMARK    4  A    between atoms: C_13  and  C_14
REMARK                            x       y       z     vdW  Elec       q    Type
REMARK                         _______ _______ _______ _____ _____    ______ ____
ROOT
ATOM      1  N   UNL     1       2.055   7.678  20.649  0.00  0.00    +0.000 N 
ATOM      2  C   UNL     1       0.889   8.362  20.978  0.00  0.00    +0.000 C 
ATOM      3  O   UNL     1      -0.233   7.865  20.919  0.00  0.00    +0.000 OA
ATOM      4  N   UNL     1       1.116   9.681  21.368  0.00  0.00    +0.000 N 
ATOM      5  H   UNL     1       2.881   7.944  21.168  0.00  0.00    +0.000 HD
ATOM      6  H   UNL     1       1.862  10.148  20.878  0.00  0.00    +0.000 HD
ENDROOT
BRANCH   1  11
ATOM      7  C   UNL     1       2.186   2.441  18.247  0.00  0.00    +0.000 C 
ATOM      8  C   UNL     1       2.106   3.808  18.862  0.00  0.00    +0.000 A 
ATOM      9  C   UNL     1       1.809   3.955  20.217  0.00  0.00    +0.000 A 
ATOM     10  C   UNL     1       1.768   5.226  20.799  0.00  0.00    +0.000 A 
ATOM     11  C   UNL     1       2.035   6.381  20.054  0.00  0.00    +0.000 A 
ATOM     12  C   UNL     1       2.284   6.239  18.684  0.00  0.00    +0.000 A 
ATOM     13  C   UNL     1       2.329   4.962  18.098  0.00  0.00    +0.000 A 
ENDBRANCH   1  11
BRANCH   4  14
ATOM     14  C   UNL     1       0.015  10.479  21.791  0.00  0.00    +0.000 A 
ATOM     15  C   UNL     1      -0.576  10.300  23.046  0.00  0.00    +0.000 A 
ATOM     16  C   UNL     1      -1.716  11.020  23.433  0.00  0.00    +0.000 A 
ATOM     17  C   UNL     1      -2.300  11.957  22.576  0.00  0.00    +0.000 A 
ATOM     18  C   UNL     1      -1.693  12.147  21.314  0.00  0.00    +0.000 A 
ATOM     19  C   UNL     1      -0.528  11.446  20.939  0.00  0.00    +0.000 A 
BRANCH  17  20
ATOM     20  C   UNL     1      -3.546  12.754  22.972  0.00  0.00    +0.000 C 
ATOM     21  C   UNL     1      -3.894  12.538  24.477  0.00  0.00    +0.000 C 
ATOM     22  N   UNL     1      -5.287  12.117  24.735  0.00  0.00    +0.000 NA
ATOM     23  C   UNL     1      -6.177  13.044  24.030  0.00  0.00    +0.000 C 
ATOM     24  C   UNL     1      -5.877  13.113  22.521  0.00  0.00    +0.000 C 
ATOM     25  O   UNL     1      -4.680  12.411  22.144  0.00  0.00    +0.000 OA
ATOM     26  H   UNL     1      -5.394  11.206  24.278  0.00  0.00    +0.000 HD
ENDBRANCH  17  20
ENDBRANCH   4  14
TORSDOF 3
ENDMDL
MODEL 4
REMARK VINA RESULT:      -8.0      0.133      1.010
REMARK  Name = 
REMARK  4 active torsions:
REMARK  status: ('A' for Active; 'I' for Inactive)
REMARK    1  A    between atoms: C_1  and  C_2
REMARK    2  A    between atoms: C_5  and  N_6
REMARK    3  A    between atoms: N_9  and  C_10
REMARK    4  A    between atoms: C_13  and  C_14
REMARK                            x       y       z     vdW  Elec       q    Type
REMARK                         _______ _______ _______ _____ _____    ______ ____
ROOT
ATOM      1  N   UNL     1       1.288   7.580  21.545  0.00  0.00    +0.000 N 
ATOM      2  C   UNL     1       1.988   7.192  20.407  0.00  0.00    +0.000 C 
ATOM      3  O   UNL     1       2.172   7.924  19.437  0.00  0.00    +0.000 OA
ATOM      4  N   UNL     1       2.448   5.878  20.464  0.00  0.00    +0.000 N 
ATOM      5  H   UNL     1       1.596   7.162  22.413  0.00  0.00    +0.000 HD
ATOM      6  H   UNL     1       1.833   5.231  20.931  0.00  0.00    +0.000 HD
ENDROOT
BRANCH   1  11
ATOM      7  C   UNL     1      -1.754  12.468  21.791  0.00  0.00    +0.000 C 
ATOM      8  C   UNL     1      -0.922  11.220  21.728  0.00  0.00    +0.000 A 
ATOM      9  C   UNL     1      -0.549  10.562  22.900  0.00  0.00    +0.000 A 
ATOM     10  C   UNL     1       0.197   9.380  22.842  0.00  0.00    +0.000 A 
ATOM     11  C   UNL     1       0.579   8.815  21.619  0.00  0.00    +0.000 A 
ATOM     12  C   UNL     1       0.248   9.501  20.444  0.00  0.00    +0.000 A 
ATOM     13  C   UNL     1      -0.504  10.688  20.501  0.00  0.00    +0.000 A 
ENDBRANCH   1  11
BRANCH   4  14
ATOM     14  C   UNL     1       3.233   5.369  19.391  0.00  0.00    +0.000 A 
ATOM     15  C   UNL     1       4.625   5.507  19.376  0.00  0.00    +0.000 A 
ATOM     16  C   UNL     1       5.395   5.089  18.280  0.00  0.00    +0.000 A 
ATOM     17  C   UNL     1       4.796   4.506  17.160  0.00  0.00    +0.000 A 
ATOM     18  C   UNL     1       3.392   4.354  17.183  0.00  0.00    +0.000 A 
ATOM     19  C   UNL     1       2.622   4.745  18.298  0.00  0.00    +0.000 A 
BRANCH  17  20
ATOM     20  C   UNL     1       5.613   4.045  15.950  0.00  0.00    +0.000 C 
ATOM     21  C   UNL     1       7.051   4.650  15.981  0.00  0.00    +0.000 C 
ATOM     22  N   UNL     1       7.453   5.350  14.744  0.00  0.00    +0.000 NA
ATOM     23  C   UNL     1       7.191   4.456  13.613  0.00  0.00    +0.000 C 
ATOM     24  C   UNL     1       5.722   3.999  13.552  0.00  0.00    +0.000 C 
ATOM     25  O   UNL     1       4.957   4.382  14.708  0.00  0.00    +0.000 OA
ATOM     26  H   UNL     1       6.807   6.140  14.646  0.00  0.00    +0.000 HD
ENDBRANCH  17  20
ENDBRANCH   4  14
TORSDOF 3
ENDMDL
MODEL 5
REMARK VINA RESULT:      -7.9      0.524      1.087
REMARK  Name = 
REMARK  4 active torsions:
REMARK  status: ('A' for Active; 'I' for Inactive)
REMARK    1  A    between atoms: C_1  and  C_2
REMARK    2  A    between atoms: C_5  and  N_6
REMARK    3  A    between atoms: N_9  and  C_10
REMARK    4  A    between atoms: C_13  and  C_14
REMARK                            x       y       z     vdW  Elec       q    Type
REMARK                         _______ _______ _______ _____ _____    ______ ____
ROOT
ATOM      1  N   UNL     1       1.504   7.667  21.283  0.00  0.00    +0.000 N 
ATOM      2  C   UNL     1       2.102   7.326  20.075  0.00  0.00    +0.000 C 
ATOM      3  O   UNL     1       2.090   8.048  19.080  0.00  0.00    +0.000 OA
ATOM      4  N   UNL     1       2.706   6.070  20.094  0.00  0.00    +0.000 N 
ATOM      5  H   UNL     1       1.956   7.308  22.113  0.00  0.00    +0.000 HD
ATOM      6  H   UNL     1       2.224   5.374  20.640  0.00  0.00    +0.000 HD
ENDROOT
BRANCH   1  11
ATOM      7  C   UNL     1      -1.660  12.442  21.917  0.00  0.00    +0.000 C 
ATOM      8  C   UNL     1      -0.876  11.173  21.750  0.00  0.00    +0.000 A 
ATOM      9  C   UNL     1      -0.500  10.740  20.478  0.00  0.00    +0.000 A 
ATOM     10  C   UNL     1       0.260   9.577  20.322  0.00  0.00    +0.000 A 
ATOM     11  C   UNL     1       0.678   8.822  21.425  0.00  0.00    +0.000 A 
ATOM     12  C   UNL     1       0.260   9.228  22.698  0.00  0.00    +0.000 A 
ATOM     13  C   UNL     1      -0.502  10.399  22.856  0.00  0.00    +0.000 A 
ENDBRANCH   1  11
BRANCH   4  14
ATOM     14  C   UNL     1       3.409   5.620  18.941  0.00  0.00    +0.000 A 
ATOM     15  C   UNL     1       2.928   4.564  18.159  0.00  0.00    +0.000 A 
ATOM     16  C   UNL     1       3.660   4.056  17.075  0.00  0.00    +0.000 A 
ATOM     17  C   UNL     1       4.900   4.599  16.728  0.00  0.00    +0.000 A 
ATOM     18  C   UNL     1       5.378   5.675  17.509  0.00  0.00    +0.000 A 
ATOM     19  C   UNL     1       4.626   6.205  18.578  0.00  0.00    +0.000 A 
BRANCH  17  20
ATOM     20  C   UNL     1       5.721   4.062  15.552  0.00  0.00    +0.000 C 
ATOM     21  C   UNL     1       7.138   4.711  15.515  0.00  0.00    +0.000 C 
ATOM     22  N   UNL     1       7.508   5.316  14.220  0.00  0.00    +0.000 NA
ATOM     23  C   UNL     1       7.265   4.321  13.171  0.00  0.00    +0.000 C 
ATOM     24  C   UNL     1       5.811   3.815  13.165  0.00  0.00    +0.000 C 
ATOM     25  O   UNL     1       5.044   4.271  14.293  0.00  0.00    +0.000 OA
ATOM     26  H   UNL     1       6.836   6.074  14.062  0.00  0.00    +0.000 HD
ENDBRANCH  17  20
ENDBRANCH   4  14
TORSDOF 3
ENDMDL
MODEL 6
REMARK VINA RESULT:      -7.9      0.242      1.436
REMARK  Name = 
REMARK  4 active torsions:
REMARK  status: ('A' for Active; 'I' for Inactive)
REMARK    1  A    between atoms: C_1  and  C_2
REMARK    2  A    between atoms: C_5  and  N_6
REMARK    3  A    between atoms: N_9  and  C_10
REMARK    4  A    between atoms: C_13  and  C_14
REMARK                            x       y       z     vdW  Elec       q    Type
REMARK                         _______ _______ _______ _____ _____    ______ ____
ROOT
ATOM      1  N   UNL     1       1.169   7.672  21.555  0.00  0.00    +0.000 N 
ATOM      2  C   UNL     1       1.877   7.373  20.395  0.00  0.00    +0.000 C 
ATOM      3  O   UNL     1       2.053   8.172  19.478  0.00  0.00    +0.000 OA
ATOM      4  N   UNL     1       2.355   6.064  20.364  0.00  0.00    +0.000 N 
ATOM      5  H   UNL     1       1.482   7.201  22.393  0.00  0.00    +0.000 HD
ATOM      6  H   UNL     1       1.749   5.378  20.783  0.00  0.00    +0.000 HD
ENDROOT
BRANCH   1  11
ATOM      7  C   UNL     1      -1.942  12.488  22.133  0.00  0.00    +0.000 C 
ATOM      8  C   UNL     1      -1.092  11.260  21.984  0.00  0.00    +0.000 A 
ATOM      9  C   UNL     1      -0.678  10.548  23.111  0.00  0.00    +0.000 A 
ATOM     10  C   UNL     1       0.084   9.384  22.971  0.00  0.00    +0.000 A 
ATOM     11  C   UNL     1       0.443   8.890  21.711  0.00  0.00    +0.000 A 
ATOM     12  C   UNL     1       0.071   9.630  20.583  0.00  0.00    +0.000 A 
ATOM     13  C   UNL     1      -0.698  10.799  20.721  0.00  0.00    +0.000 A 
ENDBRANCH   1  11
BRANCH   4  14
ATOM     14  C   UNL     1       3.149   5.641  19.260  0.00  0.00    +0.000 A 
ATOM     15  C   UNL     1       2.592   4.935  18.189  0.00  0.00    +0.000 A 
ATOM     16  C   UNL     1       3.384   4.438  17.143  0.00  0.00    +0.000 A 
ATOM     17  C   UNL     1       4.766   4.641  17.128  0.00  0.00    +0.000 A 
ATOM     18  C   UNL     1       5.326   5.367  18.203  0.00  0.00    +0.000 A 
ATOM     19  C   UNL     1       4.525   5.894  19.237  0.00  0.00    +0.000 A 
BRANCH  17  20
ATOM     20  C   UNL     1       5.654   4.106  16.000  0.00  0.00    +0.000 C 
ATOM     21  C   UNL     1       7.075   4.748  16.054  0.00  0.00    +0.000 C 
ATOM     22  N   UNL     1       7.525   5.358  14.786  0.00  0.00    +0.000 NA
ATOM     23  C   UNL     1       7.341   4.371  13.719  0.00  0.00    +0.000 C 
ATOM     24  C   UNL     1       5.887   3.873  13.622  0.00  0.00    +0.000 C 
ATOM     25  O   UNL     1       5.056   4.327  14.704  0.00  0.00    +0.000 OA
ATOM     26  H   UNL     1       6.868   6.122  14.593  0.00  0.00    +0.000 HD
ENDBRANCH  17  20
ENDBRANCH   4  14
TORSDOF 3
ENDMDL
MODEL 7
REMARK VINA RESULT:      -7.7      3.673     10.564
REMARK  Name = 
REMARK  4 active torsions:
REMARK  status: ('A' for Active; 'I' for Inactive)
REMARK    1  A    between atoms: C_1  and  C_2
REMARK    2  A    between atoms: C_5  and  N_6
REMARK    3  A    between atoms: N_9  and  C_10
REMARK    4  A    between atoms: C_13  and  C_14
REMARK                            x       y       z     vdW  Elec       q    Type
REMARK                         _______ _______ _______ _____ _____    ______ ____
ROOT
ATOM      1  N   UNL     1       2.029   7.667  20.598  0.00  0.00    +0.000 N 
ATOM      2  C   UNL     1       0.836   8.314  20.908  0.00  0.00    +0.000 C 
ATOM      3  O   UNL     1      -0.264   7.766  20.880  0.00  0.00    +0.000 OA
ATOM      4  N   UNL     1       1.007   9.656  21.239  0.00  0.00    +0.000 N 
ATOM      5  H   UNL     1       2.846   7.991  21.098  0.00  0.00    +0.000 HD
ATOM      6  H   UNL     1       1.728  10.134  20.723  0.00  0.00    +0.000 HD
ENDROOT
BRANCH   1  11
ATOM      7  C   UNL     1       1.952   2.336  18.412  0.00  0.00    +0.000 C 
ATOM      8  C   UNL     1       2.017   3.718  18.993  0.00  0.00    +0.000 A 
ATOM      9  C   UNL     1       2.355   4.806  18.187  0.00  0.00    +0.000 A 
ATOM     10  C   UNL     1       2.383   6.099  18.719  0.00  0.00    +0.000 A 
ATOM     11  C   UNL     1       2.062   6.347  20.060  0.00  0.00    +0.000 A 
ATOM     12  C   UNL     1       1.771   5.251  20.881  0.00  0.00    +0.000 A 
ATOM     13  C   UNL     1       1.740   3.951  20.347  0.00  0.00    +0.000 A 
ENDBRANCH   1  11
BRANCH   4  14
ATOM     14  C   UNL     1      -0.125  10.423  21.637  0.00  0.00    +0.000 A 
ATOM     15  C   UNL     1      -0.764  11.294  20.749  0.00  0.00    +0.000 A 
ATOM     16  C   UNL     1      -1.823  12.118  21.159  0.00  0.00    +0.000 A 
ATOM     17  C   UNL     1      -2.287  12.091  22.477  0.00  0.00    +0.000 A 
ATOM     18  C   UNL     1      -1.649  11.200  23.370  0.00  0.00    +0.000 A 
ATOM     19  C   UNL     1      -0.607  10.349  22.948  0.00  0.00    +0.000 A 
BRANCH  17  20
ATOM     20  C   UNL     1      -3.438  12.982  22.952  0.00  0.00    +0.000 C 
ATOM     21  C   UNL     1      -3.859  12.623  24.410  0.00  0.00    +0.000 C 
ATOM     22  N   UNL     1      -5.301  12.353  24.588  0.00  0.00    +0.000 NA
ATOM     23  C   UNL     1      -6.046  13.466  23.994  0.00  0.00    +0.000 C 
ATOM     24  C   UNL     1      -5.690  13.688  22.512  0.00  0.00    +0.000 C 
ATOM     25  O   UNL     1      -4.577  12.894  22.068  0.00  0.00    +0.000 OA
ATOM     26  H   UNL     1      -5.504  11.528  24.015  0.00  0.00    +0.000 HD
ENDBRANCH  17  20
ENDBRANCH   4  14
TORSDOF 3
ENDMDL
MODEL 8
REMARK VINA RESULT:      -7.6      3.593     10.614
REMARK  Name = 
REMARK  4 active torsions:
REMARK  status: ('A' for Active; 'I' for Inactive)
REMARK    1  A    between atoms: C_1  and  C_2
REMARK    2  A    between atoms: C_5  and  N_6
REMARK    3  A    between atoms: N_9  and  C_10
REMARK    4  A    between atoms: C_13  and  C_14
REMARK                            x       y       z     vdW  Elec       q    Type
REMARK                         _______ _______ _______ _____ _____    ______ ____
ROOT
ATOM      1  N   UNL     1       2.108   7.698  20.686  0.00  0.00    +0.000 N 
ATOM      2  C   UNL     1       0.890   8.321  20.942  0.00  0.00    +0.000 C 
ATOM      3  O   UNL     1      -0.200   7.770  20.804  0.00  0.00    +0.000 OA
ATOM      4  N   UNL     1       1.025   9.645  21.355  0.00  0.00    +0.000 N 
ATOM      5  H   UNL     1       2.883   7.998  21.261  0.00  0.00    +0.000 HD
ATOM      6  H   UNL     1       1.777  10.153  20.919  0.00  0.00    +0.000 HD
ENDROOT
BRANCH   1  11
ATOM      7  C   UNL     1       2.656   2.504  18.251  0.00  0.00    +0.000 C 
ATOM      8  C   UNL     1       2.468   3.856  18.874  0.00  0.00    +0.000 A 
ATOM      9  C   UNL     1       2.143   3.971  20.226  0.00  0.00    +0.000 A 
ATOM     10  C   UNL     1       2.001   5.231  20.816  0.00  0.00    +0.000 A 
ATOM     11  C   UNL     1       2.191   6.408  20.082  0.00  0.00    +0.000 A 
ATOM     12  C   UNL     1       2.468   6.295  18.715  0.00  0.00    +0.000 A 
ATOM     13  C   UNL     1       2.614   5.029  18.121  0.00  0.00    +0.000 A 
ENDBRANCH   1  11
BRANCH   4  14
ATOM     14  C   UNL     1      -0.139  10.384  21.709  0.00  0.00    +0.000 A 
ATOM     15  C   UNL     1      -0.780  11.220  20.789  0.00  0.00    +0.000 A 
ATOM     16  C   UNL     1      -1.873  12.020  21.157  0.00  0.00    +0.000 A 
ATOM     17  C   UNL     1      -2.372  12.000  22.462  0.00  0.00    +0.000 A 
ATOM     18  C   UNL     1      -1.733  11.143  23.386  0.00  0.00    +0.000 A 
ATOM     19  C   UNL     1      -0.655  10.317  23.007  0.00  0.00    +0.000 A 
BRANCH  17  20
ATOM     20  C   UNL     1      -3.561  12.865  22.890  0.00  0.00    +0.000 C 
ATOM     21  C   UNL     1      -3.882  12.666  24.404  0.00  0.00    +0.000 C 
ATOM     22  N   UNL     1      -5.288  12.323  24.697  0.00  0.00    +0.000 NA
ATOM     23  C   UNL     1      -6.143  13.299  24.015  0.00  0.00    +0.000 C 
ATOM     24  C   UNL     1      -5.879  13.354  22.499  0.00  0.00    +0.000 C 
ATOM     25  O   UNL     1      -4.732  12.588  22.092  0.00  0.00    +0.000 OA
ATOM     26  H   UNL     1      -5.458  11.420  24.243  0.00  0.00    +0.000 HD
ENDBRANCH  17  20
ENDBRANCH   4  14
TORSDOF 3
ENDMDL
MODEL 9
REMARK VINA RESULT:      -7.5      7.556     10.181
REMARK  Name = 
REMARK  4 active torsions:
REMARK  status: ('A' for Active; 'I' for Inactive)
REMARK    1  A    between atoms: C_1  and  C_2
REMARK    2  A    between atoms: C_5  and  N_6
REMARK    3  A    between atoms: N_9  and  C_10
REMARK    4  A    between atoms: C_13  and  C_14
REMARK                            x       y       z     vdW  Elec       q    Type
REMARK                         _______ _______ _______ _____ _____    ______ ____
ROOT
ATOM      1  N   UNL     1       7.799   7.067  18.424  0.00  0.00    +0.000 N 
ATOM      2  C   UNL     1       8.182   8.387  18.207  0.00  0.00    +0.000 C 
ATOM      3  O   UNL     1       7.862   9.035  17.213  0.00  0.00    +0.000 OA
ATOM      4  N   UNL     1       8.985   8.902  19.223  0.00  0.00    +0.000 N 
ATOM      5  H   UNL     1       7.667   6.802  19.391  0.00  0.00    +0.000 HD
ATOM      6  H   UNL     1       9.628   8.244  19.633  0.00  0.00    +0.000 HD
ENDROOT
BRANCH   1  11
ATOM      7  C   UNL     1       5.189   4.068  14.253  0.00  0.00    +0.000 C 
ATOM      8  C   UNL     1       5.841   4.828  15.371  0.00  0.00    +0.000 A 
ATOM      9  C   UNL     1       6.980   4.320  15.998  0.00  0.00    +0.000 A 
ATOM     10  C   UNL     1       7.609   5.043  17.016  0.00  0.00    +0.000 A 
ATOM     11  C   UNL     1       7.132   6.294  17.428  0.00  0.00    +0.000 A 
ATOM     12  C   UNL     1       5.962   6.781  16.835  0.00  0.00    +0.000 A 
ATOM     13  C   UNL     1       5.330   6.057  15.809  0.00  0.00    +0.000 A 
ENDBRANCH   1  11
BRANCH   4  14
ATOM     14  C   UNL     1       9.399  10.263  19.158  0.00  0.00    +0.000 A 
ATOM     15  C   UNL     1       9.286  11.113  20.263  0.00  0.00    +0.000 A 
ATOM     16  C   UNL     1       9.607  12.476  20.180  0.00  0.00    +0.000 A 
ATOM     17  C   UNL     1      10.066  13.035  18.985  0.00  0.00    +0.000 A 
ATOM     18  C   UNL     1      10.194  12.172  17.873  0.00  0.00    +0.000 A 
ATOM     19  C   UNL     1       9.901  10.796  17.967  0.00  0.00    +0.000 A 
BRANCH  17  20
ATOM     20  C   UNL     1      10.421  14.520  18.866  0.00  0.00    +0.000 C 
ATOM     21  C   UNL     1       9.364  15.281  18.007  0.00  0.00    +0.000 C 
ATOM     22  N   UNL     1       9.926  16.069  16.892  0.00  0.00    +0.000 NA
ATOM     23  C   UNL     1      10.998  16.912  17.428  0.00  0.00    +0.000 C 
ATOM     24  C   UNL     1      12.086  16.093  18.147  0.00  0.00    +0.000 C 
ATOM     25  O   UNL     1      11.741  14.707  18.311  0.00  0.00    +0.000 OA
ATOM     26  H   UNL     1      10.375  15.391  16.267  0.00  0.00    +0.000 HD
ENDBRANCH  17  20
ENDBRANCH   4  14
TORSDOF 3
ENDMDL
