MODEL 1
REMARK VINA RESULT:      -7.4      0.000      0.000
REMARK  Name = 
REMARK  8 active torsions:
REMARK  status: ('A' for Active; 'I' for Inactive)
REMARK    1  A    between atoms: C_2  and  C_3
REMARK    2  A    between atoms: C_2  and  O_14
REMARK    3  A    between atoms: C_3  and  C_4
REMARK    4  A    between atoms: C_4  and  N_5
REMARK    5  A    between atoms: C_6  and  C_8
REMARK    6  A    between atoms: O_14  and  C_15
REMARK    7  A    between atoms: C_15  and  C_16
REMARK    8  A    between atoms: C_16  and  C_18
REMARK                            x       y       z     vdW  Elec       q    Type
REMARK                         _______ _______ _______ _____ _____    ______ ____
ROOT
ATOM      1  O   UNL     1       1.702   2.288  21.618  0.00  0.00    +0.000 OA
ATOM      2  C   UNL     1       1.568   2.725  20.495  0.00  0.00    +0.000 C 
ENDROOT
BRANCH   2   3
ATOM      3  C   UNL     1       1.077   4.145  20.210  0.00  0.00    +0.000 C 
BRANCH   3   4
ATOM      4  C   UNL     1       2.085   5.201  20.645  0.00  0.00    +0.000 C 
BRANCH   4   5
ATOM      5  N   UNL     1       1.466   6.435  21.096  0.00  0.00    +0.000 N 
ATOM      6  C   UNL     1       1.599   7.594  20.355  0.00  0.00    +0.000 C 
ATOM      7  O   UNL     1       2.219   7.648  19.298  0.00  0.00    +0.000 OA
ATOM      8  H   UNL     1       0.826   6.411  21.879  0.00  0.00    +0.000 HD
BRANCH   6   9
ATOM      9  C   UNL     1       0.922   8.803  20.892  0.00  0.00    +0.000 A 
ATOM     10  C   UNL     1       0.795   9.935  20.080  0.00  0.00    +0.000 A 
ATOM     11  C   UNL     1       0.225  11.101  20.586  0.00  0.00    +0.000 A 
ATOM     12  C   UNL     1      -0.229  11.139  21.904  0.00  0.00    +0.000 A 
ATOM     13  C   UNL     1      -0.120  10.009  22.716  0.00  0.00    +0.000 A 
ATOM     14  C   UNL     1       0.450   8.836  22.211  0.00  0.00    +0.000 A 
ENDBRANCH   6   9
ENDBRANCH   4   5
ENDBRANCH   3   4
ENDBRANCH   2   3
BRANCH   2  15
ATOM     15  O   UNL     1       1.867   2.022  19.353  0.00  0.00    +0.000 OA
BRANCH  15  16
ATOM     16  C   UNL     1       3.207   2.084  18.827  0.00  0.00    +0.000 C 
BRANCH  16  17
ATOM     17  C   UNL     1       3.257   3.086  17.672  0.00  0.00    +0.000 C 
ATOM     18  O   UNL     1       2.294   3.285  16.928  0.00  0.00    +0.000 OA
BRANCH  17  19
ATOM     19  C   UNL     1       4.507   3.865  17.443  0.00  0.00    +0.000 A 
ATOM     20  C   UNL     1       4.941   4.055  16.121  0.00  0.00    +0.000 A 
ATOM     21  C   UNL     1       6.122   4.749  15.858  0.00  0.00    +0.000 A 
ATOM     22  C   UNL     1       6.877   5.257  16.915  0.00  0.00    +0.000 A 
ATOM     23  C   UNL     1       6.442   5.073  18.227  0.00  0.00    +0.000 A 
ATOM     24 CL   UNL     1       7.387   5.679  19.529  0.00  0.00    +0.000 Cl
ATOM     25  C   UNL     1       5.262   4.380  18.500  0.00  0.00    +0.000 A 
ENDBRANCH  17  19
ENDBRANCH  16  17
ENDBRANCH  15  16
ENDBRANCH   2  15
TORSDOF 8
ENDMDL
MODEL 2
REMARK VINA RESULT:      -7.3      3.079      6.986
REMARK  Name = 
REMARK  8 active torsions:
REMARK  status: ('A' for Active; 'I' for Inactive)
REMARK    1  A    between atoms: C_2  and  C_3
REMARK    2  A    between atoms: C_2  and  O_14
REMARK    3  A    between atoms: C_3  and  C_4
REMARK    4  A    between atoms: C_4  and  N_5
REMARK    5  A    between atoms: C_6  and  C_8
REMARK    6  A    between atoms: O_14  and  C_15
REMARK    7  A    between atoms: C_15  and  C_16
REMARK    8  A    between atoms: C_16  and  C_18
REMARK                            x       y       z     vdW  Elec       q    Type
REMARK                         _______ _______ _______ _____ _____    ______ ____
ROOT
ATOM      1  O   UNL     1       5.236   6.934  15.473  0.00  0.00    +0.000 OA
ATOM      2  C   UNL     1       5.487   6.756  16.647  0.00  0.00    +0.000 C 
ENDROOT
BRANCH   2   3
ATOM      3  C   UNL     1       6.694   5.949  17.125  0.00  0.00    +0.000 C 
BRANCH   3   4
ATOM      4  C   UNL     1       6.383   4.462  17.244  0.00  0.00    +0.000 C 
BRANCH   4   5
ATOM      5  N   UNL     1       4.997   4.191  17.579  0.00  0.00    +0.000 N 
ATOM      6  C   UNL     1       4.663   3.711  18.832  0.00  0.00    +0.000 C 
ATOM      7  O   UNL     1       5.489   3.503  19.714  0.00  0.00    +0.000 OA
ATOM      8  H   UNL     1       4.267   4.481  16.943  0.00  0.00    +0.000 HD
BRANCH   6   9
ATOM      9  C   UNL     1       3.218   3.473  19.085  0.00  0.00    +0.000 A 
ATOM     10  C   UNL     1       2.579   4.166  20.118  0.00  0.00    +0.000 A 
ATOM     11  C   UNL     1       1.243   3.908  20.415  0.00  0.00    +0.000 A 
ATOM     12  C   UNL     1       0.536   2.959  19.676  0.00  0.00    +0.000 A 
ATOM     13  C   UNL     1       1.162   2.273  18.634  0.00  0.00    +0.000 A 
ATOM     14  C   UNL     1       2.503   2.532  18.331  0.00  0.00    +0.000 A 
ENDBRANCH   6   9
ENDBRANCH   4   5
ENDBRANCH   3   4
ENDBRANCH   2   3
BRANCH   2  15
ATOM     15  O   UNL     1       4.745   7.275  17.681  0.00  0.00    +0.000 OA
BRANCH  15  16
ATOM     16  C   UNL     1       3.320   7.063  17.692  0.00  0.00    +0.000 C 
BRANCH  16  17
ATOM     17  C   UNL     1       2.606   8.398  17.907  0.00  0.00    +0.000 C 
ATOM     18  O   UNL     1       2.672   9.322  17.092  0.00  0.00    +0.000 OA
BRANCH  17  19
ATOM     19  C   UNL     1       1.785   8.591  19.136  0.00  0.00    +0.000 A 
ATOM     20  C   UNL     1       1.901   7.648  20.169  0.00  0.00    +0.000 A 
ATOM     21  C   UNL     1       1.128   7.768  21.325  0.00  0.00    +0.000 A 
ATOM     22  C   UNL     1       0.235   8.831  21.454  0.00  0.00    +0.000 A 
ATOM     23  C   UNL     1       0.125   9.770  20.429  0.00  0.00    +0.000 A 
ATOM     24 CL   UNL     1      -0.996  11.066  20.580  0.00  0.00    +0.000 Cl
ATOM     25  C   UNL     1       0.893   9.659  19.270  0.00  0.00    +0.000 A 
ENDBRANCH  17  19
ENDBRANCH  16  17
ENDBRANCH  15  16
ENDBRANCH   2  15
TORSDOF 8
ENDMDL
MODEL 3
REMARK VINA RESULT:      -7.3      1.511      2.310
REMARK  Name = 
REMARK  8 active torsions:
REMARK  status: ('A' for Active; 'I' for Inactive)
REMARK    1  A    between atoms: C_2  and  C_3
REMARK    2  A    between atoms: C_2  and  O_14
REMARK    3  A    between atoms: C_3  and  C_4
REMARK    4  A    between atoms: C_4  and  N_5
REMARK    5  A    between atoms: C_6  and  C_8
REMARK    6  A    between atoms: O_14  and  C_15
REMARK    7  A    between atoms: C_15  and  C_16
REMARK    8  A    between atoms: C_16  and  C_18
REMARK                            x       y       z     vdW  Elec       q    Type
REMARK                         _______ _______ _______ _____ _____    ______ ____
ROOT
ATOM      1  O   UNL     1       1.181   4.113  17.566  0.00  0.00    +0.000 OA
ATOM      2  C   UNL     1       1.594   3.663  18.614  0.00  0.00    +0.000 C 
ENDROOT
BRANCH   2   3
ATOM      3  C   UNL     1       1.293   4.306  19.968  0.00  0.00    +0.000 C 
BRANCH   3   4
ATOM      4  C   UNL     1       2.260   5.437  20.296  0.00  0.00    +0.000 C 
BRANCH   4   5
ATOM      5  N   UNL     1       1.613   6.591  20.895  0.00  0.00    +0.000 N 
ATOM      6  C   UNL     1       1.650   7.819  20.262  0.00  0.00    +0.000 C 
ATOM      7  O   UNL     1       2.205   8.003  19.184  0.00  0.00    +0.000 OA
ATOM      8  H   UNL     1       1.021   6.462  21.705  0.00  0.00    +0.000 HD
BRANCH   6   9
ATOM      9  C   UNL     1       0.951   8.937  20.947  0.00  0.00    +0.000 A 
ATOM     10  C   UNL     1       0.593   8.801  22.292  0.00  0.00    +0.000 A 
ATOM     11  C   UNL     1      -0.121   9.809  22.934  0.00  0.00    +0.000 A 
ATOM     12  C   UNL     1      -0.476  10.964  22.236  0.00  0.00    +0.000 A 
ATOM     13  C   UNL     1      -0.111  11.114  20.897  0.00  0.00    +0.000 A 
ATOM     14  C   UNL     1       0.610  10.105  20.251  0.00  0.00    +0.000 A 
ENDBRANCH   6   9
ENDBRANCH   4   5
ENDBRANCH   3   4
ENDBRANCH   2   3
BRANCH   2  15
ATOM     15  O   UNL     1       2.344   2.517  18.718  0.00  0.00    +0.000 OA
BRANCH  15  16
ATOM     16  C   UNL     1       3.609   2.447  18.032  0.00  0.00    +0.000 C 
BRANCH  16  17
ATOM     17  C   UNL     1       4.680   3.159  18.860  0.00  0.00    +0.000 C 
ATOM     18  O   UNL     1       5.010   2.773  19.984  0.00  0.00    +0.000 OA
BRANCH  17  19
ATOM     19  C   UNL     1       5.367   4.350  18.286  0.00  0.00    +0.000 A 
ATOM     20  C   UNL     1       6.459   4.890  18.983  0.00  0.00    +0.000 A 
ATOM     21  C   UNL     1       7.113   6.025  18.503  0.00  0.00    +0.000 A 
ATOM     22  C   UNL     1       6.678   6.628  17.324  0.00  0.00    +0.000 A 
ATOM     23  C   UNL     1       5.595   6.089  16.630  0.00  0.00    +0.000 A 
ATOM     24 CL   UNL     1       5.045   6.849  15.189  0.00  0.00    +0.000 Cl
ATOM     25  C   UNL     1       4.936   4.954  17.102  0.00  0.00    +0.000 A 
ENDBRANCH  17  19
ENDBRANCH  16  17
ENDBRANCH  15  16
ENDBRANCH   2  15
TORSDOF 8
ENDMDL
MODEL 4
REMARK VINA RESULT:      -7.2      5.129      7.297
REMARK  Name = 
REMARK  8 active torsions:
REMARK  status: ('A' for Active; 'I' for Inactive)
REMARK    1  A    between atoms: C_2  and  C_3
REMARK    2  A    between atoms: C_2  and  O_14
REMARK    3  A    between atoms: C_3  and  C_4
REMARK    4  A    between atoms: C_4  and  N_5
REMARK    5  A    between atoms: C_6  and  C_8
REMARK    6  A    between atoms: O_14  and  C_15
REMARK    7  A    between atoms: C_15  and  C_16
REMARK    8  A    between atoms: C_16  and  C_18
REMARK                            x       y       z     vdW  Elec       q    Type
REMARK                         _______ _______ _______ _____ _____    ______ ____
ROOT
ATOM      1  O   UNL     1       8.262   4.067  17.675  0.00  0.00    +0.000 OA
ATOM      2  C   UNL     1       7.584   5.072  17.617  0.00  0.00    +0.000 C 
ENDROOT
BRANCH   2   3
ATOM      3  C   UNL     1       7.687   6.202  18.642  0.00  0.00    +0.000 C 
BRANCH   3   4
ATOM      4  C   UNL     1       7.738   7.575  17.982  0.00  0.00    +0.000 C 
BRANCH   4   5
ATOM      5  N   UNL     1       8.647   8.496  18.641  0.00  0.00    +0.000 N 
ATOM      6  C   UNL     1       8.674   9.829  18.279  0.00  0.00    +0.000 C 
ATOM      7  O   UNL     1       7.947  10.305  17.414  0.00  0.00    +0.000 OA
ATOM      8  H   UNL     1       9.160   8.187  19.456  0.00  0.00    +0.000 HD
BRANCH   6   9
ATOM      9  C   UNL     1       9.630  10.696  19.017  0.00  0.00    +0.000 A 
ATOM     10  C   UNL     1       9.386  10.996  20.361  0.00  0.00    +0.000 A 
ATOM     11  C   UNL     1      10.233  11.860  21.051  0.00  0.00    +0.000 A 
ATOM     12  C   UNL     1      11.333  12.423  20.404  0.00  0.00    +0.000 A 
ATOM     13  C   UNL     1      11.591  12.117  19.066  0.00  0.00    +0.000 A 
ATOM     14  C   UNL     1      10.745  11.247  18.371  0.00  0.00    +0.000 A 
ENDBRANCH   6   9
ENDBRANCH   4   5
ENDBRANCH   3   4
ENDBRANCH   2   3
BRANCH   2  15
ATOM     15  O   UNL     1       6.674   5.332  16.621  0.00  0.00    +0.000 OA
BRANCH  15  16
ATOM     16  C   UNL     1       5.368   5.822  16.981  0.00  0.00    +0.000 C 
BRANCH  16  17
ATOM     17  C   UNL     1       4.462   4.645  17.344  0.00  0.00    +0.000 C 
ATOM     18  O   UNL     1       4.438   3.602  16.685  0.00  0.00    +0.000 OA
BRANCH  17  19
ATOM     19  C   UNL     1       3.587   4.748  18.546  0.00  0.00    +0.000 A 
ATOM     20  C   UNL     1       2.930   5.964  18.790  0.00  0.00    +0.000 A 
ATOM     21  C   UNL     1       2.126   6.119  19.920  0.00  0.00    +0.000 A 
ATOM     22  C   UNL     1       1.977   5.060  20.814  0.00  0.00    +0.000 A 
ATOM     23  C   UNL     1       2.626   3.851  20.568  0.00  0.00    +0.000 A 
ATOM     24 CL   UNL     1       2.459   2.553  21.685  0.00  0.00    +0.000 Cl
ATOM     25  C   UNL     1       3.430   3.685  19.441  0.00  0.00    +0.000 A 
ENDBRANCH  17  19
ENDBRANCH  16  17
ENDBRANCH  15  16
ENDBRANCH   2  15
TORSDOF 8
ENDMDL
MODEL 5
REMARK VINA RESULT:      -7.2      3.040      4.079
REMARK  Name = 
REMARK  8 active torsions:
REMARK  status: ('A' for Active; 'I' for Inactive)
REMARK    1  A    between atoms: C_2  and  C_3
REMARK    2  A    between atoms: C_2  and  O_14
REMARK    3  A    between atoms: C_3  and  C_4
REMARK    4  A    between atoms: C_4  and  N_5
REMARK    5  A    between atoms: C_6  and  C_8
REMARK    6  A    between atoms: O_14  and  C_15
REMARK    7  A    between atoms: C_15  and  C_16
REMARK    8  A    between atoms: C_16  and  C_18
REMARK                            x       y       z     vdW  Elec       q    Type
REMARK                         _______ _______ _______ _____ _____    ______ ____
ROOT
ATOM      1  O   UNL     1       2.390   7.199  19.858  0.00  0.00    +0.000 OA
ATOM      2  C   UNL     1       2.416   7.115  18.648  0.00  0.00    +0.000 C 
ENDROOT
BRANCH   2   3
ATOM      3  C   UNL     1       2.398   8.338  17.731  0.00  0.00    +0.000 C 
BRANCH   3   4
ATOM      4  C   UNL     1       1.697   9.530  18.373  0.00  0.00    +0.000 C 
BRANCH   4   5
ATOM      5  N   UNL     1       0.424   9.849  17.752  0.00  0.00    +0.000 N 
ATOM      6  C   UNL     1      -0.646  10.261  18.524  0.00  0.00    +0.000 C 
ATOM      7  O   UNL     1      -0.585  10.389  19.742  0.00  0.00    +0.000 OA
ATOM      8  H   UNL     1       0.364   9.900  16.743  0.00  0.00    +0.000 HD
BRANCH   6   9
ATOM      9  C   UNL     1      -1.904  10.574  17.798  0.00  0.00    +0.000 A 
ATOM     10  C   UNL     1      -2.883  11.352  18.426  0.00  0.00    +0.000 A 
ATOM     11  C   UNL     1      -4.096  11.601  17.789  0.00  0.00    +0.000 A 
ATOM     12  C   UNL     1      -4.335  11.079  16.517  0.00  0.00    +0.000 A 
ATOM     13  C   UNL     1      -3.358  10.314  15.879  0.00  0.00    +0.000 A 
ATOM     14  C   UNL     1      -2.138  10.065  16.513  0.00  0.00    +0.000 A 
ENDBRANCH   6   9
ENDBRANCH   4   5
ENDBRANCH   3   4
ENDBRANCH   2   3
BRANCH   2  15
ATOM     15  O   UNL     1       2.495   5.929  17.959  0.00  0.00    +0.000 OA
BRANCH  15  16
ATOM     16  C   UNL     1       2.099   4.712  18.620  0.00  0.00    +0.000 C 
BRANCH  16  17
ATOM     17  C   UNL     1       3.237   3.693  18.543  0.00  0.00    +0.000 C 
ATOM     18  O   UNL     1       3.100   2.522  18.904  0.00  0.00    +0.000 OA
BRANCH  17  19
ATOM     19  C   UNL     1       4.556   4.121  17.997  0.00  0.00    +0.000 A 
ATOM     20  C   UNL     1       4.844   3.840  16.653  0.00  0.00    +0.000 A 
ATOM     21  C   UNL     1       6.079   4.191  16.106  0.00  0.00    +0.000 A 
ATOM     22  C   UNL     1       7.033   4.824  16.900  0.00  0.00    +0.000 A 
ATOM     23  C   UNL     1       6.745   5.108  18.235  0.00  0.00    +0.000 A 
ATOM     24 CL   UNL     1       7.933   5.867  19.220  0.00  0.00    +0.000 Cl
ATOM     25  C   UNL     1       5.513   4.761  18.790  0.00  0.00    +0.000 A 
ENDBRANCH  17  19
ENDBRANCH  16  17
ENDBRANCH  15  16
ENDBRANCH   2  15
TORSDOF 8
ENDMDL
MODEL 6
REMARK VINA RESULT:      -7.2      1.266      1.580
REMARK  Name = 
REMARK  8 active torsions:
REMARK  status: ('A' for Active; 'I' for Inactive)
REMARK    1  A    between atoms: C_2  and  C_3
REMARK    2  A    between atoms: C_2  and  O_14
REMARK    3  A    between atoms: C_3  and  C_4
REMARK    4  A    between atoms: C_4  and  N_5
REMARK    5  A    between atoms: C_6  and  C_8
REMARK    6  A    between atoms: O_14  and  C_15
REMARK    7  A    between atoms: C_15  and  C_16
REMARK    8  A    between atoms: C_16  and  C_18
REMARK                            x       y       z     vdW  Elec       q    Type
REMARK                         _______ _______ _______ _____ _____    ______ ____
ROOT
ATOM      1  O   UNL     1       1.457   2.726  22.200  0.00  0.00    +0.000 OA
ATOM      2  C   UNL     1       1.487   2.948  21.008  0.00  0.00    +0.000 C 
ENDROOT
BRANCH   2   3
ATOM      3  C   UNL     1       0.986   4.256  20.395  0.00  0.00    +0.000 C 
BRANCH   3   4
ATOM      4  C   UNL     1       1.963   5.406  20.613  0.00  0.00    +0.000 C 
BRANCH   4   5
ATOM      5  N   UNL     1       1.339   6.591  21.174  0.00  0.00    +0.000 N 
ATOM      6  C   UNL     1       1.474   7.815  20.544  0.00  0.00    +0.000 C 
ATOM      7  O   UNL     1       2.100   7.968  19.501  0.00  0.00    +0.000 OA
ATOM      8  H   UNL     1       0.695   6.493  21.947  0.00  0.00    +0.000 HD
BRANCH   6   9
ATOM      9  C   UNL     1       0.792   8.968  21.188  0.00  0.00    +0.000 A 
ATOM     10  C   UNL     1       0.857  10.227  20.583  0.00  0.00    +0.000 A 
ATOM     11  C   UNL     1       0.283  11.334  21.204  0.00  0.00    +0.000 A 
ATOM     12  C   UNL     1      -0.368  11.186  22.429  0.00  0.00    +0.000 A 
ATOM     13  C   UNL     1      -0.450   9.930  23.032  0.00  0.00    +0.000 A 
ATOM     14  C   UNL     1       0.123   8.816  22.410  0.00  0.00    +0.000 A 
ENDBRANCH   6   9
ENDBRANCH   4   5
ENDBRANCH   3   4
ENDBRANCH   2   3
BRANCH   2  15
ATOM     15  O   UNL     1       1.996   2.078  20.074  0.00  0.00    +0.000 OA
BRANCH  15  16
ATOM     16  C   UNL     1       3.398   2.145  19.751  0.00  0.00    +0.000 C 
BRANCH  16  17
ATOM     17  C   UNL     1       3.572   2.688  18.332  0.00  0.00    +0.000 C 
ATOM     18  O   UNL     1       3.004   2.185  17.359  0.00  0.00    +0.000 OA
BRANCH  17  19
ATOM     19  C   UNL     1       4.443   3.877  18.112  0.00  0.00    +0.000 A 
ATOM     20  C   UNL     1       5.348   4.236  19.124  0.00  0.00    +0.000 A 
ATOM     21  C   UNL     1       6.161   5.360  18.978  0.00  0.00    +0.000 A 
ATOM     22  C   UNL     1       6.073   6.133  17.821  0.00  0.00    +0.000 A 
ATOM     23  C   UNL     1       5.177   5.773  16.815  0.00  0.00    +0.000 A 
ATOM     24 CL   UNL     1       5.053   6.742  15.400  0.00  0.00    +0.000 Cl
ATOM     25  C   UNL     1       4.361   4.650  16.951  0.00  0.00    +0.000 A 
ENDBRANCH  17  19
ENDBRANCH  16  17
ENDBRANCH  15  16
ENDBRANCH   2  15
TORSDOF 8
ENDMDL
MODEL 7
REMARK VINA RESULT:      -7.2      5.895      7.643
REMARK  Name = 
REMARK  8 active torsions:
REMARK  status: ('A' for Active; 'I' for Inactive)
REMARK    1  A    between atoms: C_2  and  C_3
REMARK    2  A    between atoms: C_2  and  O_14
REMARK    3  A    between atoms: C_3  and  C_4
REMARK    4  A    between atoms: C_4  and  N_5
REMARK    5  A    between atoms: C_6  and  C_8
REMARK    6  A    between atoms: O_14  and  C_15
REMARK    7  A    between atoms: C_15  and  C_16
REMARK    8  A    between atoms: C_16  and  C_18
REMARK                            x       y       z     vdW  Elec       q    Type
REMARK                         _______ _______ _______ _____ _____    ______ ____
ROOT
ATOM      1  O   UNL     1       7.399   5.916  18.941  0.00  0.00    +0.000 OA
ATOM      2  C   UNL     1       7.538   6.365  17.823  0.00  0.00    +0.000 C 
ENDROOT
BRANCH   2   3
ATOM      3  C   UNL     1       7.622   7.864  17.536  0.00  0.00    +0.000 C 
BRANCH   3   4
ATOM      4  C   UNL     1       8.452   8.605  18.578  0.00  0.00    +0.000 C 
BRANCH   4   5
ATOM      5  N   UNL     1       8.863   9.930  18.148  0.00  0.00    +0.000 N 
ATOM      6  C   UNL     1       9.415  10.817  19.053  0.00  0.00    +0.000 C 
ATOM      7  O   UNL     1       9.598  10.544  20.235  0.00  0.00    +0.000 OA
ATOM      8  H   UNL     1       8.869  10.151  17.161  0.00  0.00    +0.000 HD
BRANCH   6   9
ATOM      9  C   UNL     1       9.813  12.145  18.519  0.00  0.00    +0.000 A 
ATOM     10  C   UNL     1      10.761  12.215  17.492  0.00  0.00    +0.000 A 
ATOM     11  C   UNL     1      11.196  13.452  17.023  0.00  0.00    +0.000 A 
ATOM     12  C   UNL     1      10.682  14.627  17.573  0.00  0.00    +0.000 A 
ATOM     13  C   UNL     1       9.725  14.565  18.588  0.00  0.00    +0.000 A 
ATOM     14  C   UNL     1       9.283  13.325  19.059  0.00  0.00    +0.000 A 
ENDBRANCH   6   9
ENDBRANCH   4   5
ENDBRANCH   3   4
ENDBRANCH   2   3
BRANCH   2  15
ATOM     15  O   UNL     1       7.669   5.594  16.693  0.00  0.00    +0.000 OA
BRANCH  15  16
ATOM     16  C   UNL     1       6.548   4.802  16.256  0.00  0.00    +0.000 C 
BRANCH  16  17
ATOM     17  C   UNL     1       5.307   5.688  16.144  0.00  0.00    +0.000 C 
ATOM     18  O   UNL     1       5.175   6.529  15.252  0.00  0.00    +0.000 OA
BRANCH  17  19
ATOM     19  C   UNL     1       4.206   5.524  17.135  0.00  0.00    +0.000 A 
ATOM     20  C   UNL     1       3.638   4.250  17.295  0.00  0.00    +0.000 A 
ATOM     21  C   UNL     1       2.583   4.053  18.186  0.00  0.00    +0.000 A 
ATOM     22  C   UNL     1       2.089   5.129  18.923  0.00  0.00    +0.000 A 
ATOM     23  C   UNL     1       2.657   6.392  18.768  0.00  0.00    +0.000 A 
ATOM     24 CL   UNL     1       2.030   7.723  19.659  0.00  0.00    +0.000 Cl
ATOM     25  C   UNL     1       3.713   6.599  17.879  0.00  0.00    +0.000 A 
ENDBRANCH  17  19
ENDBRANCH  16  17
ENDBRANCH  15  16
ENDBRANCH   2  15
TORSDOF 8
ENDMDL
MODEL 8
REMARK VINA RESULT:      -7.1      2.743      6.323
REMARK  Name = 
REMARK  8 active torsions:
REMARK  status: ('A' for Active; 'I' for Inactive)
REMARK    1  A    between atoms: C_2  and  C_3
REMARK    2  A    between atoms: C_2  and  O_14
REMARK    3  A    between atoms: C_3  and  C_4
REMARK    4  A    between atoms: C_4  and  N_5
REMARK    5  A    between atoms: C_6  and  C_8
REMARK    6  A    between atoms: O_14  and  C_15
REMARK    7  A    between atoms: C_15  and  C_16
REMARK    8  A    between atoms: C_16  and  C_18
REMARK                            x       y       z     vdW  Elec       q    Type
REMARK                         _______ _______ _______ _____ _____    ______ ____
ROOT
ATOM      1  O   UNL     1       1.386   3.986  17.653  0.00  0.00    +0.000 OA
ATOM      2  C   UNL     1       1.801   3.358  18.605  0.00  0.00    +0.000 C 
ENDROOT
BRANCH   2   3
ATOM      3  C   UNL     1       2.113   1.863  18.541  0.00  0.00    +0.000 C 
BRANCH   3   4
ATOM      4  C   UNL     1       3.543   1.591  18.092  0.00  0.00    +0.000 C 
BRANCH   4   5
ATOM      5  N   UNL     1       4.252   2.788  17.675  0.00  0.00    +0.000 N 
ATOM      6  C   UNL     1       5.096   3.441  18.554  0.00  0.00    +0.000 C 
ATOM      7  O   UNL     1       5.301   3.055  19.699  0.00  0.00    +0.000 OA
ATOM      8  H   UNL     1       4.231   3.063  16.702  0.00  0.00    +0.000 HD
BRANCH   6   9
ATOM      9  C   UNL     1       5.784   4.651  18.034  0.00  0.00    +0.000 A 
ATOM     10  C   UNL     1       6.891   5.159  18.721  0.00  0.00    +0.000 A 
ATOM     11  C   UNL     1       7.509   6.330  18.289  0.00  0.00    +0.000 A 
ATOM     12  C   UNL     1       7.026   6.997  17.162  0.00  0.00    +0.000 A 
ATOM     13  C   UNL     1       5.930   6.489  16.463  0.00  0.00    +0.000 A 
ATOM     14  C   UNL     1       5.310   5.312  16.892  0.00  0.00    +0.000 A 
ENDBRANCH   6   9
ENDBRANCH   4   5
ENDBRANCH   3   4
ENDBRANCH   2   3
BRANCH   2  15
ATOM     15  O   UNL     1       2.072   3.911  19.833  0.00  0.00    +0.000 OA
BRANCH  15  16
ATOM     16  C   UNL     1       1.527   5.207  20.150  0.00  0.00    +0.000 C 
BRANCH  16  17
ATOM     17  C   UNL     1       2.560   6.289  19.830  0.00  0.00    +0.000 C 
ATOM     18  O   UNL     1       3.774   6.090  19.923  0.00  0.00    +0.000 OA
BRANCH  17  19
ATOM     19  C   UNL     1       2.090   7.627  19.373  0.00  0.00    +0.000 A 
ATOM     20  C   UNL     1       2.559   8.113  18.142  0.00  0.00    +0.000 A 
ATOM     21  C   UNL     1       2.174   9.374  17.687  0.00  0.00    +0.000 A 
ATOM     22  C   UNL     1       1.319  10.157  18.460  0.00  0.00    +0.000 A 
ATOM     23  C   UNL     1       0.850   9.672  19.680  0.00  0.00    +0.000 A 
ATOM     24 CL   UNL     1      -0.186  10.651  20.644  0.00  0.00    +0.000 Cl
ATOM     25  C   UNL     1       1.229   8.412  20.143  0.00  0.00    +0.000 A 
ENDBRANCH  17  19
ENDBRANCH  16  17
ENDBRANCH  15  16
ENDBRANCH   2  15
TORSDOF 8
ENDMDL
MODEL 9
REMARK VINA RESULT:      -7.1      2.228      3.106
REMARK  Name = 
REMARK  8 active torsions:
REMARK  status: ('A' for Active; 'I' for Inactive)
REMARK    1  A    between atoms: C_2  and  C_3
REMARK    2  A    between atoms: C_2  and  O_14
REMARK    3  A    between atoms: C_3  and  C_4
REMARK    4  A    between atoms: C_4  and  N_5
REMARK    5  A    between atoms: C_6  and  C_8
REMARK    6  A    between atoms: O_14  and  C_15
REMARK    7  A    between atoms: C_15  and  C_16
REMARK    8  A    between atoms: C_16  and  C_18
REMARK                            x       y       z     vdW  Elec       q    Type
REMARK                         _______ _______ _______ _____ _____    ______ ____
ROOT
ATOM      1  O   UNL     1       0.962   3.386  17.682  0.00  0.00    +0.000 OA
ATOM      2  C   UNL     1       1.761   2.612  18.167  0.00  0.00    +0.000 C 
ENDROOT
BRANCH   2   3
ATOM      3  C   UNL     1       1.644   2.086  19.597  0.00  0.00    +0.000 C 
BRANCH   3   4
ATOM      4  C   UNL     1       0.895   3.052  20.507  0.00  0.00    +0.000 C 
BRANCH   4   5
ATOM      5  N   UNL     1       0.927   4.425  20.037  0.00  0.00    +0.000 N 
ATOM      6  C   UNL     1       1.822   5.328  20.579  0.00  0.00    +0.000 C 
ATOM      7  O   UNL     1       2.627   5.032  21.455  0.00  0.00    +0.000 OA
ATOM      8  H   UNL     1       0.388   4.682  19.220  0.00  0.00    +0.000 HD
BRANCH   6   9
ATOM      9  C   UNL     1       1.786   6.708  20.027  0.00  0.00    +0.000 A 
ATOM     10  C   UNL     1       1.339   7.758  20.835  0.00  0.00    +0.000 A 
ATOM     11  C   UNL     1       1.234   9.046  20.316  0.00  0.00    +0.000 A 
ATOM     12  C   UNL     1       1.583   9.293  18.988  0.00  0.00    +0.000 A 
ATOM     13  C   UNL     1       2.043   8.253  18.179  0.00  0.00    +0.000 A 
ATOM     14  C   UNL     1       2.153   6.959  18.697  0.00  0.00    +0.000 A 
ENDBRANCH   6   9
ENDBRANCH   4   5
ENDBRANCH   3   4
ENDBRANCH   2   3
BRANCH   2  15
ATOM     15  O   UNL     1       2.839   2.094  17.491  0.00  0.00    +0.000 OA
BRANCH  15  16
ATOM     16  C   UNL     1       4.088   1.931  18.190  0.00  0.00    +0.000 C 
BRANCH  16  17
ATOM     17  C   UNL     1       4.732   3.300  18.416  0.00  0.00    +0.000 C 
ATOM     18  O   UNL     1       5.024   3.714  19.540  0.00  0.00    +0.000 OA
BRANCH  17  19
ATOM     19  C   UNL     1       5.034   4.161  17.238  0.00  0.00    +0.000 A 
ATOM     20  C   UNL     1       4.807   5.542  17.347  0.00  0.00    +0.000 A 
ATOM     21  C   UNL     1       5.044   6.385  16.260  0.00  0.00    +0.000 A 
ATOM     22  C   UNL     1       5.508   5.852  15.058  0.00  0.00    +0.000 A 
ATOM     23  C   UNL     1       5.737   4.480  14.953  0.00  0.00    +0.000 A 
ATOM     24 CL   UNL     1       6.286   3.822  13.462  0.00  0.00    +0.000 Cl
ATOM     25  C   UNL     1       5.504   3.630  16.033  0.00  0.00    +0.000 A 
ENDBRANCH  17  19
ENDBRANCH  16  17
ENDBRANCH  15  16
ENDBRANCH   2  15
TORSDOF 8
ENDMDL
