MODEL 1
REMARK VINA RESULT:      -7.6      0.000      0.000
REMARK  Name = 
REMARK  15 active torsions:
REMARK  status: ('A' for Active; 'I' for Inactive)
REMARK    1  A    between atoms: C_1  and  C_2
REMARK    2  A    between atoms: C_5  and  C_6
REMARK    3  A    between atoms: C_6  and  C_7
REMARK    4  A    between atoms: C_6  and  C_8
REMARK    5  A    between atoms: C_8  and  C_9
REMARK    6  A    between atoms: C_9  and  C_10
REMARK    7  A    between atoms: C_10  and  C_12
REMARK    8  A    between atoms: C_12  and  C_13
REMARK    9  A    between atoms: C_14  and  C_15
REMARK   10  A    between atoms: C_15  and  C_16
REMARK   11  A    between atoms: C_16  and  C_17
REMARK   12  A    between atoms: C_17  and  C_18
REMARK   13  A    between atoms: C_19  and  C_20
REMARK   14  A    between atoms: C_20  and  C_21
REMARK   15  A    between atoms: C_21  and  C_22
REMARK                            x       y       z     vdW  Elec       q    Type
REMARK                         _______ _______ _______ _____ _____    ______ ____
ROOT
ATOM      1  C   UNL     1       7.524   6.712  17.648  0.00  0.00    +0.000 C 
ATOM      2  C   UNL     1       7.928   6.069  18.946  0.00  0.00    +0.000 C 
ATOM      3  C   UNL     1       7.749   8.016  17.397  0.00  0.00    +0.000 C 
ENDROOT
BRANCH   1   4
ATOM      4  C   UNL     1       6.847   5.845  16.621  0.00  0.00    +0.000 C 
ATOM      5  O   UNL     1       7.500   5.031  15.970  0.00  0.00    +0.000 OA
BRANCH   4   6
ATOM      6  C   UNL     1       5.351   6.021  16.420  0.00  0.00    +0.000 C 
BRANCH   6   7
ATOM      7  C   UNL     1       4.644   6.646  17.619  0.00  0.00    +0.000 C 
BRANCH   7   8
ATOM      8  C   UNL     1       3.267   6.001  17.878  0.00  0.00    +0.000 C 
ATOM      9  C   UNL     1       3.381   4.469  17.858  0.00  0.00    +0.000 C 
BRANCH   8  14
ATOM     10  C   UNL     1       0.596  10.965  18.801  0.00  0.00    +0.000 C 
ATOM     11  C   UNL     1       1.141   9.670  19.262  0.00  0.00    +0.000 C 
ATOM     12  C   UNL     1       1.831   8.742  18.600  0.00  0.00    +0.000 C 
ATOM     13  C   UNL     1       2.107   7.650  19.473  0.00  0.00    +0.000 C 
ATOM     14  C   UNL     1       2.713   6.485  19.206  0.00  0.00    +0.000 C 
ATOM     15  O   UNL     1       1.611   7.938  20.746  0.00  0.00    +0.000 OA
ATOM     16  C   UNL     1       0.991   9.160  20.633  0.00  0.00    +0.000 C 
ATOM     17  O   UNL     1       0.407   9.739  21.526  0.00  0.00    +0.000 OA
ENDBRANCH   8  14
ENDBRANCH   7   8
ENDBRANCH   6   7
ENDBRANCH   4   6
ENDBRANCH   1   4
BRANCH   3  18
ATOM     18  C   UNL     1       8.398   8.939  18.388  0.00  0.00    +0.000 C 
BRANCH  18  19
ATOM     19  C   UNL     1       8.881  10.244  17.749  0.00  0.00    +0.000 C 
BRANCH  19  20
ATOM     20  C   UNL     1       9.734  11.051  18.700  0.00  0.00    +0.000 C 
ATOM     21  C   UNL     1      10.846  11.886  18.114  0.00  0.00    +0.000 C 
ATOM     22  C   UNL     1       9.485  11.046  20.027  0.00  0.00    +0.000 C 
BRANCH  22  23
ATOM     23  C   UNL     1      10.279  11.854  21.016  0.00  0.00    +0.000 C 
BRANCH  23  24
ATOM     24  C   UNL     1       9.679  13.232  21.299  0.00  0.00    +0.000 C 
BRANCH  24  25
ATOM     25  C   UNL     1       8.533  13.128  22.249  0.00  0.00    +0.000 A 
ATOM     26  C   UNL     1       7.223  13.661  22.091  0.00  0.00    +0.000 A 
ATOM     27  C   UNL     1       6.529  13.333  23.232  0.00  0.00    +0.000 A 
ATOM     28  O   UNL     1       7.325  12.645  24.089  0.00  0.00    +0.000 OA
ATOM     29  C   UNL     1       8.536  12.526  23.491  0.00  0.00    +0.000 A 
ENDBRANCH  24  25
ENDBRANCH  23  24
ENDBRANCH  22  23
ENDBRANCH  19  20
ENDBRANCH  18  19
ENDBRANCH   3  18
TORSDOF 11
ENDMDL
MODEL 2
REMARK VINA RESULT:      -7.6      3.453      4.579
REMARK  Name = 
REMARK  15 active torsions:
REMARK  status: ('A' for Active; 'I' for Inactive)
REMARK    1  A    between atoms: C_1  and  C_2
REMARK    2  A    between atoms: C_5  and  C_6
REMARK    3  A    between atoms: C_6  and  C_7
REMARK    4  A    between atoms: C_6  and  C_8
REMARK    5  A    between atoms: C_8  and  C_9
REMARK    6  A    between atoms: C_9  and  C_10
REMARK    7  A    between atoms: C_10  and  C_12
REMARK    8  A    between atoms: C_12  and  C_13
REMARK    9  A    between atoms: C_14  and  C_15
REMARK   10  A    between atoms: C_15  and  C_16
REMARK   11  A    between atoms: C_16  and  C_17
REMARK   12  A    between atoms: C_17  and  C_18
REMARK   13  A    between atoms: C_19  and  C_20
REMARK   14  A    between atoms: C_20  and  C_21
REMARK   15  A    between atoms: C_21  and  C_22
REMARK                            x       y       z     vdW  Elec       q    Type
REMARK                         _______ _______ _______ _____ _____    ______ ____
ROOT
ATOM      1  C   UNL     1       7.814   6.146  18.390  0.00  0.00    +0.000 C 
ATOM      2  C   UNL     1       8.313   5.813  19.769  0.00  0.00    +0.000 C 
ATOM      3  C   UNL     1       7.877   7.396  17.891  0.00  0.00    +0.000 C 
ENDROOT
BRANCH   1   4
ATOM      4  C   UNL     1       7.230   5.028  17.570  0.00  0.00    +0.000 C 
ATOM      5  O   UNL     1       7.906   4.480  16.700  0.00  0.00    +0.000 OA
BRANCH   4   6
ATOM      6  C   UNL     1       5.794   4.618  17.850  0.00  0.00    +0.000 C 
BRANCH   6   7
ATOM      7  C   UNL     1       5.054   5.584  18.771  0.00  0.00    +0.000 C 
BRANCH   7   8
ATOM      8  C   UNL     1       3.862   6.258  18.061  0.00  0.00    +0.000 C 
ATOM      9  C   UNL     1       4.346   7.048  16.835  0.00  0.00    +0.000 C 
BRANCH   8  14
ATOM     10  C   UNL     1       1.287   2.559  21.570  0.00  0.00    +0.000 C 
ATOM     11  C   UNL     1       1.535   3.131  20.229  0.00  0.00    +0.000 C 
ATOM     12  C   UNL     1       2.389   4.077  19.841  0.00  0.00    +0.000 C 
ATOM     13  C   UNL     1       2.234   4.306  18.444  0.00  0.00    +0.000 C 
ATOM     14  C   UNL     1       2.840   5.210  17.662  0.00  0.00    +0.000 C 
ATOM     15  O   UNL     1       1.278   3.425  17.933  0.00  0.00    +0.000 OA
ATOM     16  C   UNL     1       0.816   2.714  19.016  0.00  0.00    +0.000 C 
ATOM     17  O   UNL     1      -0.052   1.865  18.983  0.00  0.00    +0.000 OA
ENDBRANCH   8  14
ENDBRANCH   7   8
ENDBRANCH   6   7
ENDBRANCH   4   6
ENDBRANCH   1   4
BRANCH   3  18
ATOM     18  C   UNL     1       8.425   8.559  18.667  0.00  0.00    +0.000 C 
BRANCH  18  19
ATOM     19  C   UNL     1       8.524   9.834  17.825  0.00  0.00    +0.000 C 
BRANCH  19  20
ATOM     20  C   UNL     1       9.272  10.928  18.551  0.00  0.00    +0.000 C 
ATOM     21  C   UNL     1       9.572  10.724  20.016  0.00  0.00    +0.000 C 
ATOM     22  C   UNL     1       9.684  12.036  17.898  0.00  0.00    +0.000 C 
BRANCH  22  23
ATOM     23  C   UNL     1      10.460  13.141  18.560  0.00  0.00    +0.000 C 
BRANCH  23  24
ATOM     24  C   UNL     1       9.635  14.405  18.803  0.00  0.00    +0.000 C 
BRANCH  24  25
ATOM     25  C   UNL     1      10.403  15.623  18.412  0.00  0.00    +0.000 A 
ATOM     26  C   UNL     1      10.568  16.163  17.106  0.00  0.00    +0.000 A 
ATOM     27  C   UNL     1      11.373  17.269  17.240  0.00  0.00    +0.000 A 
ATOM     28  O   UNL     1      11.726  17.443  18.540  0.00  0.00    +0.000 OA
ATOM     29  C   UNL     1      11.138  16.444  19.243  0.00  0.00    +0.000 A 
ENDBRANCH  24  25
ENDBRANCH  23  24
ENDBRANCH  22  23
ENDBRANCH  19  20
ENDBRANCH  18  19
ENDBRANCH   3  18
TORSDOF 11
ENDMDL
MODEL 3
REMARK VINA RESULT:      -7.5      4.589      8.669
REMARK  Name = 
REMARK  15 active torsions:
REMARK  status: ('A' for Active; 'I' for Inactive)
REMARK    1  A    between atoms: C_1  and  C_2
REMARK    2  A    between atoms: C_5  and  C_6
REMARK    3  A    between atoms: C_6  and  C_7
REMARK    4  A    between atoms: C_6  and  C_8
REMARK    5  A    between atoms: C_8  and  C_9
REMARK    6  A    between atoms: C_9  and  C_10
REMARK    7  A    between atoms: C_10  and  C_12
REMARK    8  A    between atoms: C_12  and  C_13
REMARK    9  A    between atoms: C_14  and  C_15
REMARK   10  A    between atoms: C_15  and  C_16
REMARK   11  A    between atoms: C_16  and  C_17
REMARK   12  A    between atoms: C_17  and  C_18
REMARK   13  A    between atoms: C_19  and  C_20
REMARK   14  A    between atoms: C_20  and  C_21
REMARK   15  A    between atoms: C_21  and  C_22
REMARK                            x       y       z     vdW  Elec       q    Type
REMARK                         _______ _______ _______ _____ _____    ______ ____
ROOT
ATOM      1  C   UNL     1       1.906   5.226  18.770  0.00  0.00    +0.000 C 
ATOM      2  C   UNL     1       1.645   5.401  20.241  0.00  0.00    +0.000 C 
ATOM      3  C   UNL     1       2.514   6.177  18.036  0.00  0.00    +0.000 C 
ENDROOT
BRANCH   1   4
ATOM      4  C   UNL     1       1.458   3.940  18.130  0.00  0.00    +0.000 C 
ATOM      5  O   UNL     1       0.514   3.937  17.341  0.00  0.00    +0.000 OA
BRANCH   4   6
ATOM      6  C   UNL     1       2.203   2.668  18.499  0.00  0.00    +0.000 C 
BRANCH   6   7
ATOM      7  C   UNL     1       2.756   2.677  19.921  0.00  0.00    +0.000 C 
BRANCH   7   8
ATOM      8  C   UNL     1       4.279   2.922  19.947  0.00  0.00    +0.000 C 
ATOM      9  C   UNL     1       5.008   1.705  20.538  0.00  0.00    +0.000 C 
BRANCH   8  14
ATOM     10  C   UNL     1       7.974   7.027  18.492  0.00  0.00    +0.000 C 
ATOM     11  C   UNL     1       7.074   5.903  18.158  0.00  0.00    +0.000 C 
ATOM     12  C   UNL     1       6.257   5.194  18.936  0.00  0.00    +0.000 C 
ATOM     13  C   UNL     1       5.617   4.189  18.155  0.00  0.00    +0.000 C 
ATOM     14  C   UNL     1       4.776   3.222  18.544  0.00  0.00    +0.000 C 
ATOM     15  O   UNL     1       6.015   4.315  16.822  0.00  0.00    +0.000 OA
ATOM     16  C   UNL     1       6.930   5.343  16.806  0.00  0.00    +0.000 C 
ATOM     17  O   UNL     1       7.530   5.736  15.827  0.00  0.00    +0.000 OA
ENDBRANCH   8  14
ENDBRANCH   7   8
ENDBRANCH   6   7
ENDBRANCH   4   6
ENDBRANCH   1   4
BRANCH   3  18
ATOM     18  C   UNL     1       2.963   7.490  18.610  0.00  0.00    +0.000 C 
BRANCH  18  19
ATOM     19  C   UNL     1       2.300   8.689  17.925  0.00  0.00    +0.000 C 
BRANCH  19  20
ATOM     20  C   UNL     1       1.158   9.241  18.745  0.00  0.00    +0.000 C 
ATOM     21  C   UNL     1       1.229   9.090  20.244  0.00  0.00    +0.000 C 
ATOM     22  C   UNL     1       0.123   9.875  18.152  0.00  0.00    +0.000 C 
BRANCH  22  23
ATOM     23  C   UNL     1      -1.024  10.472  18.919  0.00  0.00    +0.000 C 
BRANCH  23  24
ATOM     24  C   UNL     1      -1.608  11.726  18.267  0.00  0.00    +0.000 C 
BRANCH  24  25
ATOM     25  C   UNL     1      -2.719  11.372  17.335  0.00  0.00    +0.000 A 
ATOM     26  C   UNL     1      -2.613  10.933  15.985  0.00  0.00    +0.000 A 
ATOM     27  C   UNL     1      -3.898  10.758  15.531  0.00  0.00    +0.000 A 
ATOM     28  O   UNL     1      -4.792  11.069  16.505  0.00  0.00    +0.000 OA
ATOM     29  C   UNL     1      -4.072  11.442  17.593  0.00  0.00    +0.000 A 
ENDBRANCH  24  25
ENDBRANCH  23  24
ENDBRANCH  22  23
ENDBRANCH  19  20
ENDBRANCH  18  19
ENDBRANCH   3  18
TORSDOF 11
ENDMDL
MODEL 4
REMARK VINA RESULT:      -7.5      4.963      8.582
REMARK  Name = 
REMARK  15 active torsions:
REMARK  status: ('A' for Active; 'I' for Inactive)
REMARK    1  A    between atoms: C_1  and  C_2
REMARK    2  A    between atoms: C_5  and  C_6
REMARK    3  A    between atoms: C_6  and  C_7
REMARK    4  A    between atoms: C_6  and  C_8
REMARK    5  A    between atoms: C_8  and  C_9
REMARK    6  A    between atoms: C_9  and  C_10
REMARK    7  A    between atoms: C_10  and  C_12
REMARK    8  A    between atoms: C_12  and  C_13
REMARK    9  A    between atoms: C_14  and  C_15
REMARK   10  A    between atoms: C_15  and  C_16
REMARK   11  A    between atoms: C_16  and  C_17
REMARK   12  A    between atoms: C_17  and  C_18
REMARK   13  A    between atoms: C_19  and  C_20
REMARK   14  A    between atoms: C_20  and  C_21
REMARK   15  A    between atoms: C_21  and  C_22
REMARK                            x       y       z     vdW  Elec       q    Type
REMARK                         _______ _______ _______ _____ _____    ______ ____
ROOT
ATOM      1  C   UNL     1       2.970   3.244  17.898  0.00  0.00    +0.000 C 
ATOM      2  C   UNL     1       2.218   4.330  17.180  0.00  0.00    +0.000 C 
ATOM      3  C   UNL     1       2.340   2.290  18.611  0.00  0.00    +0.000 C 
ENDROOT
BRANCH   1   4
ATOM      4  C   UNL     1       4.472   3.252  17.799  0.00  0.00    +0.000 C 
ATOM      5  O   UNL     1       5.037   2.634  16.898  0.00  0.00    +0.000 OA
BRANCH   4   6
ATOM      6  C   UNL     1       5.247   4.035  18.846  0.00  0.00    +0.000 C 
BRANCH   6   7
ATOM      7  C   UNL     1       6.096   5.159  18.261  0.00  0.00    +0.000 C 
BRANCH   7   8
ATOM      8  C   UNL     1       5.490   5.722  16.959  0.00  0.00    +0.000 C 
ATOM      9  C   UNL     1       4.983   7.156  17.179  0.00  0.00    +0.000 C 
BRANCH   8  14
ATOM     10  C   UNL     1       4.912   3.090  11.922  0.00  0.00    +0.000 C 
ATOM     11  C   UNL     1       5.685   3.890  12.896  0.00  0.00    +0.000 C 
ATOM     12  C   UNL     1       5.384   4.256  14.142  0.00  0.00    +0.000 C 
ATOM     13  C   UNL     1       6.442   5.052  14.667  0.00  0.00    +0.000 C 
ATOM     14  C   UNL     1       6.524   5.678  15.848  0.00  0.00    +0.000 C 
ATOM     15  O   UNL     1       7.469   5.138  13.724  0.00  0.00    +0.000 OA
ATOM     16  C   UNL     1       7.014   4.455  12.620  0.00  0.00    +0.000 C 
ATOM     17  O   UNL     1       7.615   4.331  11.572  0.00  0.00    +0.000 OA
ENDBRANCH   8  14
ENDBRANCH   7   8
ENDBRANCH   6   7
ENDBRANCH   4   6
ENDBRANCH   1   4
BRANCH   3  18
ATOM     18  C   UNL     1       0.847   2.240  18.768  0.00  0.00    +0.000 C 
BRANCH  18  19
ATOM     19  C   UNL     1       0.392   2.598  20.186  0.00  0.00    +0.000 C 
BRANCH  19  20
ATOM     20  C   UNL     1       1.171   3.764  20.747  0.00  0.00    +0.000 C 
ATOM     21  C   UNL     1       2.249   3.468  21.761  0.00  0.00    +0.000 C 
ATOM     22  C   UNL     1       0.928   5.025  20.329  0.00  0.00    +0.000 C 
BRANCH  22  23
ATOM     23  C   UNL     1       1.694   6.219  20.828  0.00  0.00    +0.000 C 
BRANCH  23  24
ATOM     24  C   UNL     1       2.497   6.928  19.737  0.00  0.00    +0.000 C 
BRANCH  24  25
ATOM     25  C   UNL     1       1.833   8.201  19.331  0.00  0.00    +0.000 A 
ATOM     26  C   UNL     1       1.839   8.812  18.046  0.00  0.00    +0.000 A 
ATOM     27  C   UNL     1       1.119   9.977  18.165  0.00  0.00    +0.000 A 
ATOM     28  O   UNL     1       0.677  10.133  19.439  0.00  0.00    +0.000 OA
ATOM     29  C   UNL     1       1.114   9.057  20.140  0.00  0.00    +0.000 A 
ENDBRANCH  24  25
ENDBRANCH  23  24
ENDBRANCH  22  23
ENDBRANCH  19  20
ENDBRANCH  18  19
ENDBRANCH   3  18
TORSDOF 11
ENDMDL
MODEL 5
REMARK VINA RESULT:      -7.4      3.800      4.747
REMARK  Name = 
REMARK  15 active torsions:
REMARK  status: ('A' for Active; 'I' for Inactive)
REMARK    1  A    between atoms: C_1  and  C_2
REMARK    2  A    between atoms: C_5  and  C_6
REMARK    3  A    between atoms: C_6  and  C_7
REMARK    4  A    between atoms: C_6  and  C_8
REMARK    5  A    between atoms: C_8  and  C_9
REMARK    6  A    between atoms: C_9  and  C_10
REMARK    7  A    between atoms: C_10  and  C_12
REMARK    8  A    between atoms: C_12  and  C_13
REMARK    9  A    between atoms: C_14  and  C_15
REMARK   10  A    between atoms: C_15  and  C_16
REMARK   11  A    between atoms: C_16  and  C_17
REMARK   12  A    between atoms: C_17  and  C_18
REMARK   13  A    between atoms: C_19  and  C_20
REMARK   14  A    between atoms: C_20  and  C_21
REMARK   15  A    between atoms: C_21  and  C_22
REMARK                            x       y       z     vdW  Elec       q    Type
REMARK                         _______ _______ _______ _____ _____    ______ ____
ROOT
ATOM      1  C   UNL     1       7.757   7.484  17.737  0.00  0.00    +0.000 C 
ATOM      2  C   UNL     1       8.207   6.684  18.928  0.00  0.00    +0.000 C 
ATOM      3  C   UNL     1       8.003   8.804  17.629  0.00  0.00    +0.000 C 
ENDROOT
BRANCH   1   4
ATOM      4  C   UNL     1       7.010   6.759  16.650  0.00  0.00    +0.000 C 
ATOM      5  O   UNL     1       7.610   6.011  15.879  0.00  0.00    +0.000 OA
BRANCH   4   6
ATOM      6  C   UNL     1       5.512   6.992  16.543  0.00  0.00    +0.000 C 
BRANCH   6   7
ATOM      7  C   UNL     1       4.692   6.140  17.507  0.00  0.00    +0.000 C 
BRANCH   7   8
ATOM      8  C   UNL     1       5.014   4.638  17.366  0.00  0.00    +0.000 C 
ATOM      9  C   UNL     1       5.748   4.129  18.617  0.00  0.00    +0.000 C 
BRANCH   8  14
ATOM     10  C   UNL     1       1.362   2.884  21.393  0.00  0.00    +0.000 C 
ATOM     11  C   UNL     1       1.803   2.987  19.985  0.00  0.00    +0.000 C 
ATOM     12  C   UNL     1       2.911   3.515  19.466  0.00  0.00    +0.000 C 
ATOM     13  C   UNL     1       2.866   3.402  18.047  0.00  0.00    +0.000 C 
ATOM     14  C   UNL     1       3.734   3.856  17.133  0.00  0.00    +0.000 C 
ATOM     15  O   UNL     1       1.702   2.727  17.673  0.00  0.00    +0.000 OA
ATOM     16  C   UNL     1       1.022   2.487  18.844  0.00  0.00    +0.000 C 
ATOM     17  O   UNL     1      -0.060   1.943  18.932  0.00  0.00    +0.000 OA
ENDBRANCH   8  14
ENDBRANCH   7   8
ENDBRANCH   6   7
ENDBRANCH   4   6
ENDBRANCH   1   4
BRANCH   3  18
ATOM     18  C   UNL     1       8.721   9.590  18.689  0.00  0.00    +0.000 C 
BRANCH  18  19
ATOM     19  C   UNL     1       8.783  11.087  18.371  0.00  0.00    +0.000 C 
BRANCH  19  20
ATOM     20  C   UNL     1      10.167  11.650  18.594  0.00  0.00    +0.000 C 
ATOM     21  C   UNL     1      10.826  11.393  19.927  0.00  0.00    +0.000 C 
ATOM     22  C   UNL     1      10.802  12.335  17.619  0.00  0.00    +0.000 C 
BRANCH  22  23
ATOM     23  C   UNL     1      12.191  12.890  17.773  0.00  0.00    +0.000 C 
BRANCH  23  24
ATOM     24  C   UNL     1      12.309  13.943  18.875  0.00  0.00    +0.000 C 
BRANCH  24  25
ATOM     25  C   UNL     1      11.801  15.265  18.404  0.00  0.00    +0.000 A 
ATOM     26  C   UNL     1      11.637  15.703  17.060  0.00  0.00    +0.000 A 
ATOM     27  C   UNL     1      11.169  16.994  17.126  0.00  0.00    +0.000 A 
ATOM     28  O   UNL     1      11.044  17.387  18.419  0.00  0.00    +0.000 OA
ATOM     29  C   UNL     1      11.430  16.338  19.187  0.00  0.00    +0.000 A 
ENDBRANCH  24  25
ENDBRANCH  23  24
ENDBRANCH  22  23
ENDBRANCH  19  20
ENDBRANCH  18  19
ENDBRANCH   3  18
TORSDOF 11
ENDMDL
MODEL 6
REMARK VINA RESULT:      -7.3      2.960      3.577
REMARK  Name = 
REMARK  15 active torsions:
REMARK  status: ('A' for Active; 'I' for Inactive)
REMARK    1  A    between atoms: C_1  and  C_2
REMARK    2  A    between atoms: C_5  and  C_6
REMARK    3  A    between atoms: C_6  and  C_7
REMARK    4  A    between atoms: C_6  and  C_8
REMARK    5  A    between atoms: C_8  and  C_9
REMARK    6  A    between atoms: C_9  and  C_10
REMARK    7  A    between atoms: C_10  and  C_12
REMARK    8  A    between atoms: C_12  and  C_13
REMARK    9  A    between atoms: C_14  and  C_15
REMARK   10  A    between atoms: C_15  and  C_16
REMARK   11  A    between atoms: C_16  and  C_17
REMARK   12  A    between atoms: C_17  and  C_18
REMARK   13  A    between atoms: C_19  and  C_20
REMARK   14  A    between atoms: C_20  and  C_21
REMARK   15  A    between atoms: C_21  and  C_22
REMARK                            x       y       z     vdW  Elec       q    Type
REMARK                         _______ _______ _______ _____ _____    ______ ____
ROOT
ATOM      1  C   UNL     1       7.453   7.434  17.938  0.00  0.00    +0.000 C 
ATOM      2  C   UNL     1       8.002   6.466  18.949  0.00  0.00    +0.000 C 
ATOM      3  C   UNL     1       7.878   8.710  17.868  0.00  0.00    +0.000 C 
ENDROOT
BRANCH   1   4
ATOM      4  C   UNL     1       6.396   6.931  16.992  0.00  0.00    +0.000 C 
ATOM      5  O   UNL     1       6.522   7.095  15.779  0.00  0.00    +0.000 OA
BRANCH   4   6
ATOM      6  C   UNL     1       5.185   6.233  17.589  0.00  0.00    +0.000 C 
BRANCH   6   7
ATOM      7  C   UNL     1       4.358   5.464  16.563  0.00  0.00    +0.000 C 
BRANCH   7   8
ATOM      8  C   UNL     1       4.703   3.961  16.553  0.00  0.00    +0.000 C 
ATOM      9  C   UNL     1       5.971   3.708  15.722  0.00  0.00    +0.000 C 
BRANCH   8  14
ATOM     10  C   UNL     1       0.561   3.307  20.431  0.00  0.00    +0.000 C 
ATOM     11  C   UNL     1       1.978   3.245  20.010  0.00  0.00    +0.000 C 
ATOM     12  C   UNL     1       2.551   3.607  18.863  0.00  0.00    +0.000 C 
ATOM     13  C   UNL     1       3.946   3.323  18.925  0.00  0.00    +0.000 C 
ATOM     14  C   UNL     1       4.881   3.464  17.976  0.00  0.00    +0.000 C 
ATOM     15  O   UNL     1       4.259   2.811  20.186  0.00  0.00    +0.000 OA
ATOM     16  C   UNL     1       3.062   2.729  20.859  0.00  0.00    +0.000 C 
ATOM     17  O   UNL     1       2.915   2.300  21.985  0.00  0.00    +0.000 OA
ENDBRANCH   8  14
ENDBRANCH   7   8
ENDBRANCH   6   7
ENDBRANCH   4   6
ENDBRANCH   1   4
BRANCH   3  18
ATOM     18  C   UNL     1       8.912   9.279  18.797  0.00  0.00    +0.000 C 
BRANCH  18  19
ATOM     19  C   UNL     1       9.510  10.590  18.280  0.00  0.00    +0.000 C 
BRANCH  19  20
ATOM     20  C   UNL     1       9.414  11.693  19.308  0.00  0.00    +0.000 C 
ATOM     21  C   UNL     1       8.981  13.060  18.837  0.00  0.00    +0.000 C 
ATOM     22  C   UNL     1       9.679  11.452  20.610  0.00  0.00    +0.000 C 
BRANCH  22  23
ATOM     23  C   UNL     1       9.568  12.501  21.681  0.00  0.00    +0.000 C 
BRANCH  23  24
ATOM     24  C   UNL     1       8.741  12.057  22.888  0.00  0.00    +0.000 C 
BRANCH  24  25
ATOM     25  C   UNL     1       7.371  12.645  22.839  0.00  0.00    +0.000 A 
ATOM     26  C   UNL     1       6.963  13.843  22.188  0.00  0.00    +0.000 A 
ATOM     27  C   UNL     1       5.620  13.986  22.443  0.00  0.00    +0.000 A 
ATOM     28  O   UNL     1       5.172  12.965  23.217  0.00  0.00    +0.000 OA
ATOM     29  C   UNL     1       6.236  12.158  23.456  0.00  0.00    +0.000 A 
ENDBRANCH  24  25
ENDBRANCH  23  24
ENDBRANCH  22  23
ENDBRANCH  19  20
ENDBRANCH  18  19
ENDBRANCH   3  18
TORSDOF 11
ENDMDL
MODEL 7
REMARK VINA RESULT:      -7.3      4.206      7.812
REMARK  Name = 
REMARK  15 active torsions:
REMARK  status: ('A' for Active; 'I' for Inactive)
REMARK    1  A    between atoms: C_1  and  C_2
REMARK    2  A    between atoms: C_5  and  C_6
REMARK    3  A    between atoms: C_6  and  C_7
REMARK    4  A    between atoms: C_6  and  C_8
REMARK    5  A    between atoms: C_8  and  C_9
REMARK    6  A    between atoms: C_9  and  C_10
REMARK    7  A    between atoms: C_10  and  C_12
REMARK    8  A    between atoms: C_12  and  C_13
REMARK    9  A    between atoms: C_14  and  C_15
REMARK   10  A    between atoms: C_15  and  C_16
REMARK   11  A    between atoms: C_16  and  C_17
REMARK   12  A    between atoms: C_17  and  C_18
REMARK   13  A    between atoms: C_19  and  C_20
REMARK   14  A    between atoms: C_20  and  C_21
REMARK   15  A    between atoms: C_21  and  C_22
REMARK                            x       y       z     vdW  Elec       q    Type
REMARK                         _______ _______ _______ _____ _____    ______ ____
ROOT
ATOM      1  C   UNL     1       1.895   5.098  20.311  0.00  0.00    +0.000 C 
ATOM      2  C   UNL     1       2.684   4.441  21.409  0.00  0.00    +0.000 C 
ATOM      3  C   UNL     1       1.031   4.408  19.542  0.00  0.00    +0.000 C 
ENDROOT
BRANCH   1   4
ATOM      4  C   UNL     1       2.103   6.572  20.088  0.00  0.00    +0.000 C 
ATOM      5  O   UNL     1       2.842   6.963  19.185  0.00  0.00    +0.000 OA
BRANCH   4   6
ATOM      6  C   UNL     1       1.381   7.537  21.013  0.00  0.00    +0.000 C 
BRANCH   6   7
ATOM      7  C   UNL     1       1.135   8.908  20.390  0.00  0.00    +0.000 C 
BRANCH   7   8
ATOM      8  C   UNL     1      -0.060   9.632  21.043  0.00  0.00    +0.000 C 
ATOM      9  C   UNL     1      -0.654   8.776  22.172  0.00  0.00    +0.000 C 
BRANCH   8  14
ATOM     10  C   UNL     1       2.458  13.758  17.999  0.00  0.00    +0.000 C 
ATOM     11  C   UNL     1       1.920  13.211  19.263  0.00  0.00    +0.000 C 
ATOM     12  C   UNL     1       1.415  12.009  19.535  0.00  0.00    +0.000 C 
ATOM     13  C   UNL     1       0.998  11.970  20.897  0.00  0.00    +0.000 C 
ATOM     14  C   UNL     1       0.381  10.987  21.566  0.00  0.00    +0.000 C 
ATOM     15  O   UNL     1       1.308  13.186  21.510  0.00  0.00    +0.000 OA
ATOM     16  C   UNL     1       1.849  13.972  20.520  0.00  0.00    +0.000 C 
ATOM     17  O   UNL     1       2.218  15.121  20.655  0.00  0.00    +0.000 OA
ENDBRANCH   8  14
ENDBRANCH   7   8
ENDBRANCH   6   7
ENDBRANCH   4   6
ENDBRANCH   1   4
BRANCH   3  18
ATOM     18  C   UNL     1       0.796   2.933  19.698  0.00  0.00    +0.000 C 
BRANCH  18  19
ATOM     19  C   UNL     1       1.219   2.136  18.461  0.00  0.00    +0.000 C 
BRANCH  19  20
ATOM     20  C   UNL     1       2.651   2.420  18.073  0.00  0.00    +0.000 C 
ATOM     21  C   UNL     1       3.726   1.530  18.645  0.00  0.00    +0.000 C 
ATOM     22  C   UNL     1       2.951   3.422  17.218  0.00  0.00    +0.000 C 
BRANCH  22  23
ATOM     23  C   UNL     1       4.353   3.731  16.772  0.00  0.00    +0.000 C 
BRANCH  23  24
ATOM     24  C   UNL     1       4.719   5.210  16.889  0.00  0.00    +0.000 C 
BRANCH  24  25
ATOM     25  C   UNL     1       5.792   5.413  17.906  0.00  0.00    +0.000 A 
ATOM     26  C   UNL     1       7.066   6.017  17.714  0.00  0.00    +0.000 A 
ATOM     27  C   UNL     1       7.713   5.954  18.926  0.00  0.00    +0.000 A 
ATOM     28  O   UNL     1       6.930   5.342  19.850  0.00  0.00    +0.000 OA
ATOM     29  C   UNL     1       5.770   5.015  19.227  0.00  0.00    +0.000 A 
ENDBRANCH  24  25
ENDBRANCH  23  24
ENDBRANCH  22  23
ENDBRANCH  19  20
ENDBRANCH  18  19
ENDBRANCH   3  18
TORSDOF 11
ENDMDL
MODEL 8
REMARK VINA RESULT:      -7.3      5.522      9.005
REMARK  Name = 
REMARK  15 active torsions:
REMARK  status: ('A' for Active; 'I' for Inactive)
REMARK    1  A    between atoms: C_1  and  C_2
REMARK    2  A    between atoms: C_5  and  C_6
REMARK    3  A    between atoms: C_6  and  C_7
REMARK    4  A    between atoms: C_6  and  C_8
REMARK    5  A    between atoms: C_8  and  C_9
REMARK    6  A    between atoms: C_9  and  C_10
REMARK    7  A    between atoms: C_10  and  C_12
REMARK    8  A    between atoms: C_12  and  C_13
REMARK    9  A    between atoms: C_14  and  C_15
REMARK   10  A    between atoms: C_15  and  C_16
REMARK   11  A    between atoms: C_16  and  C_17
REMARK   12  A    between atoms: C_17  and  C_18
REMARK   13  A    between atoms: C_19  and  C_20
REMARK   14  A    between atoms: C_20  and  C_21
REMARK   15  A    between atoms: C_21  and  C_22
REMARK                            x       y       z     vdW  Elec       q    Type
REMARK                         _______ _______ _______ _____ _____    ______ ____
ROOT
ATOM      1  C   UNL     1       2.097   8.361  18.664  0.00  0.00    +0.000 C 
ATOM      2  C   UNL     1       2.964   7.749  17.599  0.00  0.00    +0.000 C 
ATOM      3  C   UNL     1       1.849   7.734  19.830  0.00  0.00    +0.000 C 
ENDROOT
BRANCH   1   4
ATOM      4  C   UNL     1       1.501   9.715  18.387  0.00  0.00    +0.000 C 
ATOM      5  O   UNL     1       2.035  10.472  17.577  0.00  0.00    +0.000 OA
BRANCH   4   6
ATOM      6  C   UNL     1       0.242  10.104  19.143  0.00  0.00    +0.000 C 
BRANCH   6   7
ATOM      7  C   UNL     1       0.518  10.862  20.438  0.00  0.00    +0.000 C 
BRANCH   7   8
ATOM      8  C   UNL     1      -0.576  10.615  21.496  0.00  0.00    +0.000 C 
ATOM      9  C   UNL     1      -0.315   9.295  22.239  0.00  0.00    +0.000 C 
BRANCH   8  14
ATOM     10  C   UNL     1      -5.246  13.537  23.006  0.00  0.00    +0.000 C 
ATOM     11  C   UNL     1      -3.791  13.278  23.067  0.00  0.00    +0.000 C 
ATOM     12  C   UNL     1      -3.044  12.403  22.395  0.00  0.00    +0.000 C 
ATOM     13  C   UNL     1      -1.691  12.511  22.827  0.00  0.00    +0.000 C 
ATOM     14  C   UNL     1      -0.626  11.782  22.466  0.00  0.00    +0.000 C 
ATOM     15  O   UNL     1      -1.586  13.536  23.769  0.00  0.00    +0.000 OA
ATOM     16  C   UNL     1      -2.867  14.002  23.952  0.00  0.00    +0.000 C 
ATOM     17  O   UNL     1      -3.194  14.881  24.724  0.00  0.00    +0.000 OA
ENDBRANCH   8  14
ENDBRANCH   7   8
ENDBRANCH   6   7
ENDBRANCH   4   6
ENDBRANCH   1   4
BRANCH   3  18
ATOM     18  C   UNL     1       2.393   6.373  20.157  0.00  0.00    +0.000 C 
BRANCH  18  19
ATOM     19  C   UNL     1       1.373   5.490  20.883  0.00  0.00    +0.000 C 
BRANCH  19  20
ATOM     20  C   UNL     1       1.426   4.060  20.398  0.00  0.00    +0.000 C 
ATOM     21  C   UNL     1       1.486   2.966  21.436  0.00  0.00    +0.000 C 
ATOM     22  C   UNL     1       1.390   3.774  19.079  0.00  0.00    +0.000 C 
BRANCH  22  23
ATOM     23  C   UNL     1       1.407   2.370  18.540  0.00  0.00    +0.000 C 
BRANCH  23  24
ATOM     24  C   UNL     1       2.609   2.075  17.643  0.00  0.00    +0.000 C 
BRANCH  24  25
ATOM     25  C   UNL     1       3.683   3.091  17.843  0.00  0.00    +0.000 A 
ATOM     26  C   UNL     1       4.557   3.223  18.958  0.00  0.00    +0.000 A 
ATOM     27  C   UNL     1       5.353   4.314  18.702  0.00  0.00    +0.000 A 
ATOM     28  O   UNL     1       5.023   4.872  17.509  0.00  0.00    +0.000 OA
ATOM     29  C   UNL     1       4.011   4.129  16.995  0.00  0.00    +0.000 A 
ENDBRANCH  24  25
ENDBRANCH  23  24
ENDBRANCH  22  23
ENDBRANCH  19  20
ENDBRANCH  18  19
ENDBRANCH   3  18
TORSDOF 11
ENDMDL
MODEL 9
REMARK VINA RESULT:      -7.3      2.106      2.724
REMARK  Name = 
REMARK  15 active torsions:
REMARK  status: ('A' for Active; 'I' for Inactive)
REMARK    1  A    between atoms: C_1  and  C_2
REMARK    2  A    between atoms: C_5  and  C_6
REMARK    3  A    between atoms: C_6  and  C_7
REMARK    4  A    between atoms: C_6  and  C_8
REMARK    5  A    between atoms: C_8  and  C_9
REMARK    6  A    between atoms: C_9  and  C_10
REMARK    7  A    between atoms: C_10  and  C_12
REMARK    8  A    between atoms: C_12  and  C_13
REMARK    9  A    between atoms: C_14  and  C_15
REMARK   10  A    between atoms: C_15  and  C_16
REMARK   11  A    between atoms: C_16  and  C_17
REMARK   12  A    between atoms: C_17  and  C_18
REMARK   13  A    between atoms: C_19  and  C_20
REMARK   14  A    between atoms: C_20  and  C_21
REMARK   15  A    between atoms: C_21  and  C_22
REMARK                            x       y       z     vdW  Elec       q    Type
REMARK                         _______ _______ _______ _____ _____    ______ ____
ROOT
ATOM      1  C   UNL     1       6.879   6.667  17.292  0.00  0.00    +0.000 C 
ATOM      2  C   UNL     1       5.629   7.452  17.002  0.00  0.00    +0.000 C 
ATOM      3  C   UNL     1       8.007   7.257  17.731  0.00  0.00    +0.000 C 
ENDROOT
BRANCH   1   4
ATOM      4  C   UNL     1       6.835   5.179  17.073  0.00  0.00    +0.000 C 
ATOM      5  O   UNL     1       7.707   4.625  16.404  0.00  0.00    +0.000 OA
BRANCH   4   6
ATOM      6  C   UNL     1       5.684   4.404  17.693  0.00  0.00    +0.000 C 
BRANCH   6   7
ATOM      7  C   UNL     1       4.493   4.227  16.755  0.00  0.00    +0.000 C 
BRANCH   7   8
ATOM      8  C   UNL     1       3.267   3.641  17.484  0.00  0.00    +0.000 C 
ATOM      9  C   UNL     1       3.480   2.146  17.773  0.00  0.00    +0.000 C 
BRANCH   8  14
ATOM     10  C   UNL     1       1.667   9.110  17.869  0.00  0.00    +0.000 C 
ATOM     11  C   UNL     1       2.043   7.814  18.474  0.00  0.00    +0.000 C 
ATOM     12  C   UNL     1       2.454   6.684  17.900  0.00  0.00    +0.000 C 
ATOM     13  C   UNL     1       2.666   5.697  18.905  0.00  0.00    +0.000 C 
ATOM     14  C   UNL     1       3.014   4.410  18.768  0.00  0.00    +0.000 C 
ATOM     15  O   UNL     1       2.427   6.257  20.162  0.00  0.00    +0.000 OA
ATOM     16  C   UNL     1       2.017   7.547  19.919  0.00  0.00    +0.000 C 
ATOM     17  O   UNL     1       1.686   8.352  20.766  0.00  0.00    +0.000 OA
ENDBRANCH   8  14
ENDBRANCH   7   8
ENDBRANCH   6   7
ENDBRANCH   4   6
ENDBRANCH   1   4
BRANCH   3  18
ATOM     18  C   UNL     1       8.123   8.739  17.947  0.00  0.00    +0.000 C 
BRANCH  18  19
ATOM     19  C   UNL     1       8.922   9.090  19.205  0.00  0.00    +0.000 C 
BRANCH  19  20
ATOM     20  C   UNL     1       9.350  10.539  19.211  0.00  0.00    +0.000 C 
ATOM     21  C   UNL     1       9.561  11.217  17.879  0.00  0.00    +0.000 C 
ATOM     22  C   UNL     1       9.508  11.210  20.372  0.00  0.00    +0.000 C 
BRANCH  22  23
ATOM     23  C   UNL     1       9.900  12.660  20.438  0.00  0.00    +0.000 C 
BRANCH  23  24
ATOM     24  C   UNL     1       8.734  13.593  20.764  0.00  0.00    +0.000 C 
BRANCH  24  25
ATOM     25  C   UNL     1       8.587  14.646  19.716  0.00  0.00    +0.000 A 
ATOM     26  C   UNL     1       7.859  14.561  18.497  0.00  0.00    +0.000 A 
ATOM     27  C   UNL     1       8.037  15.762  17.853  0.00  0.00    +0.000 A 
ATOM     28  O   UNL     1       8.835  16.580  18.587  0.00  0.00    +0.000 OA
ATOM     29  C   UNL     1       9.166  15.898  19.712  0.00  0.00    +0.000 A 
ENDBRANCH  24  25
ENDBRANCH  23  24
ENDBRANCH  22  23
ENDBRANCH  19  20
ENDBRANCH  18  19
ENDBRANCH   3  18
TORSDOF 11
ENDMDL
