MODEL 1
REMARK VINA RESULT:      -7.4      0.000      0.000
REMARK  Name = 
REMARK  9 active torsions:
REMARK  status: ('A' for Active; 'I' for Inactive)
REMARK    1  A    between atoms: C_1  and  C_2
REMARK    2  A    between atoms: C_2  and  C_3
REMARK    3  A    between atoms: C_3  and  C_4
REMARK    4  A    between atoms: C_3  and  N_5
REMARK    5  A    between atoms: N_5  and  C_6
REMARK    6  A    between atoms: N_5  and  C_13
REMARK    7  A    between atoms: C_6  and  C_7
REMARK    8  A    between atoms: C_13  and  C_14
REMARK    9  A    between atoms: C_17  and  N_18
REMARK                            x       y       z     vdW  Elec       q    Type
REMARK                         _______ _______ _______ _____ _____    ______ ____
ROOT
ATOM      1  N   UNL     1       2.802   4.662  19.600  0.00  0.00    +0.000 NA
ENDROOT
BRANCH   1   2
ATOM      2  C   UNL     1       1.820   3.971  20.504  0.00  0.00    +0.000 C 
ATOM      3  C   UNL     1       2.414   2.843  21.372  0.00  0.00    +0.000 C 
BRANCH   2   5
ATOM      4  C   UNL     1       0.941   2.269  18.748  0.00  0.00    +0.000 C 
ATOM      5  C   UNL     1       0.596   3.348  19.769  0.00  0.00    +0.000 C 
ENDBRANCH   2   5
ENDBRANCH   1   2
BRANCH   1   6
ATOM      6  C   UNL     1       3.172   5.991  20.180  0.00  0.00    +0.000 C 
BRANCH   6   7
ATOM      7  C   UNL     1       2.435   7.169  19.575  0.00  0.00    +0.000 A 
ATOM      8  C   UNL     1       2.578   7.472  18.218  0.00  0.00    +0.000 A 
ATOM      9  C   UNL     1       1.948   8.602  17.722  0.00  0.00    +0.000 A 
ATOM     10  N   UNL     1       1.196   9.435  18.470  0.00  0.00    +0.000 NA
ATOM     11  C   UNL     1       1.058   9.121  19.776  0.00  0.00    +0.000 A 
ATOM     12  C   UNL     1       1.643   8.012  20.366  0.00  0.00    +0.000 A 
ENDBRANCH   6   7
ENDBRANCH   1   6
BRANCH   1  13
ATOM     13  C   UNL     1       4.066   3.894  19.411  0.00  0.00    +0.000 C 
BRANCH  13  14
ATOM     14  C   UNL     1       4.790   4.070  18.098  0.00  0.00    +0.000 A 
ATOM     15  C   UNL     1       6.153   4.397  18.051  0.00  0.00    +0.000 A 
ATOM     16  C   UNL     1       6.799   4.568  16.822  0.00  0.00    +0.000 A 
ATOM     17  C   UNL     1       6.089   4.399  15.626  0.00  0.00    +0.000 A 
ATOM     18  C   UNL     1       4.732   4.052  15.672  0.00  0.00    +0.000 A 
ATOM     19  C   UNL     1       4.097   3.869  16.898  0.00  0.00    +0.000 A 
BRANCH  17  20
ATOM     20  N   UNL     1       6.716   4.559  14.361  0.00  0.00    +0.000 N 
ATOM     21  C   UNL     1       6.436   3.905  13.180  0.00  0.00    +0.000 A 
ATOM     22  C   UNL     1       7.274   4.419  12.221  0.00  0.00    +0.000 A 
ATOM     23  C   UNL     1       8.047   5.366  12.902  0.00  0.00    +0.000 A 
ATOM     24  N   UNL     1       7.722   5.460  14.190  0.00  0.00    +0.000 NA
ENDBRANCH  17  20
ENDBRANCH  13  14
ENDBRANCH   1  13
TORSDOF 7
ENDMDL
MODEL 2
REMARK VINA RESULT:      -7.4      1.010      1.238
REMARK  Name = 
REMARK  9 active torsions:
REMARK  status: ('A' for Active; 'I' for Inactive)
REMARK    1  A    between atoms: C_1  and  C_2
REMARK    2  A    between atoms: C_2  and  C_3
REMARK    3  A    between atoms: C_3  and  C_4
REMARK    4  A    between atoms: C_3  and  N_5
REMARK    5  A    between atoms: N_5  and  C_6
REMARK    6  A    between atoms: N_5  and  C_13
REMARK    7  A    between atoms: C_6  and  C_7
REMARK    8  A    between atoms: C_13  and  C_14
REMARK    9  A    between atoms: C_17  and  N_18
REMARK                            x       y       z     vdW  Elec       q    Type
REMARK                         _______ _______ _______ _____ _____    ______ ____
ROOT
ATOM      1  N   UNL     1       2.389   5.695  19.340  0.00  0.00    +0.000 NA
ENDROOT
BRANCH   1   2
ATOM      2  C   UNL     1       1.461   4.572  19.709  0.00  0.00    +0.000 C 
ATOM      3  C   UNL     1       1.868   3.776  20.965  0.00  0.00    +0.000 C 
BRANCH   2   5
ATOM      4  C   UNL     1       1.557   2.079  18.982  0.00  0.00    +0.000 C 
ATOM      5  C   UNL     1       1.246   3.518  18.583  0.00  0.00    +0.000 C 
ENDBRANCH   2   5
ENDBRANCH   1   2
BRANCH   1   6
ATOM      6  C   UNL     1       2.224   6.825  20.306  0.00  0.00    +0.000 C 
BRANCH   6   7
ATOM      7  C   UNL     1       1.731   8.117  19.685  0.00  0.00    +0.000 A 
ATOM      8  C   UNL     1       2.081   8.450  18.372  0.00  0.00    +0.000 A 
ATOM      9  C   UNL     1       1.675   9.675  17.870  0.00  0.00    +0.000 A 
ATOM     10  N   UNL     1       0.953  10.575  18.569  0.00  0.00    +0.000 NA
ATOM     11  C   UNL     1       0.613  10.232  19.830  0.00  0.00    +0.000 A 
ATOM     12  C   UNL     1       0.967   9.030  20.422  0.00  0.00    +0.000 A 
ENDBRANCH   6   7
ENDBRANCH   1   6
BRANCH   1  13
ATOM     13  C   UNL     1       3.828   5.299  19.363  0.00  0.00    +0.000 C 
BRANCH  13  14
ATOM     14  C   UNL     1       4.512   5.106  18.032  0.00  0.00    +0.000 A 
ATOM     15  C   UNL     1       4.753   3.827  17.510  0.00  0.00    +0.000 A 
ATOM     16  C   UNL     1       5.399   3.674  16.279  0.00  0.00    +0.000 A 
ATOM     17  C   UNL     1       5.800   4.802  15.551  0.00  0.00    +0.000 A 
ATOM     18  C   UNL     1       5.541   6.081  16.062  0.00  0.00    +0.000 A 
ATOM     19  C   UNL     1       4.883   6.228  17.281  0.00  0.00    +0.000 A 
BRANCH  17  20
ATOM     20  N   UNL     1       6.454   4.681  14.295  0.00  0.00    +0.000 N 
ATOM     21  C   UNL     1       6.152   3.830  13.253  0.00  0.00    +0.000 A 
ATOM     22  C   UNL     1       7.032   4.103  12.236  0.00  0.00    +0.000 A 
ATOM     23  C   UNL     1       7.851   5.118  12.743  0.00  0.00    +0.000 A 
ATOM     24  N   UNL     1       7.514   5.474  13.981  0.00  0.00    +0.000 NA
ENDBRANCH  17  20
ENDBRANCH  13  14
ENDBRANCH   1  13
TORSDOF 7
ENDMDL
MODEL 3
REMARK VINA RESULT:      -7.3      1.080      1.587
REMARK  Name = 
REMARK  9 active torsions:
REMARK  status: ('A' for Active; 'I' for Inactive)
REMARK    1  A    between atoms: C_1  and  C_2
REMARK    2  A    between atoms: C_2  and  C_3
REMARK    3  A    between atoms: C_3  and  C_4
REMARK    4  A    between atoms: C_3  and  N_5
REMARK    5  A    between atoms: N_5  and  C_6
REMARK    6  A    between atoms: N_5  and  C_13
REMARK    7  A    between atoms: C_6  and  C_7
REMARK    8  A    between atoms: C_13  and  C_14
REMARK    9  A    between atoms: C_17  and  N_18
REMARK                            x       y       z     vdW  Elec       q    Type
REMARK                         _______ _______ _______ _____ _____    ______ ____
ROOT
ATOM      1  N   UNL     1       2.149   5.658  19.595  0.00  0.00    +0.000 NA
ENDROOT
BRANCH   1   2
ATOM      2  C   UNL     1       1.398   4.416  19.987  0.00  0.00    +0.000 C 
ATOM      3  C   UNL     1       2.109   3.524  21.024  0.00  0.00    +0.000 C 
BRANCH   2   5
ATOM      4  C   UNL     1       1.712   2.118  18.816  0.00  0.00    +0.000 C 
ATOM      5  C   UNL     1       1.031   3.482  18.796  0.00  0.00    +0.000 C 
ENDBRANCH   2   5
ENDBRANCH   1   2
BRANCH   1   6
ATOM      6  C   UNL     1       1.826   6.765  20.548  0.00  0.00    +0.000 C 
BRANCH   6   7
ATOM      7  C   UNL     1       1.619   8.117  19.893  0.00  0.00    +0.000 A 
ATOM      8  C   UNL     1       1.050   9.172  20.614  0.00  0.00    +0.000 A 
ATOM      9  C   UNL     1       0.806  10.367  19.957  0.00  0.00    +0.000 A 
ATOM     10  N   UNL     1       1.089  10.583  18.655  0.00  0.00    +0.000 NA
ATOM     11  C   UNL     1       1.650   9.558  17.978  0.00  0.00    +0.000 A 
ATOM     12  C   UNL     1       1.936   8.327  18.546  0.00  0.00    +0.000 A 
ENDBRANCH   6   7
ENDBRANCH   1   6
BRANCH   1  13
ATOM     13  C   UNL     1       3.630   5.477  19.612  0.00  0.00    +0.000 C 
BRANCH  13  14
ATOM     14  C   UNL     1       4.319   5.308  18.280  0.00  0.00    +0.000 A 
ATOM     15  C   UNL     1       4.517   6.394  17.414  0.00  0.00    +0.000 A 
ATOM     16  C   UNL     1       5.148   6.210  16.179  0.00  0.00    +0.000 A 
ATOM     17  C   UNL     1       5.599   4.938  15.803  0.00  0.00    +0.000 A 
ATOM     18  C   UNL     1       5.420   3.856  16.676  0.00  0.00    +0.000 A 
ATOM     19  C   UNL     1       4.805   4.047  17.912  0.00  0.00    +0.000 A 
BRANCH  17  20
ATOM     20  N   UNL     1       6.249   4.718  14.559  0.00  0.00    +0.000 N 
ATOM     21  C   UNL     1       5.855   3.896  13.524  0.00  0.00    +0.000 A 
ATOM     22  C   UNL     1       6.776   4.041  12.516  0.00  0.00    +0.000 A 
ATOM     23  C   UNL     1       7.710   4.952  13.023  0.00  0.00    +0.000 A 
ATOM     24  N   UNL     1       7.405   5.365  14.251  0.00  0.00    +0.000 NA
ENDBRANCH  17  20
ENDBRANCH  13  14
ENDBRANCH   1  13
TORSDOF 7
ENDMDL
MODEL 4
REMARK VINA RESULT:      -7.2      0.662      1.422
REMARK  Name = 
REMARK  9 active torsions:
REMARK  status: ('A' for Active; 'I' for Inactive)
REMARK    1  A    between atoms: C_1  and  C_2
REMARK    2  A    between atoms: C_2  and  C_3
REMARK    3  A    between atoms: C_3  and  C_4
REMARK    4  A    between atoms: C_3  and  N_5
REMARK    5  A    between atoms: N_5  and  C_6
REMARK    6  A    between atoms: N_5  and  C_13
REMARK    7  A    between atoms: C_6  and  C_7
REMARK    8  A    between atoms: C_13  and  C_14
REMARK    9  A    between atoms: C_17  and  N_18
REMARK                            x       y       z     vdW  Elec       q    Type
REMARK                         _______ _______ _______ _____ _____    ______ ____
ROOT
ATOM      1  N   UNL     1       2.826   4.729  19.291  0.00  0.00    +0.000 NA
ENDROOT
BRANCH   1   2
ATOM      2  C   UNL     1       2.124   3.447  19.637  0.00  0.00    +0.000 C 
ATOM      3  C   UNL     1       1.214   2.881  18.528  0.00  0.00    +0.000 C 
BRANCH   2   5
ATOM      4  C   UNL     1       1.596   2.509  22.003  0.00  0.00    +0.000 C 
ATOM      5  C   UNL     1       1.242   3.521  20.919  0.00  0.00    +0.000 C 
ENDBRANCH   2   5
ENDBRANCH   1   2
BRANCH   1   6
ATOM      6  C   UNL     1       2.529   5.764  20.330  0.00  0.00    +0.000 C 
BRANCH   6   7
ATOM      7  C   UNL     1       2.094   7.106  19.774  0.00  0.00    +0.000 A 
ATOM      8  C   UNL     1       2.393   7.456  18.454  0.00  0.00    +0.000 A 
ATOM      9  C   UNL     1       2.046   8.721  18.010  0.00  0.00    +0.000 A 
ATOM     10  N   UNL     1       1.429   9.646  18.775  0.00  0.00    +0.000 NA
ATOM     11  C   UNL     1       1.137   9.287  20.043  0.00  0.00    +0.000 A 
ATOM     12  C   UNL     1       1.438   8.045  20.580  0.00  0.00    +0.000 A 
ENDBRANCH   6   7
ENDBRANCH   1   6
BRANCH   1  13
ATOM     13  C   UNL     1       4.310   4.585  19.221  0.00  0.00    +0.000 C 
BRANCH  13  14
ATOM     14  C   UNL     1       4.938   4.584  17.849  0.00  0.00    +0.000 A 
ATOM     15  C   UNL     1       4.528   3.682  16.856  0.00  0.00    +0.000 A 
ATOM     16  C   UNL     1       5.134   3.693  15.595  0.00  0.00    +0.000 A 
ATOM     17  C   UNL     1       6.150   4.615  15.312  0.00  0.00    +0.000 A 
ATOM     18  C   UNL     1       6.546   5.530  16.297  0.00  0.00    +0.000 A 
ATOM     19  C   UNL     1       5.929   5.526  17.545  0.00  0.00    +0.000 A 
BRANCH  17  20
ATOM     20  N   UNL     1       6.783   4.656  14.040  0.00  0.00    +0.000 N 
ATOM     21  C   UNL     1       6.500   3.902  12.921  0.00  0.00    +0.000 A 
ATOM     22  C   UNL     1       7.345   4.321  11.923  0.00  0.00    +0.000 A 
ATOM     23  C   UNL     1       8.125   5.318  12.520  0.00  0.00    +0.000 A 
ATOM     24  N   UNL     1       7.798   5.529  13.793  0.00  0.00    +0.000 NA
ENDBRANCH  17  20
ENDBRANCH  13  14
ENDBRANCH   1  13
TORSDOF 7
ENDMDL
MODEL 5
REMARK VINA RESULT:      -7.2      1.706      7.198
REMARK  Name = 
REMARK  9 active torsions:
REMARK  status: ('A' for Active; 'I' for Inactive)
REMARK    1  A    between atoms: C_1  and  C_2
REMARK    2  A    between atoms: C_2  and  C_3
REMARK    3  A    between atoms: C_3  and  C_4
REMARK    4  A    between atoms: C_3  and  N_5
REMARK    5  A    between atoms: N_5  and  C_6
REMARK    6  A    between atoms: N_5  and  C_13
REMARK    7  A    between atoms: C_6  and  C_7
REMARK    8  A    between atoms: C_13  and  C_14
REMARK    9  A    between atoms: C_17  and  N_18
REMARK                            x       y       z     vdW  Elec       q    Type
REMARK                         _______ _______ _______ _____ _____    ______ ____
ROOT
ATOM      1  N   UNL     1       3.486   4.677  19.239  0.00  0.00    +0.000 NA
ENDROOT
BRANCH   1   2
ATOM      2  C   UNL     1       2.455   3.611  18.993  0.00  0.00    +0.000 C 
ATOM      3  C   UNL     1       1.714   3.720  17.645  0.00  0.00    +0.000 C 
BRANCH   2   5
ATOM      4  C   UNL     1       1.865   3.393  21.514  0.00  0.00    +0.000 C 
ATOM      5  C   UNL     1       1.348   3.521  20.086  0.00  0.00    +0.000 C 
ENDBRANCH   2   5
ENDBRANCH   1   2
BRANCH   1   6
ATOM      6  C   UNL     1       4.856   4.103  19.063  0.00  0.00    +0.000 C 
BRANCH   6   7
ATOM      7  C   UNL     1       5.697   4.794  18.007  0.00  0.00    +0.000 A 
ATOM      8  C   UNL     1       5.724   4.310  16.696  0.00  0.00    +0.000 A 
ATOM      9  C   UNL     1       6.565   4.924  15.781  0.00  0.00    +0.000 A 
ATOM     10  N   UNL     1       7.364   5.970  16.076  0.00  0.00    +0.000 NA
ATOM     11  C   UNL     1       7.316   6.432  17.344  0.00  0.00    +0.000 A 
ATOM     12  C   UNL     1       6.506   5.891  18.329  0.00  0.00    +0.000 A 
ENDBRANCH   6   7
ENDBRANCH   1   6
BRANCH   1  13
ATOM     13  C   UNL     1       3.368   5.834  18.306  0.00  0.00    +0.000 C 
BRANCH  13  14
ATOM     14  C   UNL     1       2.598   7.038  18.794  0.00  0.00    +0.000 A 
ATOM     15  C   UNL     1       2.144   7.129  20.118  0.00  0.00    +0.000 A 
ATOM     16  C   UNL     1       1.423   8.249  20.544  0.00  0.00    +0.000 A 
ATOM     17  C   UNL     1       1.160   9.297  19.651  0.00  0.00    +0.000 A 
ATOM     18  C   UNL     1       1.631   9.216  18.334  0.00  0.00    +0.000 A 
ATOM     19  C   UNL     1       2.362   8.105  17.919  0.00  0.00    +0.000 A 
BRANCH  17  20
ATOM     20  N   UNL     1       0.435  10.451  20.053  0.00  0.00    +0.000 N 
ATOM     21  C   UNL     1       0.223  10.924  21.330  0.00  0.00    +0.000 A 
ATOM     22  C   UNL     1      -0.498  12.087  21.219  0.00  0.00    +0.000 A 
ATOM     23  C   UNL     1      -0.704  12.243  19.843  0.00  0.00    +0.000 A 
ATOM     24  N   UNL     1      -0.149  11.265  19.131  0.00  0.00    +0.000 NA
ENDBRANCH  17  20
ENDBRANCH  13  14
ENDBRANCH   1  13
TORSDOF 7
ENDMDL
MODEL 6
REMARK VINA RESULT:      -7.2      0.438      1.050
REMARK  Name = 
REMARK  9 active torsions:
REMARK  status: ('A' for Active; 'I' for Inactive)
REMARK    1  A    between atoms: C_1  and  C_2
REMARK    2  A    between atoms: C_2  and  C_3
REMARK    3  A    between atoms: C_3  and  C_4
REMARK    4  A    between atoms: C_3  and  N_5
REMARK    5  A    between atoms: N_5  and  C_6
REMARK    6  A    between atoms: N_5  and  C_13
REMARK    7  A    between atoms: C_6  and  C_7
REMARK    8  A    between atoms: C_13  and  C_14
REMARK    9  A    between atoms: C_17  and  N_18
REMARK                            x       y       z     vdW  Elec       q    Type
REMARK                         _______ _______ _______ _____ _____    ______ ____
ROOT
ATOM      1  N   UNL     1       2.997   4.911  19.703  0.00  0.00    +0.000 NA
ENDROOT
BRANCH   1   2
ATOM      2  C   UNL     1       2.204   3.828  20.379  0.00  0.00    +0.000 C 
ATOM      3  C   UNL     1       2.950   2.491  20.562  0.00  0.00    +0.000 C 
BRANCH   2   5
ATOM      4  C   UNL     1       0.953   2.375  18.626  0.00  0.00    +0.000 C 
ATOM      5  C   UNL     1       0.860   3.478  19.674  0.00  0.00    +0.000 C 
ENDBRANCH   2   5
ENDBRANCH   1   2
BRANCH   1   6
ATOM      6  C   UNL     1       2.868   6.187  20.473  0.00  0.00    +0.000 C 
BRANCH   6   7
ATOM      7  C   UNL     1       2.336   7.357  19.669  0.00  0.00    +0.000 A 
ATOM      8  C   UNL     1       1.531   8.326  20.277  0.00  0.00    +0.000 A 
ATOM      9  C   UNL     1       1.002   9.335  19.490  0.00  0.00    +0.000 A 
ATOM     10  N   UNL     1       1.218   9.449  18.163  0.00  0.00    +0.000 NA
ATOM     11  C   UNL     1       2.008   8.512  17.595  0.00  0.00    +0.000 A 
ATOM     12  C   UNL     1       2.587   7.467  18.296  0.00  0.00    +0.000 A 
ENDBRANCH   6   7
ENDBRANCH   1   6
BRANCH   1  13
ATOM     13  C   UNL     1       4.452   4.599  19.604  0.00  0.00    +0.000 C 
BRANCH  13  14
ATOM     14  C   UNL     1       5.067   4.607  18.226  0.00  0.00    +0.000 A 
ATOM     15  C   UNL     1       6.365   5.088  18.005  0.00  0.00    +0.000 A 
ATOM     16  C   UNL     1       6.909   5.096  16.716  0.00  0.00    +0.000 A 
ATOM     17  C   UNL     1       6.162   4.610  15.635  0.00  0.00    +0.000 A 
ATOM     18  C   UNL     1       4.872   4.109  15.858  0.00  0.00    +0.000 A 
ATOM     19  C   UNL     1       4.341   4.090  17.146  0.00  0.00    +0.000 A 
BRANCH  17  20
ATOM     20  N   UNL     1       6.686   4.598  14.315  0.00  0.00    +0.000 N 
ATOM     21  C   UNL     1       6.287   3.826  13.244  0.00  0.00    +0.000 A 
ATOM     22  C   UNL     1       7.058   4.192  12.169  0.00  0.00    +0.000 A 
ATOM     23  C   UNL     1       7.917   5.178  12.671  0.00  0.00    +0.000 A 
ATOM     24  N   UNL     1       7.704   5.430  13.961  0.00  0.00    +0.000 NA
ENDBRANCH  17  20
ENDBRANCH  13  14
ENDBRANCH   1  13
TORSDOF 7
ENDMDL
MODEL 7
REMARK VINA RESULT:      -7.1      1.723      7.282
REMARK  Name = 
REMARK  9 active torsions:
REMARK  status: ('A' for Active; 'I' for Inactive)
REMARK    1  A    between atoms: C_1  and  C_2
REMARK    2  A    between atoms: C_2  and  C_3
REMARK    3  A    between atoms: C_3  and  C_4
REMARK    4  A    between atoms: C_3  and  N_5
REMARK    5  A    between atoms: N_5  and  C_6
REMARK    6  A    between atoms: N_5  and  C_13
REMARK    7  A    between atoms: C_6  and  C_7
REMARK    8  A    between atoms: C_13  and  C_14
REMARK    9  A    between atoms: C_17  and  N_18
REMARK                            x       y       z     vdW  Elec       q    Type
REMARK                         _______ _______ _______ _____ _____    ______ ____
ROOT
ATOM      1  N   UNL     1       3.703   4.712  19.173  0.00  0.00    +0.000 NA
ENDROOT
BRANCH   1   2
ATOM      2  C   UNL     1       2.902   3.500  18.790  0.00  0.00    +0.000 C 
ATOM      3  C   UNL     1       1.876   3.725  17.661  0.00  0.00    +0.000 C 
BRANCH   2   5
ATOM      4  C   UNL     1       0.795   3.539  20.310  0.00  0.00    +0.000 C 
ATOM      5  C   UNL     1       2.111   2.852  19.966  0.00  0.00    +0.000 C 
ENDBRANCH   2   5
ENDBRANCH   1   2
BRANCH   1   6
ATOM      6  C   UNL     1       5.162   4.383  19.145  0.00  0.00    +0.000 C 
BRANCH   6   7
ATOM      7  C   UNL     1       5.918   4.974  17.971  0.00  0.00    +0.000 A 
ATOM      8  C   UNL     1       5.958   4.302  16.745  0.00  0.00    +0.000 A 
ATOM      9  C   UNL     1       6.724   4.837  15.722  0.00  0.00    +0.000 A 
ATOM     10  N   UNL     1       7.436   5.978  15.831  0.00  0.00    +0.000 NA
ATOM     11  C   UNL     1       7.375   6.620  17.017  0.00  0.00    +0.000 A 
ATOM     12  C   UNL     1       6.636   6.169  18.099  0.00  0.00    +0.000 A 
ENDBRANCH   6   7
ENDBRANCH   1   6
BRANCH   1  13
ATOM     13  C   UNL     1       3.492   5.869  18.254  0.00  0.00    +0.000 C 
BRANCH  13  14
ATOM     14  C   UNL     1       2.666   7.020  18.773  0.00  0.00    +0.000 A 
ATOM     15  C   UNL     1       2.337   8.112  17.958  0.00  0.00    +0.000 A 
ATOM     16  C   UNL     1       1.579   9.173  18.465  0.00  0.00    +0.000 A 
ATOM     17  C   UNL     1       1.131   9.145  19.793  0.00  0.00    +0.000 A 
ATOM     18  C   UNL     1       1.442   8.044  20.602  0.00  0.00    +0.000 A 
ATOM     19  C   UNL     1       2.184   6.983  20.088  0.00  0.00    +0.000 A 
BRANCH  17  20
ATOM     20  N   UNL     1       0.355  10.203  20.337  0.00  0.00    +0.000 N 
ATOM     21  C   UNL     1       0.229  10.576  21.659  0.00  0.00    +0.000 A 
ATOM     22  C   UNL     1      -0.594  11.675  21.694  0.00  0.00    +0.000 A 
ATOM     23  C   UNL     1      -0.943  11.895  20.356  0.00  0.00    +0.000 A 
ATOM     24  N   UNL     1      -0.379  11.017  19.531  0.00  0.00    +0.000 NA
ENDBRANCH  17  20
ENDBRANCH  13  14
ENDBRANCH   1  13
TORSDOF 7
ENDMDL
MODEL 8
REMARK VINA RESULT:      -7.1      1.767      7.287
REMARK  Name = 
REMARK  9 active torsions:
REMARK  status: ('A' for Active; 'I' for Inactive)
REMARK    1  A    between atoms: C_1  and  C_2
REMARK    2  A    between atoms: C_2  and  C_3
REMARK    3  A    between atoms: C_3  and  C_4
REMARK    4  A    between atoms: C_3  and  N_5
REMARK    5  A    between atoms: N_5  and  C_6
REMARK    6  A    between atoms: N_5  and  C_13
REMARK    7  A    between atoms: C_6  and  C_7
REMARK    8  A    between atoms: C_13  and  C_14
REMARK    9  A    between atoms: C_17  and  N_18
REMARK                            x       y       z     vdW  Elec       q    Type
REMARK                         _______ _______ _______ _____ _____    ______ ____
ROOT
ATOM      1  N   UNL     1       3.308   4.756  19.277  0.00  0.00    +0.000 NA
ENDROOT
BRANCH   1   2
ATOM      2  C   UNL     1       2.237   3.751  18.955  0.00  0.00    +0.000 C 
ATOM      3  C   UNL     1       1.503   3.987  17.620  0.00  0.00    +0.000 C 
BRANCH   2   5
ATOM      4  C   UNL     1       1.619   3.187  21.415  0.00  0.00    +0.000 C 
ATOM      5  C   UNL     1       1.126   3.623  20.040  0.00  0.00    +0.000 C 
ENDBRANCH   2   5
ENDBRANCH   1   2
BRANCH   1   6
ATOM      6  C   UNL     1       4.652   4.102  19.203  0.00  0.00    +0.000 C 
BRANCH   6   7
ATOM      7  C   UNL     1       5.581   4.691  18.159  0.00  0.00    +0.000 A 
ATOM      8  C   UNL     1       6.520   5.664  18.516  0.00  0.00    +0.000 A 
ATOM      9  C   UNL     1       7.295   6.232  17.519  0.00  0.00    +0.000 A 
ATOM     10  N   UNL     1       7.206   5.901  16.213  0.00  0.00    +0.000 NA
ATOM     11  C   UNL     1       6.303   4.951  15.889  0.00  0.00    +0.000 A 
ATOM     12  C   UNL     1       5.484   4.321  16.812  0.00  0.00    +0.000 A 
ENDBRANCH   6   7
ENDBRANCH   1   6
BRANCH   1  13
ATOM     13  C   UNL     1       3.326   5.915  18.339  0.00  0.00    +0.000 C 
BRANCH  13  14
ATOM     14  C   UNL     1       2.569   7.152  18.756  0.00  0.00    +0.000 A 
ATOM     15  C   UNL     1       2.332   8.203  17.859  0.00  0.00    +0.000 A 
ATOM     16  C   UNL     1       1.638   9.345  18.273  0.00  0.00    +0.000 A 
ATOM     17  C   UNL     1       1.163   9.441  19.587  0.00  0.00    +0.000 A 
ATOM     18  C   UNL     1       1.382   8.382  20.479  0.00  0.00    +0.000 A 
ATOM     19  C   UNL     1       2.060   7.241  20.058  0.00  0.00    +0.000 A 
BRANCH  17  20
ATOM     20  N   UNL     1       0.450  10.585  20.038  0.00  0.00    +0.000 N 
ATOM     21  C   UNL     1       0.957  11.793  20.466  0.00  0.00    +0.000 A 
ATOM     22  C   UNL     1      -0.113  12.601  20.763  0.00  0.00    +0.000 A 
ATOM     23  C   UNL     1      -1.236  11.804  20.511  0.00  0.00    +0.000 A 
ATOM     24  N   UNL     1      -0.911  10.588  20.076  0.00  0.00    +0.000 NA
ENDBRANCH  17  20
ENDBRANCH  13  14
ENDBRANCH   1  13
TORSDOF 7
ENDMDL
MODEL 9
REMARK VINA RESULT:      -7.0      1.816      6.705
REMARK  Name = 
REMARK  9 active torsions:
REMARK  status: ('A' for Active; 'I' for Inactive)
REMARK    1  A    between atoms: C_1  and  C_2
REMARK    2  A    between atoms: C_2  and  C_3
REMARK    3  A    between atoms: C_3  and  C_4
REMARK    4  A    between atoms: C_3  and  N_5
REMARK    5  A    between atoms: N_5  and  C_6
REMARK    6  A    between atoms: N_5  and  C_13
REMARK    7  A    between atoms: C_6  and  C_7
REMARK    8  A    between atoms: C_13  and  C_14
REMARK    9  A    between atoms: C_17  and  N_18
REMARK                            x       y       z     vdW  Elec       q    Type
REMARK                         _______ _______ _______ _____ _____    ______ ____
ROOT
ATOM      1  N   UNL     1       3.808   3.856  19.195  0.00  0.00    +0.000 NA
ENDROOT
BRANCH   1   2
ATOM      2  C   UNL     1       3.202   2.677  19.903  0.00  0.00    +0.000 C 
ATOM      3  C   UNL     1       1.982   2.051  19.198  0.00  0.00    +0.000 C 
BRANCH   2   5
ATOM      4  C   UNL     1       1.261   2.792  21.626  0.00  0.00    +0.000 C 
ATOM      5  C   UNL     1       2.753   2.966  21.366  0.00  0.00    +0.000 C 
ENDBRANCH   2   5
ENDBRANCH   1   2
BRANCH   1   6
ATOM      6  C   UNL     1       4.928   3.396  18.316  0.00  0.00    +0.000 C 
BRANCH   6   7
ATOM      7  C   UNL     1       5.778   4.514  17.743  0.00  0.00    +0.000 A 
ATOM      8  C   UNL     1       6.069   4.551  16.375  0.00  0.00    +0.000 A 
ATOM      9  C   UNL     1       6.912   5.545  15.905  0.00  0.00    +0.000 A 
ATOM     10  N   UNL     1       7.472   6.491  16.687  0.00  0.00    +0.000 NA
ATOM     11  C   UNL     1       7.170   6.447  18.003  0.00  0.00    +0.000 A 
ATOM     12  C   UNL     1       6.335   5.497  18.569  0.00  0.00    +0.000 A 
ENDBRANCH   6   7
ENDBRANCH   1   6
BRANCH   1  13
ATOM     13  C   UNL     1       2.836   4.584  18.329  0.00  0.00    +0.000 C 
BRANCH  13  14
ATOM     14  C   UNL     1       2.417   5.964  18.772  0.00  0.00    +0.000 A 
ATOM     15  C   UNL     1       1.961   6.208  20.075  0.00  0.00    +0.000 A 
ATOM     16  C   UNL     1       1.566   7.495  20.459  0.00  0.00    +0.000 A 
ATOM     17  C   UNL     1       1.636   8.553  19.544  0.00  0.00    +0.000 A 
ATOM     18  C   UNL     1       2.111   8.314  18.247  0.00  0.00    +0.000 A 
ATOM     19  C   UNL     1       2.517   7.035  17.875  0.00  0.00    +0.000 A 
BRANCH  17  20
ATOM     20  N   UNL     1       1.248   9.873  19.903  0.00  0.00    +0.000 N 
ATOM     21  C   UNL     1       1.152  10.984  19.093  0.00  0.00    +0.000 A 
ATOM     22  C   UNL     1       0.702  12.020  19.875  0.00  0.00    +0.000 A 
ATOM     23  C   UNL     1       0.569  11.462  21.153  0.00  0.00    +0.000 A 
ATOM     24  N   UNL     1       0.895  10.172  21.183  0.00  0.00    +0.000 NA
ENDBRANCH  17  20
ENDBRANCH  13  14
ENDBRANCH   1  13
TORSDOF 7
ENDMDL
