MODEL 1
REMARK VINA RESULT:      -6.6      0.000      0.000
REMARK  Name = 
REMARK  9 active torsions:
REMARK  status: ('A' for Active; 'I' for Inactive)
REMARK    1  A    between atoms: C_1  and  C_2
REMARK    2  A    between atoms: C_2  and  C_3
REMARK    3  A    between atoms: C_3  and  C_4
REMARK    4  A    between atoms: C_4  and  C_5
REMARK    5  A    between atoms: C_5  and  C_6
REMARK    6  A    between atoms: C_6  and  C_7
REMARK    7  A    between atoms: C_7  and  C_8
REMARK    8  A    between atoms: C_12  and  C_13
REMARK    9  A    between atoms: C_17  and  C_18
REMARK                            x       y       z     vdW  Elec       q    Type
REMARK                         _______ _______ _______ _____ _____    ______ ____
ROOT
ATOM      1  C   UNL     1       6.761   5.264  17.882  0.00  0.00    +0.000 C 
ATOM      2  C   UNL     1       8.174   4.685  18.002  0.00  0.00    +0.000 C 
ATOM      3  S   UNL     1       5.850   4.884  19.447  0.00  0.00    +0.000 S 
ATOM      4  C   UNL     1       4.445   4.564  18.489  0.00  0.00    +0.000 C 
ATOM      5  N   UNL     1       3.286   4.538  19.208  0.00  0.00    +0.000 N 
ATOM      6  C   UNL     1       1.977   4.364  18.838  0.00  0.00    +0.000 C 
ATOM      7  C   UNL     1       1.597   4.121  17.404  0.00  0.00    +0.000 C 
ATOM      8  O   UNL     1       1.109   4.410  19.716  0.00  0.00    +0.000 OA
ATOM      9  N   UNL     1       4.598   4.409  17.224  0.00  0.00    +0.000 NA
ATOM     10  N   UNL     1       5.915   4.620  16.852  0.00  0.00    +0.000 N 
ATOM     11  C   UNL     1       6.297   4.527  15.521  0.00  0.00    +0.000 C 
ATOM     12  C   UNL     1       5.227   4.167  14.514  0.00  0.00    +0.000 C 
ATOM     13  O   UNL     1       7.447   4.729  15.138  0.00  0.00    +0.000 OA
ATOM     14  H   UNL     1       3.391   4.719  20.196  0.00  0.00    +0.000 HD
ENDROOT
BRANCH   1  15
ATOM     15  C   UNL     1       6.768   6.797  17.653  0.00  0.00    +0.000 C 
BRANCH  15  16
ATOM     16  C   UNL     1       7.989   7.522  18.222  0.00  0.00    +0.000 C 
BRANCH  16  17
ATOM     17  C   UNL     1       8.025   8.990  17.817  0.00  0.00    +0.000 C 
BRANCH  17  18
ATOM     18  C   UNL     1       8.977   9.743  18.744  0.00  0.00    +0.000 C 
BRANCH  18  20
ATOM     19  C   UNL     1      10.745  11.512  18.677  0.00  0.00    +0.000 C 
ATOM     20  C   UNL     1       9.381  11.088  18.158  0.00  0.00    +0.000 C 
ENDBRANCH  18  20
ENDBRANCH  17  18
ENDBRANCH  16  17
ENDBRANCH  15  16
ENDBRANCH   1  15
TORSDOF 5
ENDMDL
MODEL 2
REMARK VINA RESULT:      -6.6      2.835      6.743
REMARK  Name = 
REMARK  9 active torsions:
REMARK  status: ('A' for Active; 'I' for Inactive)
REMARK    1  A    between atoms: C_1  and  C_2
REMARK    2  A    between atoms: C_2  and  C_3
REMARK    3  A    between atoms: C_3  and  C_4
REMARK    4  A    between atoms: C_4  and  C_5
REMARK    5  A    between atoms: C_5  and  C_6
REMARK    6  A    between atoms: C_6  and  C_7
REMARK    7  A    between atoms: C_7  and  C_8
REMARK    8  A    between atoms: C_12  and  C_13
REMARK    9  A    between atoms: C_17  and  C_18
REMARK                            x       y       z     vdW  Elec       q    Type
REMARK                         _______ _______ _______ _____ _____    ______ ____
ROOT
ATOM      1  C   UNL     1       4.746   4.152  17.917  0.00  0.00    +0.000 C 
ATOM      2  C   UNL     1       4.675   3.379  19.236  0.00  0.00    +0.000 C 
ATOM      3  S   UNL     1       4.609   2.936  16.530  0.00  0.00    +0.000 S 
ATOM      4  C   UNL     1       5.806   3.851  15.679  0.00  0.00    +0.000 C 
ATOM      5  N   UNL     1       5.875   3.561  14.348  0.00  0.00    +0.000 N 
ATOM      6  C   UNL     1       6.640   4.075  13.332  0.00  0.00    +0.000 C 
ATOM      7  C   UNL     1       7.656   5.152  13.588  0.00  0.00    +0.000 C 
ATOM      8  O   UNL     1       6.475   3.629  12.191  0.00  0.00    +0.000 OA
ATOM      9  N   UNL     1       6.489   4.714  16.340  0.00  0.00    +0.000 NA
ATOM     10  N   UNL     1       6.050   4.800  17.649  0.00  0.00    +0.000 N 
ATOM     11  C   UNL     1       6.637   5.694  18.535  0.00  0.00    +0.000 C 
ATOM     12  C   UNL     1       7.778   6.541  18.014  0.00  0.00    +0.000 C 
ATOM     13  O   UNL     1       6.268   5.824  19.699  0.00  0.00    +0.000 OA
ATOM     14  H   UNL     1       5.218   2.865  14.027  0.00  0.00    +0.000 HD
ENDROOT
BRANCH   1  15
ATOM     15  C   UNL     1       3.617   5.206  17.789  0.00  0.00    +0.000 C 
BRANCH  15  16
ATOM     16  C   UNL     1       2.420   4.975  18.714  0.00  0.00    +0.000 C 
BRANCH  16  17
ATOM     17  C   UNL     1       1.376   4.062  18.085  0.00  0.00    +0.000 C 
BRANCH  17  18
ATOM     18  C   UNL     1       1.064   2.920  19.049  0.00  0.00    +0.000 C 
BRANCH  18  20
ATOM     19  C   UNL     1       1.683   2.610  21.453  0.00  0.00    +0.000 C 
ATOM     20  C   UNL     1       0.861   3.426  20.470  0.00  0.00    +0.000 C 
ENDBRANCH  18  20
ENDBRANCH  17  18
ENDBRANCH  16  17
ENDBRANCH  15  16
ENDBRANCH   1  15
TORSDOF 5
ENDMDL
MODEL 3
REMARK VINA RESULT:      -6.4      1.942      2.801
REMARK  Name = 
REMARK  9 active torsions:
REMARK  status: ('A' for Active; 'I' for Inactive)
REMARK    1  A    between atoms: C_1  and  C_2
REMARK    2  A    between atoms: C_2  and  C_3
REMARK    3  A    between atoms: C_3  and  C_4
REMARK    4  A    between atoms: C_4  and  C_5
REMARK    5  A    between atoms: C_5  and  C_6
REMARK    6  A    between atoms: C_6  and  C_7
REMARK    7  A    between atoms: C_7  and  C_8
REMARK    8  A    between atoms: C_12  and  C_13
REMARK    9  A    between atoms: C_17  and  C_18
REMARK                            x       y       z     vdW  Elec       q    Type
REMARK                         _______ _______ _______ _____ _____    ______ ____
ROOT
ATOM      1  C   UNL     1       5.036   4.398  17.208  0.00  0.00    +0.000 C 
ATOM      2  C   UNL     1       5.393   4.255  15.726  0.00  0.00    +0.000 C 
ATOM      3  S   UNL     1       4.248   2.819  17.764  0.00  0.00    +0.000 S 
ATOM      4  C   UNL     1       3.138   3.762  18.697  0.00  0.00    +0.000 C 
ATOM      5  N   UNL     1       2.465   3.042  19.641  0.00  0.00    +0.000 N 
ATOM      6  C   UNL     1       1.548   3.404  20.594  0.00  0.00    +0.000 C 
ATOM      7  C   UNL     1       1.081   4.827  20.727  0.00  0.00    +0.000 C 
ATOM      8  O   UNL     1       1.109   2.529  21.347  0.00  0.00    +0.000 OA
ATOM      9  N   UNL     1       3.058   5.020  18.452  0.00  0.00    +0.000 NA
ATOM     10  N   UNL     1       3.985   5.400  17.497  0.00  0.00    +0.000 N 
ATOM     11  C   UNL     1       4.087   6.727  17.099  0.00  0.00    +0.000 C 
ATOM     12  C   UNL     1       3.137   7.718  17.736  0.00  0.00    +0.000 C 
ATOM     13  O   UNL     1       4.908   7.118  16.274  0.00  0.00    +0.000 OA
ATOM     14  H   UNL     1       2.706   2.063  19.684  0.00  0.00    +0.000 HD
ENDROOT
BRANCH   1  15
ATOM     15  C   UNL     1       6.276   4.690  18.089  0.00  0.00    +0.000 C 
BRANCH  15  16
ATOM     16  C   UNL     1       7.317   5.605  17.442  0.00  0.00    +0.000 C 
BRANCH  16  17
ATOM     17  C   UNL     1       7.833   6.663  18.409  0.00  0.00    +0.000 C 
BRANCH  17  18
ATOM     18  C   UNL     1       7.887   8.011  17.695  0.00  0.00    +0.000 C 
BRANCH  18  20
ATOM     19  C   UNL     1       8.465  10.435  17.924  0.00  0.00    +0.000 C 
ATOM     20  C   UNL     1       8.651   9.046  18.510  0.00  0.00    +0.000 C 
ENDBRANCH  18  20
ENDBRANCH  17  18
ENDBRANCH  16  17
ENDBRANCH  15  16
ENDBRANCH   1  15
TORSDOF 5
ENDMDL
MODEL 4
REMARK VINA RESULT:      -6.4      3.685      5.885
REMARK  Name = 
REMARK  9 active torsions:
REMARK  status: ('A' for Active; 'I' for Inactive)
REMARK    1  A    between atoms: C_1  and  C_2
REMARK    2  A    between atoms: C_2  and  C_3
REMARK    3  A    between atoms: C_3  and  C_4
REMARK    4  A    between atoms: C_4  and  C_5
REMARK    5  A    between atoms: C_5  and  C_6
REMARK    6  A    between atoms: C_6  and  C_7
REMARK    7  A    between atoms: C_7  and  C_8
REMARK    8  A    between atoms: C_12  and  C_13
REMARK    9  A    between atoms: C_17  and  C_18
REMARK                            x       y       z     vdW  Elec       q    Type
REMARK                         _______ _______ _______ _____ _____    ______ ____
ROOT
ATOM      1  C   UNL     1       5.563   4.975  17.511  0.00  0.00    +0.000 C 
ATOM      2  C   UNL     1       6.984   4.531  17.869  0.00  0.00    +0.000 C 
ATOM      3  S   UNL     1       5.626   6.757  17.018  0.00  0.00    +0.000 S 
ATOM      4  C   UNL     1       4.137   6.991  17.869  0.00  0.00    +0.000 C 
ATOM      5  N   UNL     1       3.499   8.154  17.550  0.00  0.00    +0.000 N 
ATOM      6  C   UNL     1       2.304   8.689  17.955  0.00  0.00    +0.000 C 
ATOM      7  C   UNL     1       1.432   7.984  18.956  0.00  0.00    +0.000 C 
ATOM      8  O   UNL     1       1.955   9.774  17.476  0.00  0.00    +0.000 OA
ATOM      9  N   UNL     1       3.755   6.073  18.681  0.00  0.00    +0.000 NA
ATOM     10  N   UNL     1       4.615   4.989  18.649  0.00  0.00    +0.000 N 
ATOM     11  C   UNL     1       4.374   3.871  19.436  0.00  0.00    +0.000 C 
ATOM     12  C   UNL     1       3.156   3.902  20.333  0.00  0.00    +0.000 C 
ATOM     13  O   UNL     1       5.094   2.876  19.425  0.00  0.00    +0.000 OA
ATOM     14  H   UNL     1       3.965   8.721  16.856  0.00  0.00    +0.000 HD
ENDROOT
BRANCH   1  15
ATOM     15  C   UNL     1       4.958   4.143  16.353  0.00  0.00    +0.000 C 
BRANCH  15  16
ATOM     16  C   UNL     1       5.938   3.812  15.225  0.00  0.00    +0.000 C 
BRANCH  16  17
ATOM     17  C   UNL     1       5.323   4.029  13.848  0.00  0.00    +0.000 C 
BRANCH  17  18
ATOM     18  C   UNL     1       6.299   3.542  12.781  0.00  0.00    +0.000 C 
BRANCH  18  20
ATOM     19  C   UNL     1       4.185   3.297  11.465  0.00  0.00    +0.000 C 
ATOM     20  C   UNL     1       5.587   2.757  11.687  0.00  0.00    +0.000 C 
ENDBRANCH  18  20
ENDBRANCH  17  18
ENDBRANCH  16  17
ENDBRANCH  15  16
ENDBRANCH   1  15
TORSDOF 5
ENDMDL
MODEL 5
REMARK VINA RESULT:      -6.4      2.395      4.054
REMARK  Name = 
REMARK  9 active torsions:
REMARK  status: ('A' for Active; 'I' for Inactive)
REMARK    1  A    between atoms: C_1  and  C_2
REMARK    2  A    between atoms: C_2  and  C_3
REMARK    3  A    between atoms: C_3  and  C_4
REMARK    4  A    between atoms: C_4  and  C_5
REMARK    5  A    between atoms: C_5  and  C_6
REMARK    6  A    between atoms: C_6  and  C_7
REMARK    7  A    between atoms: C_7  and  C_8
REMARK    8  A    between atoms: C_12  and  C_13
REMARK    9  A    between atoms: C_17  and  C_18
REMARK                            x       y       z     vdW  Elec       q    Type
REMARK                         _______ _______ _______ _____ _____    ______ ____
ROOT
ATOM      1  C   UNL     1       6.452   5.905  17.812  0.00  0.00    +0.000 C 
ATOM      2  C   UNL     1       7.934   6.219  18.032  0.00  0.00    +0.000 C 
ATOM      3  S   UNL     1       5.765   5.238  19.395  0.00  0.00    +0.000 S 
ATOM      4  C   UNL     1       4.852   4.104  18.460  0.00  0.00    +0.000 C 
ATOM      5  N   UNL     1       3.838   3.511  19.154  0.00  0.00    +0.000 N 
ATOM      6  C   UNL     1       2.876   2.607  18.784  0.00  0.00    +0.000 C 
ATOM      7  C   UNL     1       2.817   2.057  17.386  0.00  0.00    +0.000 C 
ATOM      8  O   UNL     1       2.051   2.249  19.632  0.00  0.00    +0.000 OA
ATOM      9  N   UNL     1       5.175   3.937  17.228  0.00  0.00    +0.000 NA
ATOM     10  N   UNL     1       6.188   4.804  16.857  0.00  0.00    +0.000 N 
ATOM     11  C   UNL     1       6.674   4.810  15.557  0.00  0.00    +0.000 C 
ATOM     12  C   UNL     1       6.067   3.822  14.584  0.00  0.00    +0.000 C 
ATOM     13  O   UNL     1       7.554   5.576  15.173  0.00  0.00    +0.000 OA
ATOM     14  H   UNL     1       3.741   3.814  20.112  0.00  0.00    +0.000 HD
ENDROOT
BRANCH   1  15
ATOM     15  C   UNL     1       5.640   7.155  17.387  0.00  0.00    +0.000 C 
BRANCH  15  16
ATOM     16  C   UNL     1       4.217   6.860  16.909  0.00  0.00    +0.000 C 
BRANCH  16  17
ATOM     17  C   UNL     1       3.172   7.634  17.702  0.00  0.00    +0.000 C 
BRANCH  17  18
ATOM     18  C   UNL     1       2.264   6.647  18.432  0.00  0.00    +0.000 C 
BRANCH  18  20
ATOM     19  C   UNL     1       1.639   5.713  20.668  0.00  0.00    +0.000 C 
ATOM     20  C   UNL     1       2.277   6.882  19.936  0.00  0.00    +0.000 C 
ENDBRANCH  18  20
ENDBRANCH  17  18
ENDBRANCH  16  17
ENDBRANCH  15  16
ENDBRANCH   1  15
TORSDOF 5
ENDMDL
MODEL 6
REMARK VINA RESULT:      -6.2      2.498      3.249
REMARK  Name = 
REMARK  9 active torsions:
REMARK  status: ('A' for Active; 'I' for Inactive)
REMARK    1  A    between atoms: C_1  and  C_2
REMARK    2  A    between atoms: C_2  and  C_3
REMARK    3  A    between atoms: C_3  and  C_4
REMARK    4  A    between atoms: C_4  and  C_5
REMARK    5  A    between atoms: C_5  and  C_6
REMARK    6  A    between atoms: C_6  and  C_7
REMARK    7  A    between atoms: C_7  and  C_8
REMARK    8  A    between atoms: C_12  and  C_13
REMARK    9  A    between atoms: C_17  and  C_18
REMARK                            x       y       z     vdW  Elec       q    Type
REMARK                         _______ _______ _______ _____ _____    ______ ____
ROOT
ATOM      1  C   UNL     1       5.379   6.091  17.298  0.00  0.00    +0.000 C 
ATOM      2  C   UNL     1       5.245   6.599  15.860  0.00  0.00    +0.000 C 
ATOM      3  S   UNL     1       5.987   4.346  17.238  0.00  0.00    +0.000 S 
ATOM      4  C   UNL     1       4.908   3.979  18.539  0.00  0.00    +0.000 C 
ATOM      5  N   UNL     1       5.185   2.799  19.166  0.00  0.00    +0.000 N 
ATOM      6  C   UNL     1       4.613   2.174  20.244  0.00  0.00    +0.000 C 
ATOM      7  C   UNL     1       3.433   2.771  20.958  0.00  0.00    +0.000 C 
ATOM      8  O   UNL     1       5.091   1.098  20.618  0.00  0.00    +0.000 OA
ATOM      9  N   UNL     1       3.985   4.828  18.816  0.00  0.00    +0.000 NA
ATOM     10  N   UNL     1       4.097   5.960  18.029  0.00  0.00    +0.000 N 
ATOM     11  C   UNL     1       3.211   7.019  18.181  0.00  0.00    +0.000 C 
ATOM     12  C   UNL     1       2.120   6.868  19.219  0.00  0.00    +0.000 C 
ATOM     13  O   UNL     1       3.284   8.054  17.524  0.00  0.00    +0.000 OA
ATOM     14  H   UNL     1       5.983   2.299  18.803  0.00  0.00    +0.000 HD
ENDROOT
BRANCH   1  15
ATOM     15  C   UNL     1       6.360   6.948  18.138  0.00  0.00    +0.000 C 
BRANCH  15  16
ATOM     16  C   UNL     1       7.567   7.479  17.363  0.00  0.00    +0.000 C 
BRANCH  16  17
ATOM     17  C   UNL     1       7.791   8.967  17.598  0.00  0.00    +0.000 C 
BRANCH  17  18
ATOM     18  C   UNL     1       8.854   9.150  18.678  0.00  0.00    +0.000 C 
BRANCH  18  20
ATOM     19  C   UNL     1      10.180  11.155  17.982  0.00  0.00    +0.000 C 
ATOM     20  C   UNL     1       9.132  10.623  18.946  0.00  0.00    +0.000 C 
ENDBRANCH  18  20
ENDBRANCH  17  18
ENDBRANCH  16  17
ENDBRANCH  15  16
ENDBRANCH   1  15
TORSDOF 5
ENDMDL
MODEL 7
REMARK VINA RESULT:      -6.2      2.979      6.551
REMARK  Name = 
REMARK  9 active torsions:
REMARK  status: ('A' for Active; 'I' for Inactive)
REMARK    1  A    between atoms: C_1  and  C_2
REMARK    2  A    between atoms: C_2  and  C_3
REMARK    3  A    between atoms: C_3  and  C_4
REMARK    4  A    between atoms: C_4  and  C_5
REMARK    5  A    between atoms: C_5  and  C_6
REMARK    6  A    between atoms: C_6  and  C_7
REMARK    7  A    between atoms: C_7  and  C_8
REMARK    8  A    between atoms: C_12  and  C_13
REMARK    9  A    between atoms: C_17  and  C_18
REMARK                            x       y       z     vdW  Elec       q    Type
REMARK                         _______ _______ _______ _____ _____    ______ ____
ROOT
ATOM      1  C   UNL     1       4.762   4.114  18.307  0.00  0.00    +0.000 C 
ATOM      2  C   UNL     1       4.693   3.271  19.583  0.00  0.00    +0.000 C 
ATOM      3  S   UNL     1       4.389   3.012  16.869  0.00  0.00    +0.000 S 
ATOM      4  C   UNL     1       5.624   3.839  15.982  0.00  0.00    +0.000 C 
ATOM      5  N   UNL     1       5.567   3.628  14.635  0.00  0.00    +0.000 N 
ATOM      6  C   UNL     1       6.314   4.116  13.595  0.00  0.00    +0.000 C 
ATOM      7  C   UNL     1       7.464   5.054  13.833  0.00  0.00    +0.000 C 
ATOM      8  O   UNL     1       6.021   3.765  12.447  0.00  0.00    +0.000 OA
ATOM      9  N   UNL     1       6.447   4.576  16.636  0.00  0.00    +0.000 NA
ATOM     10  N   UNL     1       6.111   4.627  17.978  0.00  0.00    +0.000 N 
ATOM     11  C   UNL     1       6.858   5.392  18.865  0.00  0.00    +0.000 C 
ATOM     12  C   UNL     1       8.051   6.137  18.307  0.00  0.00    +0.000 C 
ATOM     13  O   UNL     1       6.587   5.489  20.059  0.00  0.00    +0.000 OA
ATOM     14  H   UNL     1       4.813   3.032  14.328  0.00  0.00    +0.000 HD
ENDROOT
BRANCH   1  15
ATOM     15  C   UNL     1       3.757   5.294  18.323  0.00  0.00    +0.000 C 
BRANCH  15  16
ATOM     16  C   UNL     1       3.186   5.627  19.703  0.00  0.00    +0.000 C 
BRANCH  16  17
ATOM     17  C   UNL     1       1.701   5.299  19.803  0.00  0.00    +0.000 C 
BRANCH  17  18
ATOM     18  C   UNL     1       1.505   4.168  20.810  0.00  0.00    +0.000 C 
BRANCH  18  20
ATOM     19  C   UNL     1       1.060   2.754  18.795  0.00  0.00    +0.000 C 
ATOM     20  C   UNL     1       0.658   3.044  20.231  0.00  0.00    +0.000 C 
ENDBRANCH  18  20
ENDBRANCH  17  18
ENDBRANCH  16  17
ENDBRANCH  15  16
ENDBRANCH   1  15
TORSDOF 5
ENDMDL
MODEL 8
REMARK VINA RESULT:      -6.2      3.293      6.437
REMARK  Name = 
REMARK  9 active torsions:
REMARK  status: ('A' for Active; 'I' for Inactive)
REMARK    1  A    between atoms: C_1  and  C_2
REMARK    2  A    between atoms: C_2  and  C_3
REMARK    3  A    between atoms: C_3  and  C_4
REMARK    4  A    between atoms: C_4  and  C_5
REMARK    5  A    between atoms: C_5  and  C_6
REMARK    6  A    between atoms: C_6  and  C_7
REMARK    7  A    between atoms: C_7  and  C_8
REMARK    8  A    between atoms: C_12  and  C_13
REMARK    9  A    between atoms: C_17  and  C_18
REMARK                            x       y       z     vdW  Elec       q    Type
REMARK                         _______ _______ _______ _____ _____    ______ ____
ROOT
ATOM      1  C   UNL     1       2.626   5.017  18.706  0.00  0.00    +0.000 C 
ATOM      2  C   UNL     1       1.461   4.410  17.920  0.00  0.00    +0.000 C 
ATOM      3  S   UNL     1       3.482   6.239  17.613  0.00  0.00    +0.000 S 
ATOM      4  C   UNL     1       4.988   5.676  18.251  0.00  0.00    +0.000 C 
ATOM      5  N   UNL     1       6.036   6.514  18.005  0.00  0.00    +0.000 N 
ATOM      6  C   UNL     1       7.359   6.464  18.363  0.00  0.00    +0.000 C 
ATOM      7  C   UNL     1       7.909   5.313  19.158  0.00  0.00    +0.000 C 
ATOM      8  O   UNL     1       8.096   7.392  18.014  0.00  0.00    +0.000 OA
ATOM      9  N   UNL     1       4.993   4.569  18.901  0.00  0.00    +0.000 NA
ATOM     10  N   UNL     1       3.711   4.066  19.037  0.00  0.00    +0.000 N 
ATOM     11  C   UNL     1       3.485   2.884  19.731  0.00  0.00    +0.000 C 
ATOM     12  C   UNL     1       4.691   2.173  20.304  0.00  0.00    +0.000 C 
ATOM     13  O   UNL     1       2.364   2.410  19.899  0.00  0.00    +0.000 OA
ATOM     14  H   UNL     1       5.801   7.355  17.498  0.00  0.00    +0.000 HD
ENDROOT
BRANCH   1  15
ATOM     15  C   UNL     1       2.157   5.728  20.001  0.00  0.00    +0.000 C 
BRANCH  15  16
ATOM     16  C   UNL     1       2.160   7.256  19.928  0.00  0.00    +0.000 C 
BRANCH  16  17
ATOM     17  C   UNL     1       1.274   7.884  20.996  0.00  0.00    +0.000 C 
BRANCH  17  18
ATOM     18  C   UNL     1       0.720   9.207  20.473  0.00  0.00    +0.000 C 
BRANCH  18  20
ATOM     19  C   UNL     1       0.245   9.362  22.925  0.00  0.00    +0.000 C 
ATOM     20  C   UNL     1      -0.029   9.967  21.559  0.00  0.00    +0.000 C 
ENDBRANCH  18  20
ENDBRANCH  17  18
ENDBRANCH  16  17
ENDBRANCH  15  16
ENDBRANCH   1  15
TORSDOF 5
ENDMDL
MODEL 9
REMARK VINA RESULT:      -6.2      2.927      5.525
REMARK  Name = 
REMARK  9 active torsions:
REMARK  status: ('A' for Active; 'I' for Inactive)
REMARK    1  A    between atoms: C_1  and  C_2
REMARK    2  A    between atoms: C_2  and  C_3
REMARK    3  A    between atoms: C_3  and  C_4
REMARK    4  A    between atoms: C_4  and  C_5
REMARK    5  A    between atoms: C_5  and  C_6
REMARK    6  A    between atoms: C_6  and  C_7
REMARK    7  A    between atoms: C_7  and  C_8
REMARK    8  A    between atoms: C_12  and  C_13
REMARK    9  A    between atoms: C_17  and  C_18
REMARK                            x       y       z     vdW  Elec       q    Type
REMARK                         _______ _______ _______ _____ _____    ______ ____
ROOT
ATOM      1  C   UNL     1       5.845   6.156  17.241  0.00  0.00    +0.000 C 
ATOM      2  C   UNL     1       5.837   7.679  17.090  0.00  0.00    +0.000 C 
ATOM      3  S   UNL     1       4.090   5.569  17.238  0.00  0.00    +0.000 S 
ATOM      4  C   UNL     1       4.521   4.438  18.474  0.00  0.00    +0.000 C 
ATOM      5  N   UNL     1       3.605   3.442  18.650  0.00  0.00    +0.000 N 
ATOM      6  C   UNL     1       3.582   2.349  19.477  0.00  0.00    +0.000 C 
ATOM      7  C   UNL     1       4.700   2.078  20.445  0.00  0.00    +0.000 C 
ATOM      8  O   UNL     1       2.614   1.583  19.409  0.00  0.00    +0.000 OA
ATOM      9  N   UNL     1       5.638   4.606  19.085  0.00  0.00    +0.000 NA
ATOM     10  N   UNL     1       6.345   5.667  18.546  0.00  0.00    +0.000 N 
ATOM     11  C   UNL     1       7.596   6.009  19.044  0.00  0.00    +0.000 C 
ATOM     12  C   UNL     1       8.131   5.192  20.200  0.00  0.00    +0.000 C 
ATOM     13  O   UNL     1       8.272   6.925  18.584  0.00  0.00    +0.000 OA
ATOM     14  H   UNL     1       2.806   3.483  18.035  0.00  0.00    +0.000 HD
ENDROOT
BRANCH   1  15
ATOM     15  C   UNL     1       6.623   5.453  16.100  0.00  0.00    +0.000 C 
BRANCH  15  16
ATOM     16  C   UNL     1       5.760   5.016  14.914  0.00  0.00    +0.000 C 
BRANCH  16  17
ATOM     17  C   UNL     1       6.286   3.744  14.261  0.00  0.00    +0.000 C 
BRANCH  17  18
ATOM     18  C   UNL     1       6.323   3.937  12.747  0.00  0.00    +0.000 C 
BRANCH  18  20
ATOM     19  C   UNL     1       4.299   3.347  11.399  0.00  0.00    +0.000 C 
ATOM     20  C   UNL     1       5.582   2.822  12.022  0.00  0.00    +0.000 C 
ENDBRANCH  18  20
ENDBRANCH  17  18
ENDBRANCH  16  17
ENDBRANCH  15  16
ENDBRANCH   1  15
TORSDOF 5
ENDMDL
