MODEL 1
REMARK VINA RESULT:      -7.5      0.000      0.000
REMARK  Name = 
REMARK  7 active torsions:
REMARK  status: ('A' for Active; 'I' for Inactive)
REMARK    1  A    between atoms: C_2  and  C_3
REMARK    2  A    between atoms: C_3  and  O_4
REMARK    3  A    between atoms: O_4  and  C_5
REMARK    4  A    between atoms: C_11  and  C_12
REMARK    5  A    between atoms: N_16  and  C_17
REMARK    6  A    between atoms: C_22  and  C_23
REMARK    7  A    between atoms: C_23  and  O_25
REMARK                            x       y       z     vdW  Elec       q    Type
REMARK                         _______ _______ _______ _____ _____    ______ ____
ROOT
ATOM      1  C   UNL     1       2.462   6.447  19.739  0.00  0.00    +0.000 C 
ATOM      2  C   UNL     1       1.916   7.627  19.400  0.00  0.00    +0.000 C 
ATOM      3  S   UNL     1       1.986   8.437  17.885  0.00  0.00    +0.000 S 
ATOM      4  C   UNL     1       1.633   9.951  18.703  0.00  0.00    +0.000 C 
ATOM      5  N   UNL     1       1.707  11.059  17.911  0.00  0.00    +0.000 N 
ATOM      6  N   UNL     1       1.327   9.853  19.952  0.00  0.00    +0.000 NA
ATOM      7  C   UNL     1       1.395   8.566  20.435  0.00  0.00    +0.000 C 
ATOM      8  O   UNL     1       1.149   8.228  21.584  0.00  0.00    +0.000 OA
ATOM      9  H   UNL     1       1.889  10.893  16.929  0.00  0.00    +0.000 HD
ENDROOT
BRANCH   1  16
ATOM     10  C   UNL     1       2.840   4.604  18.012  0.00  0.00    +0.000 A 
ATOM     11  C   UNL     1       3.760   3.915  17.204  0.00  0.00    +0.000 A 
ATOM     12  C   UNL     1       5.122   4.224  17.228  0.00  0.00    +0.000 A 
ATOM     13  C   UNL     1       5.575   5.251  18.048  0.00  0.00    +0.000 A 
ATOM     14 BR   UNL     1       7.417   5.673  18.097  0.00  0.00    +0.000 Br
ATOM     15  C   UNL     1       4.680   5.967  18.840  0.00  0.00    +0.000 A 
ATOM     16  C   UNL     1       3.310   5.650  18.841  0.00  0.00    +0.000 A 
BRANCH  10  17
ATOM     17  O   UNL     1       1.554   4.133  17.849  0.00  0.00    +0.000 OA
BRANCH  17  18
ATOM     18  C   UNL     1       1.216   2.917  18.500  0.00  0.00    +0.000 C 
BRANCH  18  20
ATOM     19  C   UNL     1       1.482   2.910  20.979  0.00  0.00    +0.000 C 
ATOM     20  C   UNL     1       0.730   3.148  19.896  0.00  0.00    +0.000 C 
ENDBRANCH  18  20
ENDBRANCH  17  18
ENDBRANCH  10  17
ENDBRANCH   1  16
BRANCH   5  21
ATOM     21  C   UNL     1       1.578  12.402  18.291  0.00  0.00    +0.000 A 
ATOM     22  C   UNL     1       0.312  12.880  18.636  0.00  0.00    +0.000 A 
ATOM     23  C   UNL     1       0.131  14.187  19.104  0.00  0.00    +0.000 A 
ATOM     24  C   UNL     1       1.224  15.046  19.239  0.00  0.00    +0.000 A 
ATOM     25 CL   UNL     1       0.897  16.639  19.813  0.00  0.00    +0.000 Cl
ATOM     26  C   UNL     1       2.503  14.594  18.902  0.00  0.00    +0.000 A 
ATOM     27  C   UNL     1       2.666  13.273  18.437  0.00  0.00    +0.000 A 
BRANCH  26  28
ATOM     28  C   UNL     1       3.734  15.425  18.955  0.00  0.00    +0.000 C 
ATOM     29  O   UNL     1       3.912  16.360  18.192  0.00  0.00    +0.000 OA
BRANCH  28  30
ATOM     30  O   UNL     1       4.669  15.032  19.841  0.00  0.00    +0.000 OA
ATOM     31  H   UNL     1       4.619  15.450  20.722  0.00  0.00    +0.000 HD
ENDBRANCH  28  30
ENDBRANCH  26  28
ENDBRANCH   5  21
TORSDOF 7
ENDMDL
MODEL 2
REMARK VINA RESULT:      -7.5      1.578      2.068
REMARK  Name = 
REMARK  7 active torsions:
REMARK  status: ('A' for Active; 'I' for Inactive)
REMARK    1  A    between atoms: C_2  and  C_3
REMARK    2  A    between atoms: C_3  and  O_4
REMARK    3  A    between atoms: O_4  and  C_5
REMARK    4  A    between atoms: C_11  and  C_12
REMARK    5  A    between atoms: N_16  and  C_17
REMARK    6  A    between atoms: C_22  and  C_23
REMARK    7  A    between atoms: C_23  and  O_25
REMARK                            x       y       z     vdW  Elec       q    Type
REMARK                         _______ _______ _______ _____ _____    ______ ____
ROOT
ATOM      1  C   UNL     1       2.373   6.424  19.565  0.00  0.00    +0.000 C 
ATOM      2  C   UNL     1       1.867   7.638  19.291  0.00  0.00    +0.000 C 
ATOM      3  S   UNL     1       1.937   8.512  17.813  0.00  0.00    +0.000 S 
ATOM      4  C   UNL     1       1.663  10.000  18.705  0.00  0.00    +0.000 C 
ATOM      5  N   UNL     1       1.765  11.139  17.962  0.00  0.00    +0.000 N 
ATOM      6  N   UNL     1       1.380   9.857  19.956  0.00  0.00    +0.000 NA
ATOM      7  C   UNL     1       1.406   8.548  20.379  0.00  0.00    +0.000 C 
ATOM      8  O   UNL     1       1.171   8.169  21.517  0.00  0.00    +0.000 OA
ATOM      9  H   UNL     1       1.920  11.011  16.970  0.00  0.00    +0.000 HD
ENDROOT
BRANCH   1  16
ATOM     10  C   UNL     1       2.700   4.486  17.933  0.00  0.00    +0.000 A 
ATOM     11  C   UNL     1       3.568   3.820  17.052  0.00  0.00    +0.000 A 
ATOM     12  C   UNL     1       4.883   4.252  16.863  0.00  0.00    +0.000 A 
ATOM     13  C   UNL     1       5.336   5.378  17.538  0.00  0.00    +0.000 A 
ATOM     14 BR   UNL     1       7.115   5.968  17.297  0.00  0.00    +0.000 Br
ATOM     15  C   UNL     1       4.487   6.073  18.398  0.00  0.00    +0.000 A 
ATOM     16  C   UNL     1       3.168   5.635  18.614  0.00  0.00    +0.000 A 
BRANCH  10  17
ATOM     17  O   UNL     1       1.457   3.890  17.985  0.00  0.00    +0.000 OA
BRANCH  17  18
ATOM     18  C   UNL     1       1.312   2.757  18.830  0.00  0.00    +0.000 C 
BRANCH  18  20
ATOM     19  C   UNL     1       1.653   2.852  21.298  0.00  0.00    +0.000 C 
ATOM     20  C   UNL     1       0.914   3.145  20.220  0.00  0.00    +0.000 C 
ENDBRANCH  18  20
ENDBRANCH  17  18
ENDBRANCH  10  17
ENDBRANCH   1  16
BRANCH   5  21
ATOM     21  C   UNL     1       1.698  12.468  18.404  0.00  0.00    +0.000 A 
ATOM     22  C   UNL     1       2.851  13.253  18.335  0.00  0.00    +0.000 A 
ATOM     23  C   UNL     1       2.829  14.609  18.681  0.00  0.00    +0.000 A 
ATOM     24  C   UNL     1       1.641  15.210  19.105  0.00  0.00    +0.000 A 
ATOM     25 CL   UNL     1       1.718  16.882  19.519  0.00  0.00    +0.000 Cl
ATOM     26  C   UNL     1       0.472  14.448  19.182  0.00  0.00    +0.000 A 
ATOM     27  C   UNL     1       0.513  13.085  18.824  0.00  0.00    +0.000 A 
BRANCH  26  28
ATOM     28  C   UNL     1      -0.838  14.958  19.663  0.00  0.00    +0.000 C 
ATOM     29  O   UNL     1      -1.509  14.344  20.476  0.00  0.00    +0.000 OA
BRANCH  28  30
ATOM     30  O   UNL     1      -1.271  16.097  19.089  0.00  0.00    +0.000 OA
ATOM     31  H   UNL     1      -1.444  16.047  18.129  0.00  0.00    +0.000 HD
ENDBRANCH  28  30
ENDBRANCH  26  28
ENDBRANCH   5  21
TORSDOF 7
ENDMDL
MODEL 3
REMARK VINA RESULT:      -7.4      0.959      1.165
REMARK  Name = 
REMARK  7 active torsions:
REMARK  status: ('A' for Active; 'I' for Inactive)
REMARK    1  A    between atoms: C_2  and  C_3
REMARK    2  A    between atoms: C_3  and  O_4
REMARK    3  A    between atoms: O_4  and  C_5
REMARK    4  A    between atoms: C_11  and  C_12
REMARK    5  A    between atoms: N_16  and  C_17
REMARK    6  A    between atoms: C_22  and  C_23
REMARK    7  A    between atoms: C_23  and  O_25
REMARK                            x       y       z     vdW  Elec       q    Type
REMARK                         _______ _______ _______ _____ _____    ______ ____
ROOT
ATOM      1  C   UNL     1       2.461   6.523  19.551  0.00  0.00    +0.000 C 
ATOM      2  C   UNL     1       1.851   7.701  19.345  0.00  0.00    +0.000 C 
ATOM      3  S   UNL     1       1.834   8.656  17.915  0.00  0.00    +0.000 S 
ATOM      4  C   UNL     1       1.438  10.065  18.887  0.00  0.00    +0.000 C 
ATOM      5  N   UNL     1       1.436  11.246  18.206  0.00  0.00    +0.000 N 
ATOM      6  N   UNL     1       1.179   9.832  20.129  0.00  0.00    +0.000 NA
ATOM      7  C   UNL     1       1.321   8.509  20.481  0.00  0.00    +0.000 C 
ATOM      8  O   UNL     1       1.128   8.051  21.598  0.00  0.00    +0.000 OA
ATOM      9  H   UNL     1       1.594  11.185  17.208  0.00  0.00    +0.000 HD
ENDROOT
BRANCH   1  16
ATOM     10  C   UNL     1       2.921   4.747  17.774  0.00  0.00    +0.000 A 
ATOM     11  C   UNL     1       3.839   4.201  16.861  0.00  0.00    +0.000 A 
ATOM     12  C   UNL     1       5.132   4.715  16.737  0.00  0.00    +0.000 A 
ATOM     13  C   UNL     1       5.512   5.804  17.512  0.00  0.00    +0.000 A 
ATOM     14 BR   UNL     1       7.262   6.503  17.360  0.00  0.00    +0.000 Br
ATOM     15  C   UNL     1       4.612   6.381  18.407  0.00  0.00    +0.000 A 
ATOM     16  C   UNL     1       3.315   5.858  18.556  0.00  0.00    +0.000 A 
BRANCH  10  17
ATOM     17  O   UNL     1       1.712   4.085  17.749  0.00  0.00    +0.000 OA
BRANCH  17  18
ATOM     18  C   UNL     1       1.633   2.842  18.433  0.00  0.00    +0.000 C 
BRANCH  18  20
ATOM     19  C   UNL     1       1.372   3.219  20.884  0.00  0.00    +0.000 C 
ATOM     20  C   UNL     1       0.828   2.946  19.690  0.00  0.00    +0.000 C 
ENDBRANCH  18  20
ENDBRANCH  17  18
ENDBRANCH  10  17
ENDBRANCH   1  16
BRANCH   5  21
ATOM     21  C   UNL     1       1.258  12.539  18.719  0.00  0.00    +0.000 A 
ATOM     22  C   UNL     1       0.111  13.249  18.357  0.00  0.00    +0.000 A 
ATOM     23  C   UNL     1      -0.166  14.509  18.901  0.00  0.00    +0.000 A 
ATOM     24  C   UNL     1       0.706  15.085  19.827  0.00  0.00    +0.000 A 
ATOM     25 CL   UNL     1       0.283  16.644  20.431  0.00  0.00    +0.000 Cl
ATOM     26  C   UNL     1       1.861  14.396  20.208  0.00  0.00    +0.000 A 
ATOM     27  C   UNL     1       2.121  13.126  19.653  0.00  0.00    +0.000 A 
BRANCH  26  28
ATOM     28  C   UNL     1       2.888  14.923  21.144  0.00  0.00    +0.000 C 
ATOM     29  O   UNL     1       2.946  14.559  22.307  0.00  0.00    +0.000 OA
BRANCH  28  30
ATOM     30  O   UNL     1       3.697  15.880  20.649  0.00  0.00    +0.000 OA
ATOM     31  H   UNL     1       4.622  15.855  20.962  0.00  0.00    +0.000 HD
ENDBRANCH  28  30
ENDBRANCH  26  28
ENDBRANCH   5  21
TORSDOF 7
ENDMDL
MODEL 4
REMARK VINA RESULT:      -7.3      3.460      5.216
REMARK  Name = 
REMARK  7 active torsions:
REMARK  status: ('A' for Active; 'I' for Inactive)
REMARK    1  A    between atoms: C_2  and  C_3
REMARK    2  A    between atoms: C_3  and  O_4
REMARK    3  A    between atoms: O_4  and  C_5
REMARK    4  A    between atoms: C_11  and  C_12
REMARK    5  A    between atoms: N_16  and  C_17
REMARK    6  A    between atoms: C_22  and  C_23
REMARK    7  A    between atoms: C_23  and  O_25
REMARK                            x       y       z     vdW  Elec       q    Type
REMARK                         _______ _______ _______ _____ _____    ______ ____
ROOT
ATOM      1  C   UNL     1       4.204   4.279  18.159  0.00  0.00    +0.000 C 
ATOM      2  C   UNL     1       3.302   5.261  18.321  0.00  0.00    +0.000 C 
ATOM      3  S   UNL     1       3.150   6.725  17.432  0.00  0.00    +0.000 S 
ATOM      4  C   UNL     1       2.271   7.427  18.781  0.00  0.00    +0.000 C 
ATOM      5  N   UNL     1       1.994   8.756  18.652  0.00  0.00    +0.000 N 
ATOM      6  N   UNL     1       1.969   6.613  19.736  0.00  0.00    +0.000 NA
ATOM      7  C   UNL     1       2.452   5.339  19.545  0.00  0.00    +0.000 C 
ATOM      8  O   UNL     1       2.292   4.400  20.311  0.00  0.00    +0.000 OA
ATOM      9  H   UNL     1       2.259   9.184  17.774  0.00  0.00    +0.000 HD
ENDROOT
BRANCH   1  16
ATOM     10  C   UNL     1       6.640   4.680  17.506  0.00  0.00    +0.000 A 
ATOM     11  C   UNL     1       7.599   4.697  16.478  0.00  0.00    +0.000 A 
ATOM     12  C   UNL     1       7.252   4.409  15.156  0.00  0.00    +0.000 A 
ATOM     13  C   UNL     1       5.938   4.072  14.852  0.00  0.00    +0.000 A 
ATOM     14 BR   UNL     1       5.454   3.688  13.066  0.00  0.00    +0.000 Br
ATOM     15  C   UNL     1       4.973   4.022  15.857  0.00  0.00    +0.000 A 
ATOM     16  C   UNL     1       5.306   4.332  17.188  0.00  0.00    +0.000 A 
BRANCH  10  17
ATOM     17  O   UNL     1       7.186   5.008  18.728  0.00  0.00    +0.000 OA
BRANCH  17  18
ATOM     18  C   UNL     1       7.976   6.188  18.795  0.00  0.00    +0.000 C 
BRANCH  18  20
ATOM     19  C   UNL     1       7.975   8.489  17.835  0.00  0.00    +0.000 C 
ATOM     20  C   UNL     1       7.485   7.242  17.853  0.00  0.00    +0.000 C 
ENDBRANCH  18  20
ENDBRANCH  17  18
ENDBRANCH  10  17
ENDBRANCH   1  16
BRANCH   5  21
ATOM     21  C   UNL     1       1.400   9.610  19.593  0.00  0.00    +0.000 A 
ATOM     22  C   UNL     1       1.163  10.939  19.233  0.00  0.00    +0.000 A 
ATOM     23  C   UNL     1       0.499  11.818  20.096  0.00  0.00    +0.000 A 
ATOM     24  C   UNL     1       0.053  11.379  21.345  0.00  0.00    +0.000 A 
ATOM     25 CL   UNL     1      -0.745  12.540  22.340  0.00  0.00    +0.000 Cl
ATOM     26  C   UNL     1       0.276  10.055  21.731  0.00  0.00    +0.000 A 
ATOM     27  C   UNL     1       0.943   9.182  20.846  0.00  0.00    +0.000 A 
BRANCH  26  28
ATOM     28  C   UNL     1      -0.105   9.483  23.049  0.00  0.00    +0.000 C 
ATOM     29  O   UNL     1       0.552   9.692  24.055  0.00  0.00    +0.000 OA
BRANCH  28  30
ATOM     30  O   UNL     1      -1.171   8.659  23.045  0.00  0.00    +0.000 OA
ATOM     31  H   UNL     1      -1.057   7.819  23.528  0.00  0.00    +0.000 HD
ENDBRANCH  28  30
ENDBRANCH  26  28
ENDBRANCH   5  21
TORSDOF 7
ENDMDL
MODEL 5
REMARK VINA RESULT:      -7.1      3.461      4.732
REMARK  Name = 
REMARK  7 active torsions:
REMARK  status: ('A' for Active; 'I' for Inactive)
REMARK    1  A    between atoms: C_2  and  C_3
REMARK    2  A    between atoms: C_3  and  O_4
REMARK    3  A    between atoms: O_4  and  C_5
REMARK    4  A    between atoms: C_11  and  C_12
REMARK    5  A    between atoms: N_16  and  C_17
REMARK    6  A    between atoms: C_22  and  C_23
REMARK    7  A    between atoms: C_23  and  O_25
REMARK                            x       y       z     vdW  Elec       q    Type
REMARK                         _______ _______ _______ _____ _____    ______ ____
ROOT
ATOM      1  C   UNL     1       2.896   6.285  17.881  0.00  0.00    +0.000 C 
ATOM      2  C   UNL     1       2.537   7.253  18.741  0.00  0.00    +0.000 C 
ATOM      3  S   UNL     1       2.199   7.112  20.421  0.00  0.00    +0.000 S 
ATOM      4  C   UNL     1       1.273   8.603  20.337  0.00  0.00    +0.000 C 
ATOM      5  N   UNL     1       0.602   8.924  21.480  0.00  0.00    +0.000 N 
ATOM      6  N   UNL     1       1.339   9.239  19.216  0.00  0.00    +0.000 NA
ATOM      7  C   UNL     1       2.086   8.590  18.259  0.00  0.00    +0.000 C 
ATOM      8  O   UNL     1       2.291   8.999  17.125  0.00  0.00    +0.000 OA
ATOM      9  H   UNL     1       0.757   8.315  22.273  0.00  0.00    +0.000 HD
ENDROOT
BRANCH   1  16
ATOM     10  C   UNL     1       3.687   3.889  17.486  0.00  0.00    +0.000 A 
ATOM     11  C   UNL     1       3.700   2.560  17.942  0.00  0.00    +0.000 A 
ATOM     12  C   UNL     1       3.021   2.185  19.105  0.00  0.00    +0.000 A 
ATOM     13  C   UNL     1       2.341   3.148  19.840  0.00  0.00    +0.000 A 
ATOM     14 BR   UNL     1       1.412   2.653  21.409  0.00  0.00    +0.000 Br
ATOM     15  C   UNL     1       2.334   4.479  19.423  0.00  0.00    +0.000 A 
ATOM     16  C   UNL     1       2.995   4.864  18.243  0.00  0.00    +0.000 A 
BRANCH  10  17
ATOM     17  O   UNL     1       4.402   4.041  16.317  0.00  0.00    +0.000 OA
BRANCH  17  18
ATOM     18  C   UNL     1       5.801   4.264  16.431  0.00  0.00    +0.000 C 
BRANCH  18  20
ATOM     19  C   UNL     1       5.877   4.006  13.952  0.00  0.00    +0.000 C 
ATOM     20  C   UNL     1       6.453   4.409  15.092  0.00  0.00    +0.000 C 
ENDBRANCH  18  20
ENDBRANCH  17  18
ENDBRANCH  10  17
ENDBRANCH   1  16
BRANCH   5  21
ATOM     21  C   UNL     1      -0.290   9.986  21.688  0.00  0.00    +0.000 A 
ATOM     22  C   UNL     1      -0.793  10.192  22.975  0.00  0.00    +0.000 A 
ATOM     23  C   UNL     1      -1.620  11.283  23.266  0.00  0.00    +0.000 A 
ATOM     24  C   UNL     1      -1.959  12.198  22.266  0.00  0.00    +0.000 A 
ATOM     25 CL   UNL     1      -2.992  13.502  22.721  0.00  0.00    +0.000 Cl
ATOM     26  C   UNL     1      -1.469  12.016  20.970  0.00  0.00    +0.000 A 
ATOM     27  C   UNL     1      -0.633  10.914  20.697  0.00  0.00    +0.000 A 
BRANCH  26  28
ATOM     28  C   UNL     1      -1.797  12.890  19.813  0.00  0.00    +0.000 C 
ATOM     29  O   UNL     1      -1.105  13.849  19.514  0.00  0.00    +0.000 OA
BRANCH  28  30
ATOM     30  O   UNL     1      -2.944  12.602  19.168  0.00  0.00    +0.000 OA
ATOM     31  H   UNL     1      -2.887  11.892  18.500  0.00  0.00    +0.000 HD
ENDBRANCH  28  30
ENDBRANCH  26  28
ENDBRANCH   5  21
TORSDOF 7
ENDMDL
MODEL 6
REMARK VINA RESULT:      -7.0      3.588      4.862
REMARK  Name = 
REMARK  7 active torsions:
REMARK  status: ('A' for Active; 'I' for Inactive)
REMARK    1  A    between atoms: C_2  and  C_3
REMARK    2  A    between atoms: C_3  and  O_4
REMARK    3  A    between atoms: O_4  and  C_5
REMARK    4  A    between atoms: C_11  and  C_12
REMARK    5  A    between atoms: N_16  and  C_17
REMARK    6  A    between atoms: C_22  and  C_23
REMARK    7  A    between atoms: C_23  and  O_25
REMARK                            x       y       z     vdW  Elec       q    Type
REMARK                         _______ _______ _______ _____ _____    ______ ____
ROOT
ATOM      1  C   UNL     1       2.898   6.772  18.009  0.00  0.00    +0.000 C 
ATOM      2  C   UNL     1       2.483   7.728  18.856  0.00  0.00    +0.000 C 
ATOM      3  S   UNL     1       2.213   7.607  20.549  0.00  0.00    +0.000 S 
ATOM      4  C   UNL     1       1.156   9.007  20.459  0.00  0.00    +0.000 C 
ATOM      5  N   UNL     1       0.497   9.300  21.616  0.00  0.00    +0.000 N 
ATOM      6  N   UNL     1       1.128   9.613  19.321  0.00  0.00    +0.000 NA
ATOM      7  C   UNL     1       1.898   9.006  18.355  0.00  0.00    +0.000 C 
ATOM      8  O   UNL     1       2.028   9.398  17.205  0.00  0.00    +0.000 OA
ATOM      9  H   UNL     1       0.731   8.731  22.419  0.00  0.00    +0.000 HD
ENDROOT
BRANCH   1  16
ATOM     10  C   UNL     1       4.409   4.829  18.689  0.00  0.00    +0.000 A 
ATOM     11  C   UNL     1       4.498   3.474  19.050  0.00  0.00    +0.000 A 
ATOM     12  C   UNL     1       3.364   2.660  19.101  0.00  0.00    +0.000 A 
ATOM     13  C   UNL     1       2.118   3.205  18.815  0.00  0.00    +0.000 A 
ATOM     14 BR   UNL     1       0.577   2.113  18.872  0.00  0.00    +0.000 Br
ATOM     15  C   UNL     1       1.999   4.553  18.480  0.00  0.00    +0.000 A 
ATOM     16  C   UNL     1       3.137   5.376  18.403  0.00  0.00    +0.000 A 
BRANCH  10  17
ATOM     17  O   UNL     1       5.643   5.445  18.685  0.00  0.00    +0.000 OA
BRANCH  17  18
ATOM     18  C   UNL     1       6.560   5.063  17.669  0.00  0.00    +0.000 C 
BRANCH  18  20
ATOM     19  C   UNL     1       7.553   7.350  17.696  0.00  0.00    +0.000 C 
ATOM     20  C   UNL     1       7.199   6.249  17.019  0.00  0.00    +0.000 C 
ENDBRANCH  18  20
ENDBRANCH  17  18
ENDBRANCH  10  17
ENDBRANCH   1  16
BRANCH   5  21
ATOM     21  C   UNL     1      -0.480  10.284  21.829  0.00  0.00    +0.000 A 
ATOM     22  C   UNL     1      -1.065  10.381  23.093  0.00  0.00    +0.000 A 
ATOM     23  C   UNL     1      -1.983  11.395  23.392  0.00  0.00    +0.000 A 
ATOM     24  C   UNL     1      -2.333  12.339  22.425  0.00  0.00    +0.000 A 
ATOM     25 CL   UNL     1      -3.480  13.541  22.887  0.00  0.00    +0.000 Cl
ATOM     26  C   UNL     1      -1.762  12.266  21.152  0.00  0.00    +0.000 A 
ATOM     27  C   UNL     1      -0.835  11.241  20.870  0.00  0.00    +0.000 A 
BRANCH  26  28
ATOM     28  C   UNL     1      -2.089  13.179  20.025  0.00  0.00    +0.000 C 
ATOM     29  O   UNL     1      -1.424  14.175  19.790  0.00  0.00    +0.000 OA
BRANCH  28  30
ATOM     30  O   UNL     1      -3.206  12.880  19.333  0.00  0.00    +0.000 OA
ATOM     31  H   UNL     1      -3.863  13.599  19.262  0.00  0.00    +0.000 HD
ENDBRANCH  28  30
ENDBRANCH  26  28
ENDBRANCH   5  21
TORSDOF 7
ENDMDL
MODEL 7
REMARK VINA RESULT:      -6.8      3.742      4.857
REMARK  Name = 
REMARK  7 active torsions:
REMARK  status: ('A' for Active; 'I' for Inactive)
REMARK    1  A    between atoms: C_2  and  C_3
REMARK    2  A    between atoms: C_3  and  O_4
REMARK    3  A    between atoms: O_4  and  C_5
REMARK    4  A    between atoms: C_11  and  C_12
REMARK    5  A    between atoms: N_16  and  C_17
REMARK    6  A    between atoms: C_22  and  C_23
REMARK    7  A    between atoms: C_23  and  O_25
REMARK                            x       y       z     vdW  Elec       q    Type
REMARK                         _______ _______ _______ _____ _____    ______ ____
ROOT
ATOM      1  C   UNL     1       2.956   6.654  17.811  0.00  0.00    +0.000 C 
ATOM      2  C   UNL     1       2.543   7.585  18.686  0.00  0.00    +0.000 C 
ATOM      3  S   UNL     1       2.245   7.406  20.370  0.00  0.00    +0.000 S 
ATOM      4  C   UNL     1       1.212   8.826  20.316  0.00  0.00    +0.000 C 
ATOM      5  N   UNL     1       0.539   9.087  21.473  0.00  0.00    +0.000 N 
ATOM      6  N   UNL     1       1.211   9.474  19.201  0.00  0.00    +0.000 NA
ATOM      7  C   UNL     1       1.986   8.890  18.225  0.00  0.00    +0.000 C 
ATOM      8  O   UNL     1       2.141   9.322  17.092  0.00  0.00    +0.000 OA
ATOM      9  H   UNL     1       0.752   8.484  22.258  0.00  0.00    +0.000 HD
ENDROOT
BRANCH   1  16
ATOM     10  C   UNL     1       4.432   4.618  18.262  0.00  0.00    +0.000 A 
ATOM     11  C   UNL     1       4.491   3.255  18.595  0.00  0.00    +0.000 A 
ATOM     12  C   UNL     1       3.329   2.504  18.793  0.00  0.00    +0.000 A 
ATOM     13  C   UNL     1       2.090   3.122  18.685  0.00  0.00    +0.000 A 
ATOM     14 BR   UNL     1       0.511   2.116  18.942  0.00  0.00    +0.000 Br
ATOM     15  C   UNL     1       2.003   4.480  18.381  0.00  0.00    +0.000 A 
ATOM     16  C   UNL     1       3.165   5.241  18.157  0.00  0.00    +0.000 A 
BRANCH  10  17
ATOM     17  O   UNL     1       5.686   5.165  18.095  0.00  0.00    +0.000 OA
BRANCH  17  18
ATOM     18  C   UNL     1       6.601   4.461  17.267  0.00  0.00    +0.000 C 
BRANCH  18  20
ATOM     19  C   UNL     1       5.574   5.551  15.273  0.00  0.00    +0.000 C 
ATOM     20  C   UNL     1       6.645   5.022  15.880  0.00  0.00    +0.000 C 
ENDBRANCH  18  20
ENDBRANCH  17  18
ENDBRANCH  10  17
ENDBRANCH   1  16
BRANCH   5  21
ATOM     21  C   UNL     1      -0.424  10.079  21.707  0.00  0.00    +0.000 A 
ATOM     22  C   UNL     1      -0.808  10.339  23.025  0.00  0.00    +0.000 A 
ATOM     23  C   UNL     1      -1.701  11.372  23.331  0.00  0.00    +0.000 A 
ATOM     24  C   UNL     1      -2.230  12.172  22.316  0.00  0.00    +0.000 A 
ATOM     25 CL   UNL     1      -3.330  13.412  22.793  0.00  0.00    +0.000 Cl
ATOM     26  C   UNL     1      -1.862  11.935  20.989  0.00  0.00    +0.000 A 
ATOM     27  C   UNL     1      -0.957  10.893  20.700  0.00  0.00    +0.000 A 
BRANCH  26  28
ATOM     28  C   UNL     1      -2.392  12.683  19.819  0.00  0.00    +0.000 C 
ATOM     29  O   UNL     1      -3.104  12.150  18.983  0.00  0.00    +0.000 OA
BRANCH  28  30
ATOM     30  O   UNL     1      -1.974  13.958  19.699  0.00  0.00    +0.000 OA
ATOM     31  H   UNL     1      -1.243  14.105  19.068  0.00  0.00    +0.000 HD
ENDBRANCH  28  30
ENDBRANCH  26  28
ENDBRANCH   5  21
TORSDOF 7
ENDMDL
MODEL 8
REMARK VINA RESULT:      -6.8      3.767      5.172
REMARK  Name = 
REMARK  7 active torsions:
REMARK  status: ('A' for Active; 'I' for Inactive)
REMARK    1  A    between atoms: C_2  and  C_3
REMARK    2  A    between atoms: C_3  and  O_4
REMARK    3  A    between atoms: O_4  and  C_5
REMARK    4  A    between atoms: C_11  and  C_12
REMARK    5  A    between atoms: N_16  and  C_17
REMARK    6  A    between atoms: C_22  and  C_23
REMARK    7  A    between atoms: C_23  and  O_25
REMARK                            x       y       z     vdW  Elec       q    Type
REMARK                         _______ _______ _______ _____ _____    ______ ____
ROOT
ATOM      1  C   UNL     1       3.020   6.799  18.209  0.00  0.00    +0.000 C 
ATOM      2  C   UNL     1       2.514   7.831  18.905  0.00  0.00    +0.000 C 
ATOM      3  S   UNL     1       1.975   7.853  20.537  0.00  0.00    +0.000 S 
ATOM      4  C   UNL     1       1.001   9.269  20.174  0.00  0.00    +0.000 C 
ATOM      5  N   UNL     1       0.179   9.671  21.185  0.00  0.00    +0.000 N 
ATOM      6  N   UNL     1       1.177   9.783  19.004  0.00  0.00    +0.000 NA
ATOM      7  C   UNL     1       2.066   9.080  18.223  0.00  0.00    +0.000 C 
ATOM      8  O   UNL     1       2.392   9.375  17.082  0.00  0.00    +0.000 OA
ATOM      9  H   UNL     1       0.261   9.161  22.055  0.00  0.00    +0.000 HD
ENDROOT
BRANCH   1  16
ATOM     10  C   UNL     1       4.311   4.897  19.322  0.00  0.00    +0.000 A 
ATOM     11  C   UNL     1       4.291   3.571  19.786  0.00  0.00    +0.000 A 
ATOM     12  C   UNL     1       3.151   2.773  19.655  0.00  0.00    +0.000 A 
ATOM     13  C   UNL     1       2.005   3.307  19.080  0.00  0.00    +0.000 A 
ATOM     14 BR   UNL     1       0.460   2.235  18.889  0.00  0.00    +0.000 Br
ATOM     15  C   UNL     1       1.990   4.628  18.634  0.00  0.00    +0.000 A 
ATOM     16  C   UNL     1       3.139   5.434  18.740  0.00  0.00    +0.000 A 
BRANCH  10  17
ATOM     17  O   UNL     1       5.533   5.500  19.532  0.00  0.00    +0.000 OA
BRANCH  17  18
ATOM     18  C   UNL     1       6.564   5.231  18.593  0.00  0.00    +0.000 C 
BRANCH  18  20
ATOM     19  C   UNL     1       7.630   7.269  17.630  0.00  0.00    +0.000 C 
ATOM     20  C   UNL     1       7.595   6.315  18.570  0.00  0.00    +0.000 C 
ENDBRANCH  18  20
ENDBRANCH  17  18
ENDBRANCH  10  17
ENDBRANCH   1  16
BRANCH   5  21
ATOM     21  C   UNL     1      -0.780  10.694  21.163  0.00  0.00    +0.000 A 
ATOM     22  C   UNL     1      -1.237  11.155  19.926  0.00  0.00    +0.000 A 
ATOM     23  C   UNL     1      -2.252  12.114  19.839  0.00  0.00    +0.000 A 
ATOM     24  C   UNL     1      -2.836  12.632  20.997  0.00  0.00    +0.000 A 
ATOM     25 CL   UNL     1      -4.071  13.817  20.785  0.00  0.00    +0.000 Cl
ATOM     26  C   UNL     1      -2.399  12.188  22.248  0.00  0.00    +0.000 A 
ATOM     27  C   UNL     1      -1.378  11.218  22.317  0.00  0.00    +0.000 A 
BRANCH  26  28
ATOM     28  C   UNL     1      -2.905  12.697  23.549  0.00  0.00    +0.000 C 
ATOM     29  O   UNL     1      -2.429  13.686  24.083  0.00  0.00    +0.000 OA
BRANCH  28  30
ATOM     30  O   UNL     1      -3.864  11.956  24.136  0.00  0.00    +0.000 OA
ATOM     31  H   UNL     1      -3.584  11.075  24.453  0.00  0.00    +0.000 HD
ENDBRANCH  28  30
ENDBRANCH  26  28
ENDBRANCH   5  21
TORSDOF 7
ENDMDL
MODEL 9
REMARK VINA RESULT:      -6.8      4.233      9.422
REMARK  Name = 
REMARK  7 active torsions:
REMARK  status: ('A' for Active; 'I' for Inactive)
REMARK    1  A    between atoms: C_2  and  C_3
REMARK    2  A    between atoms: C_3  and  O_4
REMARK    3  A    between atoms: O_4  and  C_5
REMARK    4  A    between atoms: C_11  and  C_12
REMARK    5  A    between atoms: N_16  and  C_17
REMARK    6  A    between atoms: C_22  and  C_23
REMARK    7  A    between atoms: C_23  and  O_25
REMARK                            x       y       z     vdW  Elec       q    Type
REMARK                         _______ _______ _______ _____ _____    ______ ____
ROOT
ATOM      1  C   UNL     1      -0.736  13.027  19.234  0.00  0.00    +0.000 C 
ATOM      2  C   UNL     1      -0.444  11.770  19.607  0.00  0.00    +0.000 C 
ATOM      3  S   UNL     1       0.806  11.234  20.659  0.00  0.00    +0.000 S 
ATOM      4  C   UNL     1       0.710   9.640  19.925  0.00  0.00    +0.000 C 
ATOM      5  N   UNL     1       1.672   8.765  20.335  0.00  0.00    +0.000 N 
ATOM      6  N   UNL     1      -0.263   9.465  19.096  0.00  0.00    +0.000 NA
ATOM      7  C   UNL     1      -1.021  10.595  18.891  0.00  0.00    +0.000 C 
ATOM      8  O   UNL     1      -1.992  10.670  18.153  0.00  0.00    +0.000 OA
ATOM      9  H   UNL     1       2.295   9.094  21.060  0.00  0.00    +0.000 HD
ENDROOT
BRANCH   1  16
ATOM     10  C   UNL     1      -0.208  14.993  20.777  0.00  0.00    +0.000 A 
ATOM     11  C   UNL     1       0.621  16.096  21.041  0.00  0.00    +0.000 A 
ATOM     12  C   UNL     1       1.667  16.440  20.182  0.00  0.00    +0.000 A 
ATOM     13  C   UNL     1       1.913  15.661  19.058  0.00  0.00    +0.000 A 
ATOM     14 BR   UNL     1       3.321  16.120  17.884  0.00  0.00    +0.000 Br
ATOM     15  C   UNL     1       1.122  14.545  18.787  0.00  0.00    +0.000 A 
ATOM     16  C   UNL     1       0.051  14.202  19.633  0.00  0.00    +0.000 A 
BRANCH  10  17
ATOM     17  O   UNL     1      -1.186  14.839  21.737  0.00  0.00    +0.000 OA
BRANCH  17  18
ATOM     18  C   UNL     1      -0.960  13.870  22.751  0.00  0.00    +0.000 C 
BRANCH  18  20
ATOM     19  C   UNL     1      -1.880  11.598  23.208  0.00  0.00    +0.000 C 
ATOM     20  C   UNL     1      -2.068  12.866  22.821  0.00  0.00    +0.000 C 
ENDBRANCH  18  20
ENDBRANCH  17  18
ENDBRANCH  10  17
ENDBRANCH   1  16
BRANCH   5  21
ATOM     21  C   UNL     1       1.915   7.467  19.862  0.00  0.00    +0.000 A 
ATOM     22  C   UNL     1       2.551   7.314  18.628  0.00  0.00    +0.000 A 
ATOM     23  C   UNL     1       2.897   6.048  18.141  0.00  0.00    +0.000 A 
ATOM     24  C   UNL     1       2.614   4.903  18.888  0.00  0.00    +0.000 A 
ATOM     25 CL   UNL     1       3.070   3.389  18.198  0.00  0.00    +0.000 Cl
ATOM     26  C   UNL     1       1.980   5.027  20.127  0.00  0.00    +0.000 A 
ATOM     27  C   UNL     1       1.643   6.310  20.604  0.00  0.00    +0.000 A 
BRANCH  26  28
ATOM     28  C   UNL     1       1.582   3.884  20.991  0.00  0.00    +0.000 C 
ATOM     29  O   UNL     1       2.210   3.587  21.994  0.00  0.00    +0.000 OA
BRANCH  28  30
ATOM     30  O   UNL     1       0.538   3.154  20.554  0.00  0.00    +0.000 OA
ATOM     31  H   UNL     1       0.368   3.192  19.593  0.00  0.00    +0.000 HD
ENDBRANCH  28  30
ENDBRANCH  26  28
ENDBRANCH   5  21
TORSDOF 7
ENDMDL
