MODEL 1
REMARK VINA RESULT:      -8.3      0.000      0.000
REMARK  Name = 
REMARK  8 active torsions:
REMARK  status: ('A' for Active; 'I' for Inactive)
REMARK    1  A    between atoms: C_1  and  O_2
REMARK    2  A    between atoms: O_2  and  C_3
REMARK    3  A    between atoms: C_7  and  C_8
REMARK    4  A    between atoms: C_11  and  S_12
REMARK    5  A    between atoms: S_12  and  C_13
REMARK    6  A    between atoms: C_13  and  C_14
REMARK    7  A    between atoms: C_16  and  N_17
REMARK    8  A    between atoms: C_21  and  N_22
REMARK                            x       y       z     vdW  Elec       q    Type
REMARK                         _______ _______ _______ _____ _____    ______ ____
ROOT
ATOM      1  S   UNL     1       7.478   5.801  18.534  0.00  0.00    +0.000 S 
ENDROOT
BRANCH   1   5
ATOM      2  C   UNL     1       8.674   9.425  18.332  0.00  0.00    +0.000 A 
ATOM      3  N   UNL     1       7.880   9.424  17.278  0.00  0.00    +0.000 NA
ATOM      4  N   UNL     1       7.355   8.152  17.182  0.00  0.00    +0.000 NA
ATOM      5  C   UNL     1       7.856   7.460  18.184  0.00  0.00    +0.000 A 
ATOM      6  O   UNL     1       8.709   8.205  18.958  0.00  0.00    +0.000 OA
BRANCH   2  11
ATOM      7  C   UNL     1      11.037  12.364  18.694  0.00  0.00    +0.000 A 
ATOM      8  C   UNL     1      10.978  12.564  20.074  0.00  0.00    +0.000 A 
ATOM      9  C   UNL     1      10.172  11.757  20.873  0.00  0.00    +0.000 A 
ATOM     10  C   UNL     1       9.418  10.737  20.290  0.00  0.00    +0.000 A 
ATOM     11  C   UNL     1       9.466  10.510  18.905  0.00  0.00    +0.000 A 
ATOM     12  C   UNL     1      10.281  11.340  18.113  0.00  0.00    +0.000 A 
BRANCH   7  14
ATOM     13  C   UNL     1      11.562  14.612  18.117  0.00  0.00    +0.000 C 
ATOM     14  O   UNL     1      11.868  13.227  18.033  0.00  0.00    +0.000 OA
ENDBRANCH   7  14
ENDBRANCH   2  11
ENDBRANCH   1   5
BRANCH   1  15
ATOM     15  C   UNL     1       6.489   5.365  17.072  0.00  0.00    +0.000 C 
BRANCH  15  16
ATOM     16  C   UNL     1       5.009   5.383  17.396  0.00  0.00    +0.000 A 
ATOM     17  C   UNL     1       4.349   6.597  17.656  0.00  0.00    +0.000 A 
ATOM     18  C   UNL     1       2.986   6.605  18.005  0.00  0.00    +0.000 A 
ATOM     19  C   UNL     1       2.259   5.412  18.091  0.00  0.00    +0.000 A 
ATOM     20  C   UNL     1       2.918   4.204  17.832  0.00  0.00    +0.000 A 
ATOM     21  C   UNL     1       4.282   4.184  17.490  0.00  0.00    +0.000 A 
BRANCH  18  22
ATOM     22  N   UNL     1       2.319   7.880  18.304  0.00  0.00    +0.000 N 
ATOM     23  O   UNL     1       2.222   8.707  17.387  0.00  0.00    +0.000 OA
ATOM     24  O   UNL     1       1.898   8.052  19.456  0.00  0.00    +0.000 OA
ENDBRANCH  18  22
BRANCH  20  25
ATOM     25  N   UNL     1       2.174   2.939  17.931  0.00  0.00    +0.000 N 
ATOM     26  O   UNL     1       2.818   1.886  17.854  0.00  0.00    +0.000 OA
ATOM     27  O   UNL     1       0.947   3.008  18.086  0.00  0.00    +0.000 OA
ENDBRANCH  20  25
ENDBRANCH  15  16
ENDBRANCH   1  15
TORSDOF 7
ENDMDL
MODEL 2
REMARK VINA RESULT:      -8.2      4.878      7.752
REMARK  Name = 
REMARK  8 active torsions:
REMARK  status: ('A' for Active; 'I' for Inactive)
REMARK    1  A    between atoms: C_1  and  O_2
REMARK    2  A    between atoms: O_2  and  C_3
REMARK    3  A    between atoms: C_7  and  C_8
REMARK    4  A    between atoms: C_11  and  S_12
REMARK    5  A    between atoms: S_12  and  C_13
REMARK    6  A    between atoms: C_13  and  C_14
REMARK    7  A    between atoms: C_16  and  N_17
REMARK    8  A    between atoms: C_21  and  N_22
REMARK                            x       y       z     vdW  Elec       q    Type
REMARK                         _______ _______ _______ _____ _____    ______ ____
ROOT
ATOM      1  S   UNL     1       4.010   2.674  19.267  0.00  0.00    +0.000 S 
ENDROOT
BRANCH   1   5
ATOM      2  C   UNL     1       2.022   5.787  20.244  0.00  0.00    +0.000 A 
ATOM      3  N   UNL     1       1.542   4.959  21.151  0.00  0.00    +0.000 NA
ATOM      4  N   UNL     1       2.153   3.741  20.935  0.00  0.00    +0.000 NA
ATOM      5  C   UNL     1       2.971   3.905  19.916  0.00  0.00    +0.000 A 
ATOM      6  O   UNL     1       2.938   5.184  19.421  0.00  0.00    +0.000 OA
BRANCH   2  11
ATOM      7  C   UNL     1       0.944   9.377  20.801  0.00  0.00    +0.000 A 
ATOM      8  C   UNL     1       1.191   9.912  19.534  0.00  0.00    +0.000 A 
ATOM      9  C   UNL     1       1.710   9.113  18.518  0.00  0.00    +0.000 A 
ATOM     10  C   UNL     1       1.983   7.767  18.765  0.00  0.00    +0.000 A 
ATOM     11  C   UNL     1       1.736   7.203  20.026  0.00  0.00    +0.000 A 
ATOM     12  C   UNL     1       1.218   8.026  21.044  0.00  0.00    +0.000 A 
BRANCH   7  14
ATOM     13  C   UNL     1      -0.105   9.742  22.905  0.00  0.00    +0.000 C 
ATOM     14  O   UNL     1       0.435  10.272  21.702  0.00  0.00    +0.000 OA
ENDBRANCH   7  14
ENDBRANCH   2  11
ENDBRANCH   1   5
BRANCH   1  15
ATOM     15  C   UNL     1       3.955   3.084  17.497  0.00  0.00    +0.000 C 
BRANCH  15  16
ATOM     16  C   UNL     1       5.146   3.933  17.102  0.00  0.00    +0.000 A 
ATOM     17  C   UNL     1       5.543   4.026  15.756  0.00  0.00    +0.000 A 
ATOM     18  C   UNL     1       6.679   4.775  15.400  0.00  0.00    +0.000 A 
ATOM     19  C   UNL     1       7.430   5.447  16.371  0.00  0.00    +0.000 A 
ATOM     20  C   UNL     1       7.035   5.353  17.710  0.00  0.00    +0.000 A 
ATOM     21  C   UNL     1       5.905   4.601  18.079  0.00  0.00    +0.000 A 
BRANCH  18  22
ATOM     22  N   UNL     1       7.097   4.836  13.992  0.00  0.00    +0.000 N 
ATOM     23  O   UNL     1       8.010   5.620  13.697  0.00  0.00    +0.000 OA
ATOM     24  O   UNL     1       6.509   4.102  13.186  0.00  0.00    +0.000 OA
ENDBRANCH  18  22
BRANCH  20  25
ATOM     25  N   UNL     1       7.821   6.041  18.746  0.00  0.00    +0.000 N 
ATOM     26  O   UNL     1       8.202   7.193  18.507  0.00  0.00    +0.000 OA
ATOM     27  O   UNL     1       8.052   5.422  19.793  0.00  0.00    +0.000 OA
ENDBRANCH  20  25
ENDBRANCH  15  16
ENDBRANCH   1  15
TORSDOF 7
ENDMDL
MODEL 3
REMARK VINA RESULT:      -8.1      0.403      2.912
REMARK  Name = 
REMARK  8 active torsions:
REMARK  status: ('A' for Active; 'I' for Inactive)
REMARK    1  A    between atoms: C_1  and  O_2
REMARK    2  A    between atoms: O_2  and  C_3
REMARK    3  A    between atoms: C_7  and  C_8
REMARK    4  A    between atoms: C_11  and  S_12
REMARK    5  A    between atoms: S_12  and  C_13
REMARK    6  A    between atoms: C_13  and  C_14
REMARK    7  A    between atoms: C_16  and  N_17
REMARK    8  A    between atoms: C_21  and  N_22
REMARK                            x       y       z     vdW  Elec       q    Type
REMARK                         _______ _______ _______ _____ _____    ______ ____
ROOT
ATOM      1  S   UNL     1       7.521   5.806  18.522  0.00  0.00    +0.000 S 
ENDROOT
BRANCH   1   5
ATOM      2  C   UNL     1       8.544   9.477  18.241  0.00  0.00    +0.000 A 
ATOM      3  N   UNL     1       7.815   9.395  17.145  0.00  0.00    +0.000 NA
ATOM      4  N   UNL     1       7.362   8.094  17.070  0.00  0.00    +0.000 NA
ATOM      5  C   UNL     1       7.836   7.468  18.127  0.00  0.00    +0.000 A 
ATOM      6  O   UNL     1       8.603   8.285  18.918  0.00  0.00    +0.000 OA
BRANCH   2  11
ATOM      7  C   UNL     1      10.420  12.750  18.595  0.00  0.00    +0.000 A 
ATOM      8  C   UNL     1      10.601  12.786  19.979  0.00  0.00    +0.000 A 
ATOM      9  C   UNL     1      10.109  11.762  20.784  0.00  0.00    +0.000 A 
ATOM     10  C   UNL     1       9.433  10.688  20.204  0.00  0.00    +0.000 A 
ATOM     11  C   UNL     1       9.245  10.623  18.815  0.00  0.00    +0.000 A 
ATOM     12  C   UNL     1       9.743  11.670  18.016  0.00  0.00    +0.000 A 
BRANCH   7  14
ATOM     13  C   UNL     1      12.333  13.752  17.596  0.00  0.00    +0.000 C 
ATOM     14  O   UNL     1      10.953  13.818  17.927  0.00  0.00    +0.000 OA
ENDBRANCH   7  14
ENDBRANCH   2  11
ENDBRANCH   1   5
BRANCH   1  15
ATOM     15  C   UNL     1       6.447   5.327  17.136  0.00  0.00    +0.000 C 
BRANCH  15  16
ATOM     16  C   UNL     1       4.989   5.355  17.548  0.00  0.00    +0.000 A 
ATOM     17  C   UNL     1       4.246   4.164  17.628  0.00  0.00    +0.000 A 
ATOM     18  C   UNL     1       2.881   4.199  17.963  0.00  0.00    +0.000 A 
ATOM     19  C   UNL     1       2.237   5.413  18.230  0.00  0.00    +0.000 A 
ATOM     20  C   UNL     1       2.978   6.597  18.149  0.00  0.00    +0.000 A 
ATOM     21  C   UNL     1       4.342   6.575  17.808  0.00  0.00    +0.000 A 
BRANCH  18  22
ATOM     22  N   UNL     1       2.112   2.947  18.012  0.00  0.00    +0.000 N 
ATOM     23  O   UNL     1       2.746   1.885  18.073  0.00  0.00    +0.000 OA
ATOM     24  O   UNL     1       0.876   3.030  17.986  0.00  0.00    +0.000 OA
ENDBRANCH  18  22
BRANCH  20  25
ATOM     25  N   UNL     1       2.315   7.884  18.413  0.00  0.00    +0.000 N 
ATOM     26  O   UNL     1       1.873   8.080  19.551  0.00  0.00    +0.000 OA
ATOM     27  O   UNL     1       2.240   8.691  17.477  0.00  0.00    +0.000 OA
ENDBRANCH  20  25
ENDBRANCH  15  16
ENDBRANCH   1  15
TORSDOF 7
ENDMDL
MODEL 4
REMARK VINA RESULT:      -8.1      4.834      7.909
REMARK  Name = 
REMARK  8 active torsions:
REMARK  status: ('A' for Active; 'I' for Inactive)
REMARK    1  A    between atoms: C_1  and  O_2
REMARK    2  A    between atoms: O_2  and  C_3
REMARK    3  A    between atoms: C_7  and  C_8
REMARK    4  A    between atoms: C_11  and  S_12
REMARK    5  A    between atoms: S_12  and  C_13
REMARK    6  A    between atoms: C_13  and  C_14
REMARK    7  A    between atoms: C_16  and  N_17
REMARK    8  A    between atoms: C_21  and  N_22
REMARK                            x       y       z     vdW  Elec       q    Type
REMARK                         _______ _______ _______ _____ _____    ______ ____
ROOT
ATOM      1  S   UNL     1       2.957   4.933  19.780  0.00  0.00    +0.000 S 
ENDROOT
BRANCH   1   5
ATOM      2  C   UNL     1       1.355   8.376  20.213  0.00  0.00    +0.000 A 
ATOM      3  N   UNL     1       1.850   8.544  19.002  0.00  0.00    +0.000 NA
ATOM      4  N   UNL     1       2.499   7.371  18.675  0.00  0.00    +0.000 NA
ATOM      5  C   UNL     1       2.353   6.560  19.703  0.00  0.00    +0.000 A 
ATOM      6  O   UNL     1       1.638   7.135  20.723  0.00  0.00    +0.000 OA
BRANCH   2  11
ATOM      7  C   UNL     1      -0.763  11.315  21.321  0.00  0.00    +0.000 A 
ATOM      8  C   UNL     1      -0.931  11.007  22.674  0.00  0.00    +0.000 A 
ATOM      9  C   UNL     1      -0.367   9.852  23.211  0.00  0.00    +0.000 A 
ATOM     10  C   UNL     1       0.374   8.997  22.394  0.00  0.00    +0.000 A 
ATOM     11  C   UNL     1       0.563   9.288  21.034  0.00  0.00    +0.000 A 
ATOM     12  C   UNL     1      -0.019  10.455  20.506  0.00  0.00    +0.000 A 
BRANCH   7  14
ATOM     13  C   UNL     1      -0.634  13.329  20.060  0.00  0.00    +0.000 C 
ATOM     14  O   UNL     1      -1.369  12.477  20.928  0.00  0.00    +0.000 OA
ENDBRANCH   7  14
ENDBRANCH   2  11
ENDBRANCH   1   5
BRANCH   1  15
ATOM     15  C   UNL     1       3.171   4.570  18.012  0.00  0.00    +0.000 C 
BRANCH  15  16
ATOM     16  C   UNL     1       4.585   4.882  17.563  0.00  0.00    +0.000 A 
ATOM     17  C   UNL     1       4.970   4.685  16.225  0.00  0.00    +0.000 A 
ATOM     18  C   UNL     1       6.296   4.928  15.825  0.00  0.00    +0.000 A 
ATOM     19  C   UNL     1       7.253   5.379  16.741  0.00  0.00    +0.000 A 
ATOM     20  C   UNL     1       6.867   5.575  18.072  0.00  0.00    +0.000 A 
ATOM     21  C   UNL     1       5.547   5.327  18.486  0.00  0.00    +0.000 A 
BRANCH  18  22
ATOM     22  N   UNL     1       6.690   4.687  14.429  0.00  0.00    +0.000 N 
ATOM     23  O   UNL     1       7.692   5.277  14.004  0.00  0.00    +0.000 OA
ATOM     24  O   UNL     1       5.992   3.910  13.762  0.00  0.00    +0.000 OA
ENDBRANCH  18  22
BRANCH  20  25
ATOM     25  N   UNL     1       7.864   6.035  19.053  0.00  0.00    +0.000 N 
ATOM     26  O   UNL     1       8.147   5.271  19.984  0.00  0.00    +0.000 OA
ATOM     27  O   UNL     1       8.354   7.158  18.885  0.00  0.00    +0.000 OA
ENDBRANCH  20  25
ENDBRANCH  15  16
ENDBRANCH   1  15
TORSDOF 7
ENDMDL
MODEL 5
REMARK VINA RESULT:      -8.0      1.182      2.956
REMARK  Name = 
REMARK  8 active torsions:
REMARK  status: ('A' for Active; 'I' for Inactive)
REMARK    1  A    between atoms: C_1  and  O_2
REMARK    2  A    between atoms: O_2  and  C_3
REMARK    3  A    between atoms: C_7  and  C_8
REMARK    4  A    between atoms: C_11  and  S_12
REMARK    5  A    between atoms: S_12  and  C_13
REMARK    6  A    between atoms: C_13  and  C_14
REMARK    7  A    between atoms: C_16  and  N_17
REMARK    8  A    between atoms: C_21  and  N_22
REMARK                            x       y       z     vdW  Elec       q    Type
REMARK                         _______ _______ _______ _____ _____    ______ ____
ROOT
ATOM      1  S   UNL     1       7.574   5.624  18.453  0.00  0.00    +0.000 S 
ENDROOT
BRANCH   1   5
ATOM      2  C   UNL     1       8.574   9.308  18.274  0.00  0.00    +0.000 A 
ATOM      3  N   UNL     1       7.698   9.298  17.288  0.00  0.00    +0.000 NA
ATOM      4  N   UNL     1       7.229   8.004  17.192  0.00  0.00    +0.000 NA
ATOM      5  C   UNL     1       7.842   7.310  18.129  0.00  0.00    +0.000 A 
ATOM      6  O   UNL     1       8.719   8.074  18.856  0.00  0.00    +0.000 OA
BRANCH   2  11
ATOM      7  C   UNL     1      10.871  12.309  18.547  0.00  0.00    +0.000 A 
ATOM      8  C   UNL     1      10.857  12.511  19.929  0.00  0.00    +0.000 A 
ATOM      9  C   UNL     1      10.100  11.684  20.757  0.00  0.00    +0.000 A 
ATOM     10  C   UNL     1       9.354  10.644  20.202  0.00  0.00    +0.000 A 
ATOM     11  C   UNL     1       9.358  10.415  18.817  0.00  0.00    +0.000 A 
ATOM     12  C   UNL     1      10.122  11.264  17.995  0.00  0.00    +0.000 A 
BRANCH   7  14
ATOM     13  C   UNL     1      11.111  14.481  17.606  0.00  0.00    +0.000 C 
ATOM     14  O   UNL     1      11.655  13.192  17.856  0.00  0.00    +0.000 OA
ENDBRANCH   7  14
ENDBRANCH   2  11
ENDBRANCH   1   5
BRANCH   1  15
ATOM     15  C   UNL     1       6.132   5.302  17.394  0.00  0.00    +0.000 C 
BRANCH  15  16
ATOM     16  C   UNL     1       4.841   5.537  18.151  0.00  0.00    +0.000 A 
ATOM     17  C   UNL     1       4.319   4.545  19.000  0.00  0.00    +0.000 A 
ATOM     18  C   UNL     1       3.095   4.748  19.662  0.00  0.00    +0.000 A 
ATOM     19  C   UNL     1       2.378   5.939  19.499  0.00  0.00    +0.000 A 
ATOM     20  C   UNL     1       2.899   6.926  18.654  0.00  0.00    +0.000 A 
ATOM     21  C   UNL     1       4.118   6.731  17.980  0.00  0.00    +0.000 A 
BRANCH  18  22
ATOM     22  N   UNL     1       2.549   3.688  20.521  0.00  0.00    +0.000 N 
ATOM     23  O   UNL     1       1.640   3.994  21.304  0.00  0.00    +0.000 OA
ATOM     24  O   UNL     1       3.034   2.553  20.412  0.00  0.00    +0.000 OA
ENDBRANCH  18  22
BRANCH  20  25
ATOM     25  N   UNL     1       2.152   8.179  18.459  0.00  0.00    +0.000 N 
ATOM     26  O   UNL     1       1.537   8.637  19.428  0.00  0.00    +0.000 OA
ATOM     27  O   UNL     1       2.186   8.695  17.334  0.00  0.00    +0.000 OA
ENDBRANCH  20  25
ENDBRANCH  15  16
ENDBRANCH   1  15
TORSDOF 7
ENDMDL
MODEL 6
REMARK VINA RESULT:      -7.9      4.911      7.709
REMARK  Name = 
REMARK  8 active torsions:
REMARK  status: ('A' for Active; 'I' for Inactive)
REMARK    1  A    between atoms: C_1  and  O_2
REMARK    2  A    between atoms: O_2  and  C_3
REMARK    3  A    between atoms: C_7  and  C_8
REMARK    4  A    between atoms: C_11  and  S_12
REMARK    5  A    between atoms: S_12  and  C_13
REMARK    6  A    between atoms: C_13  and  C_14
REMARK    7  A    between atoms: C_16  and  N_17
REMARK    8  A    between atoms: C_21  and  N_22
REMARK                            x       y       z     vdW  Elec       q    Type
REMARK                         _______ _______ _______ _____ _____    ______ ____
ROOT
ATOM      1  S   UNL     1       2.232   3.818  17.656  0.00  0.00    +0.000 S 
ENDROOT
BRANCH   1   5
ATOM      2  C   UNL     1       1.762   6.915  19.846  0.00  0.00    +0.000 A 
ATOM      3  N   UNL     1       2.164   6.076  20.781  0.00  0.00    +0.000 NA
ATOM      4  N   UNL     1       2.372   4.863  20.158  0.00  0.00    +0.000 NA
ATOM      5  C   UNL     1       2.093   5.040  18.884  0.00  0.00    +0.000 A 
ATOM      6  O   UNL     1       1.692   6.323  18.611  0.00  0.00    +0.000 OA
BRANCH   2  11
ATOM      7  C   UNL     1       0.662  10.274  21.211  0.00  0.00    +0.000 A 
ATOM      8  C   UNL     1       0.761  11.057  20.059  0.00  0.00    +0.000 A 
ATOM      9  C   UNL     1       1.189  10.497  18.857  0.00  0.00    +0.000 A 
ATOM     10  C   UNL     1       1.519   9.142  18.802  0.00  0.00    +0.000 A 
ATOM     11  C   UNL     1       1.421   8.332  19.944  0.00  0.00    +0.000 A 
ATOM     12  C   UNL     1       0.993   8.915  21.152  0.00  0.00    +0.000 A 
BRANCH   7  14
ATOM     13  C   UNL     1      -0.762  10.320  23.117  0.00  0.00    +0.000 C 
ATOM     14  O   UNL     1       0.230  10.951  22.319  0.00  0.00    +0.000 OA
ENDBRANCH   7  14
ENDBRANCH   2  11
ENDBRANCH   1   5
BRANCH   1  15
ATOM     15  C   UNL     1       3.789   3.021  18.150  0.00  0.00    +0.000 C 
BRANCH  15  16
ATOM     16  C   UNL     1       4.982   3.834  17.691  0.00  0.00    +0.000 A 
ATOM     17  C   UNL     1       5.331   3.886  16.330  0.00  0.00    +0.000 A 
ATOM     18  C   UNL     1       6.468   4.602  15.914  0.00  0.00    +0.000 A 
ATOM     19  C   UNL     1       7.268   5.281  16.840  0.00  0.00    +0.000 A 
ATOM     20  C   UNL     1       6.920   5.228  18.195  0.00  0.00    +0.000 A 
ATOM     21  C   UNL     1       5.790   4.509  18.623  0.00  0.00    +0.000 A 
BRANCH  18  22
ATOM     22  N   UNL     1       6.836   4.620  14.491  0.00  0.00    +0.000 N 
ATOM     23  O   UNL     1       7.616   5.504  14.110  0.00  0.00    +0.000 OA
ATOM     24  O   UNL     1       6.340   3.753  13.759  0.00  0.00    +0.000 OA
ENDBRANCH  18  22
BRANCH  20  25
ATOM     25  N   UNL     1       7.757   5.924  19.185  0.00  0.00    +0.000 N 
ATOM     26  O   UNL     1       8.309   6.973  18.833  0.00  0.00    +0.000 OA
ATOM     27  O   UNL     1       7.857   5.414  20.308  0.00  0.00    +0.000 OA
ENDBRANCH  20  25
ENDBRANCH  15  16
ENDBRANCH   1  15
TORSDOF 7
ENDMDL
MODEL 7
REMARK VINA RESULT:      -7.9      4.775      8.186
REMARK  Name = 
REMARK  8 active torsions:
REMARK  status: ('A' for Active; 'I' for Inactive)
REMARK    1  A    between atoms: C_1  and  O_2
REMARK    2  A    between atoms: O_2  and  C_3
REMARK    3  A    between atoms: C_7  and  C_8
REMARK    4  A    between atoms: C_11  and  S_12
REMARK    5  A    between atoms: S_12  and  C_13
REMARK    6  A    between atoms: C_13  and  C_14
REMARK    7  A    between atoms: C_16  and  N_17
REMARK    8  A    between atoms: C_21  and  N_22
REMARK                            x       y       z     vdW  Elec       q    Type
REMARK                         _______ _______ _______ _____ _____    ______ ____
ROOT
ATOM      1  S   UNL     1       2.851   6.168  19.360  0.00  0.00    +0.000 S 
ENDROOT
BRANCH   1   5
ATOM      2  C   UNL     1       1.094   9.458  18.528  0.00  0.00    +0.000 A 
ATOM      3  N   UNL     1       2.000   9.476  17.570  0.00  0.00    +0.000 NA
ATOM      4  N   UNL     1       2.761   8.335  17.728  0.00  0.00    +0.000 NA
ATOM      5  C   UNL     1       2.267   7.693  18.765  0.00  0.00    +0.000 A 
ATOM      6  O   UNL     1       1.204   8.351  19.330  0.00  0.00    +0.000 OA
BRANCH   2  11
ATOM      7  C   UNL     1      -2.125  11.444  18.306  0.00  0.00    +0.000 A 
ATOM      8  C   UNL     1      -1.989  12.268  19.425  0.00  0.00    +0.000 A 
ATOM      9  C   UNL     1      -0.867  12.169  20.245  0.00  0.00    +0.000 A 
ATOM     10  C   UNL     1       0.131  11.242  19.943  0.00  0.00    +0.000 A 
ATOM     11  C   UNL     1       0.022  10.408  18.820  0.00  0.00    +0.000 A 
ATOM     12  C   UNL     1      -1.121  10.516  18.006  0.00  0.00    +0.000 A 
BRANCH   7  14
ATOM     13  C   UNL     1      -3.359  11.032  16.313  0.00  0.00    +0.000 C 
ATOM     14  O   UNL     1      -3.274  11.647  17.591  0.00  0.00    +0.000 OA
ENDBRANCH   7  14
ENDBRANCH   2  11
ENDBRANCH   1   5
BRANCH   1  15
ATOM     15  C   UNL     1       3.124   5.279  17.799  0.00  0.00    +0.000 C 
BRANCH  15  16
ATOM     16  C   UNL     1       4.590   5.298  17.416  0.00  0.00    +0.000 A 
ATOM     17  C   UNL     1       5.571   5.648  18.359  0.00  0.00    +0.000 A 
ATOM     18  C   UNL     1       6.926   5.712  17.986  0.00  0.00    +0.000 A 
ATOM     19  C   UNL     1       7.325   5.422  16.676  0.00  0.00    +0.000 A 
ATOM     20  C   UNL     1       6.347   5.074  15.738  0.00  0.00    +0.000 A 
ATOM     21  C   UNL     1       4.989   5.014  16.098  0.00  0.00    +0.000 A 
BRANCH  18  22
ATOM     22  N   UNL     1       7.935   6.110  18.978  0.00  0.00    +0.000 N 
ATOM     23  O   UNL     1       8.447   7.232  18.859  0.00  0.00    +0.000 OA
ATOM     24  O   UNL     1       8.215   5.298  19.870  0.00  0.00    +0.000 OA
ENDBRANCH  18  22
BRANCH  20  25
ATOM     25  N   UNL     1       6.746   4.780  14.352  0.00  0.00    +0.000 N 
ATOM     26  O   UNL     1       6.072   3.955  13.724  0.00  0.00    +0.000 OA
ATOM     27  O   UNL     1       7.734   5.376  13.904  0.00  0.00    +0.000 OA
ENDBRANCH  20  25
ENDBRANCH  15  16
ENDBRANCH   1  15
TORSDOF 7
ENDMDL
MODEL 8
REMARK VINA RESULT:      -7.9      5.150      7.543
REMARK  Name = 
REMARK  8 active torsions:
REMARK  status: ('A' for Active; 'I' for Inactive)
REMARK    1  A    between atoms: C_1  and  O_2
REMARK    2  A    between atoms: O_2  and  C_3
REMARK    3  A    between atoms: C_7  and  C_8
REMARK    4  A    between atoms: C_11  and  S_12
REMARK    5  A    between atoms: S_12  and  C_13
REMARK    6  A    between atoms: C_13  and  C_14
REMARK    7  A    between atoms: C_16  and  N_17
REMARK    8  A    between atoms: C_21  and  N_22
REMARK                            x       y       z     vdW  Elec       q    Type
REMARK                         _______ _______ _______ _____ _____    ______ ____
ROOT
ATOM      1  S   UNL     1       2.733   2.772  18.423  0.00  0.00    +0.000 S 
ENDROOT
BRANCH   1   5
ATOM      2  C   UNL     1       1.997   6.036  20.269  0.00  0.00    +0.000 A 
ATOM      3  N   UNL     1       2.222   5.268  21.317  0.00  0.00    +0.000 NA
ATOM      4  N   UNL     1       2.497   4.007  20.829  0.00  0.00    +0.000 NA
ATOM      5  C   UNL     1       2.430   4.087  19.517  0.00  0.00    +0.000 A 
ATOM      6  O   UNL     1       2.110   5.350  19.087  0.00  0.00    +0.000 OA
BRANCH   2  11
ATOM      7  C   UNL     1       0.969   9.550  21.243  0.00  0.00    +0.000 A 
ATOM      8  C   UNL     1       1.064  10.191  20.006  0.00  0.00    +0.000 A 
ATOM      9  C   UNL     1       1.467   9.487  18.874  0.00  0.00    +0.000 A 
ATOM     10  C   UNL     1       1.774   8.129  18.974  0.00  0.00    +0.000 A 
ATOM     11  C   UNL     1       1.679   7.460  20.204  0.00  0.00    +0.000 A 
ATOM     12  C   UNL     1       1.278   8.188  21.340  0.00  0.00    +0.000 A 
BRANCH   7  14
ATOM     13  C   UNL     1      -0.504   9.890  23.081  0.00  0.00    +0.000 C 
ATOM     14  O   UNL     1       0.563  10.360  22.269  0.00  0.00    +0.000 OA
ENDBRANCH   7  14
ENDBRANCH   2  11
ENDBRANCH   1   5
BRANCH   1  15
ATOM     15  C   UNL     1       2.965   3.676  16.864  0.00  0.00    +0.000 C 
BRANCH  15  16
ATOM     16  C   UNL     1       4.395   4.158  16.725  0.00  0.00    +0.000 A 
ATOM     17  C   UNL     1       5.106   4.618  17.846  0.00  0.00    +0.000 A 
ATOM     18  C   UNL     1       6.416   5.111  17.704  0.00  0.00    +0.000 A 
ATOM     19  C   UNL     1       7.040   5.144  16.452  0.00  0.00    +0.000 A 
ATOM     20  C   UNL     1       6.330   4.685  15.336  0.00  0.00    +0.000 A 
ATOM     21  C   UNL     1       5.017   4.198  15.465  0.00  0.00    +0.000 A 
BRANCH  18  22
ATOM     22  N   UNL     1       7.134   5.617  18.883  0.00  0.00    +0.000 N 
ATOM     23  O   UNL     1       8.074   6.400  18.690  0.00  0.00    +0.000 OA
ATOM     24  O   UNL     1       6.756   5.228  19.996  0.00  0.00    +0.000 OA
ENDBRANCH  18  22
BRANCH  20  25
ATOM     25  N   UNL     1       6.964   4.725  14.009  0.00  0.00    +0.000 N 
ATOM     26  O   UNL     1       7.906   5.510  13.847  0.00  0.00    +0.000 OA
ATOM     27  O   UNL     1       6.514   3.971  13.137  0.00  0.00    +0.000 OA
ENDBRANCH  20  25
ENDBRANCH  15  16
ENDBRANCH   1  15
TORSDOF 7
ENDMDL
MODEL 9
REMARK VINA RESULT:      -7.8      5.415      7.881
REMARK  Name = 
REMARK  8 active torsions:
REMARK  status: ('A' for Active; 'I' for Inactive)
REMARK    1  A    between atoms: C_1  and  O_2
REMARK    2  A    between atoms: O_2  and  C_3
REMARK    3  A    between atoms: C_7  and  C_8
REMARK    4  A    between atoms: C_11  and  S_12
REMARK    5  A    between atoms: S_12  and  C_13
REMARK    6  A    between atoms: C_13  and  C_14
REMARK    7  A    between atoms: C_16  and  N_17
REMARK    8  A    between atoms: C_21  and  N_22
REMARK                            x       y       z     vdW  Elec       q    Type
REMARK                         _______ _______ _______ _____ _____    ______ ____
ROOT
ATOM      1  S   UNL     1       5.642   5.853  17.731  0.00  0.00    +0.000 S 
ENDROOT
BRANCH   1   5
ATOM      2  C   UNL     1       6.495   4.575  14.232  0.00  0.00    +0.000 A 
ATOM      3  N   UNL     1       7.608   5.240  14.472  0.00  0.00    +0.000 NA
ATOM      4  N   UNL     1       7.470   5.800  15.725  0.00  0.00    +0.000 NA
ATOM      5  C   UNL     1       6.286   5.436  16.172  0.00  0.00    +0.000 A 
ATOM      6  O   UNL     1       5.605   4.657  15.273  0.00  0.00    +0.000 OA
BRANCH   2  11
ATOM      7  C   UNL     1       4.477   3.049  11.411  0.00  0.00    +0.000 A 
ATOM      8  C   UNL     1       5.437   2.211  10.841  0.00  0.00    +0.000 A 
ATOM      9  C   UNL     1       6.726   2.152  11.366  0.00  0.00    +0.000 A 
ATOM     10  C   UNL     1       7.061   2.935  12.471  0.00  0.00    +0.000 A 
ATOM     11  C   UNL     1       6.112   3.780  13.068  0.00  0.00    +0.000 A 
ATOM     12  C   UNL     1       4.816   3.832  12.521  0.00  0.00    +0.000 A 
BRANCH   7  14
ATOM     13  C   UNL     1       3.024   3.943   9.752  0.00  0.00    +0.000 C 
ATOM     14  O   UNL     1       3.255   3.008  10.797  0.00  0.00    +0.000 OA
ENDBRANCH   7  14
ENDBRANCH   2  11
ENDBRANCH   1   5
BRANCH   1  15
ATOM     15  C   UNL     1       3.896   6.135  17.309  0.00  0.00    +0.000 C 
BRANCH  15  16
ATOM     16  C   UNL     1       3.032   6.126  18.554  0.00  0.00    +0.000 A 
ATOM     17  C   UNL     1       2.549   7.329  19.098  0.00  0.00    +0.000 A 
ATOM     18  C   UNL     1       1.789   7.319  20.281  0.00  0.00    +0.000 A 
ATOM     19  C   UNL     1       1.489   6.118  20.933  0.00  0.00    +0.000 A 
ATOM     20  C   UNL     1       1.970   4.921  20.390  0.00  0.00    +0.000 A 
ATOM     21  C   UNL     1       2.738   4.919  19.212  0.00  0.00    +0.000 A 
BRANCH  18  22
ATOM     22  N   UNL     1       1.319   8.589  20.854  0.00  0.00    +0.000 N 
ATOM     23  O   UNL     1       1.293   8.689  22.088  0.00  0.00    +0.000 OA
ATOM     24  O   UNL     1       0.975   9.482  20.067  0.00  0.00    +0.000 OA
ENDBRANCH  18  22
BRANCH  20  25
ATOM     25  N   UNL     1       1.677   3.649  21.070  0.00  0.00    +0.000 N 
ATOM     26  O   UNL     1       0.859   2.889  20.538  0.00  0.00    +0.000 OA
ATOM     27  O   UNL     1       2.268   3.421  22.133  0.00  0.00    +0.000 OA
ENDBRANCH  20  25
ENDBRANCH  15  16
ENDBRANCH   1  15
TORSDOF 7
ENDMDL
