MODEL 1
REMARK VINA RESULT:      -7.2      0.000      0.000
REMARK  Name = 
REMARK  6 active torsions:
REMARK  status: ('A' for Active; 'I' for Inactive)
REMARK    1  A    between atoms: C_2  and  C_3
REMARK    2  A    between atoms: C_3  and  C_4
REMARK    3  A    between atoms: C_4  and  C_5
REMARK    4  A    between atoms: C_5  and  C_6
REMARK    5  A    between atoms: N_14  and  C_15
REMARK    6  A    between atoms: C_18  and  C_19
REMARK                            x       y       z     vdW  Elec       q    Type
REMARK                         _______ _______ _______ _____ _____    ______ ____
ROOT
ATOM      1  O   UNL     1       0.085  11.766  22.000  0.00  0.00    +0.000 OA
ATOM      2  C   UNL     1       0.280  11.466  20.823  0.00  0.00    +0.000 C 
ATOM      3  N   UNL     1       0.555  10.170  20.439  0.00  0.00    +0.000 N 
ATOM      4  C   UNL     1       0.687   9.669  19.060  0.00  0.00    +0.000 C 
ATOM      5  C   UNL     1       1.942   8.788  18.896  0.00  0.00    +0.000 C 
ATOM      6  N   UNL     1       1.927   7.722  19.913  0.00  0.00    +0.000 N 
ATOM      7  C   UNL     1       1.869   8.232  21.295  0.00  0.00    +0.000 C 
ATOM      8  C   UNL     1       0.613   9.114  21.467  0.00  0.00    +0.000 C 
ENDROOT
BRANCH   6   9
ATOM      9  C   UNL     1       2.091   6.391  19.572  0.00  0.00    +0.000 A 
ATOM     10  C   UNL     1       1.421   5.403  20.330  0.00  0.00    +0.000 A 
ATOM     11  C   UNL     1       1.580   4.028  20.107  0.00  0.00    +0.000 A 
ATOM     12  C   UNL     1       2.406   3.575  19.084  0.00  0.00    +0.000 A 
ATOM     13  C   UNL     1       3.055   4.523  18.288  0.00  0.00    +0.000 A 
ATOM     14  C   UNL     1       2.915   5.903  18.533  0.00  0.00    +0.000 A 
ATOM     15 BR   UNL     1       4.061   6.992  17.460  0.00  0.00    +0.000 Br
BRANCH  12  16
ATOM     16  C   UNL     1       2.620   2.103  18.832  0.00  0.00    +0.000 C 
ATOM     17  F   UNL     1       2.626   1.772  17.511  0.00  0.00    +0.000 F 
ATOM     18  F   UNL     1       3.802   1.653  19.336  0.00  0.00    +0.000 F 
ATOM     19  F   UNL     1       1.652   1.335  19.404  0.00  0.00    +0.000 F 
ENDBRANCH  12  16
ENDBRANCH   6   9
BRANCH   2  20
ATOM     20  C   UNL     1       0.216  12.536  19.740  0.00  0.00    +0.000 C 
BRANCH  20  21
ATOM     21  C   UNL     1      -1.195  13.109  19.576  0.00  0.00    +0.000 C 
BRANCH  21  22
ATOM     22  C   UNL     1      -2.248  11.996  19.653  0.00  0.00    +0.000 C 
BRANCH  22  23
ATOM     23  C   UNL     1      -2.785  11.637  18.303  0.00  0.00    +0.000 A 
ATOM     24  C   UNL     1      -2.073  11.272  17.179  0.00  0.00    +0.000 A 
ATOM     25  C   UNL     1      -2.923  10.964  16.079  0.00  0.00    +0.000 A 
ATOM     26  C   UNL     1      -4.253  11.111  16.399  0.00  0.00    +0.000 A 
ATOM     27  S   UNL     1      -4.473  11.617  18.017  0.00  0.00    +0.000 S 
ENDBRANCH  22  23
ENDBRANCH  21  22
ENDBRANCH  20  21
ENDBRANCH   2  20
TORSDOF 6
ENDMDL
MODEL 2
REMARK VINA RESULT:      -7.2      6.160      9.514
REMARK  Name = 
REMARK  6 active torsions:
REMARK  status: ('A' for Active; 'I' for Inactive)
REMARK    1  A    between atoms: C_2  and  C_3
REMARK    2  A    between atoms: C_3  and  C_4
REMARK    3  A    between atoms: C_4  and  C_5
REMARK    4  A    between atoms: C_5  and  C_6
REMARK    5  A    between atoms: N_14  and  C_15
REMARK    6  A    between atoms: C_18  and  C_19
REMARK                            x       y       z     vdW  Elec       q    Type
REMARK                         _______ _______ _______ _____ _____    ______ ____
ROOT
ATOM      1  O   UNL     1       2.090   5.783  20.721  0.00  0.00    +0.000 OA
ATOM      2  C   UNL     1       2.289   6.329  19.635  0.00  0.00    +0.000 C 
ATOM      3  N   UNL     1       2.079   7.679  19.451  0.00  0.00    +0.000 N 
ATOM      4  C   UNL     1       2.393   8.462  18.244  0.00  0.00    +0.000 C 
ATOM      5  C   UNL     1       1.215   9.371  17.837  0.00  0.00    +0.000 C 
ATOM      6  N   UNL     1       0.816  10.197  18.990  0.00  0.00    +0.000 N 
ATOM      7  C   UNL     1       0.432   9.405  20.173  0.00  0.00    +0.000 C 
ATOM      8  C   UNL     1       1.607   8.494  20.586  0.00  0.00    +0.000 C 
ENDROOT
BRANCH   6   9
ATOM      9  C   UNL     1       0.693  11.572  18.890  0.00  0.00    +0.000 A 
ATOM     10  C   UNL     1       1.815  12.382  19.180  0.00  0.00    +0.000 A 
ATOM     11  C   UNL     1       1.771  13.782  19.175  0.00  0.00    +0.000 A 
ATOM     12  C   UNL     1       0.592  14.445  18.851  0.00  0.00    +0.000 A 
ATOM     13  C   UNL     1      -0.529  13.678  18.520  0.00  0.00    +0.000 A 
ATOM     14  C   UNL     1      -0.489  12.271  18.554  0.00  0.00    +0.000 A 
ATOM     15 BR   UNL     1      -2.190  11.448  18.278  0.00  0.00    +0.000 Br
BRANCH  12  16
ATOM     16  C   UNL     1       0.501  15.951  18.861  0.00  0.00    +0.000 C 
ATOM     17  F   UNL     1       0.649  16.496  20.100  0.00  0.00    +0.000 F 
ATOM     18  F   UNL     1       1.447  16.537  18.078  0.00  0.00    +0.000 F 
ATOM     19  F   UNL     1      -0.699  16.399  18.399  0.00  0.00    +0.000 F 
ENDBRANCH  12  16
ENDBRANCH   6   9
BRANCH   2  20
ATOM     20  C   UNL     1       2.786   5.511  18.449  0.00  0.00    +0.000 C 
BRANCH  20  21
ATOM     21  C   UNL     1       3.398   4.176  18.882  0.00  0.00    +0.000 C 
BRANCH  21  22
ATOM     22  C   UNL     1       4.532   3.763  17.935  0.00  0.00    +0.000 C 
BRANCH  22  23
ATOM     23  C   UNL     1       5.631   4.777  17.899  0.00  0.00    +0.000 A 
ATOM     24  C   UNL     1       6.430   5.196  18.944  0.00  0.00    +0.000 A 
ATOM     25  C   UNL     1       7.400   6.153  18.531  0.00  0.00    +0.000 A 
ATOM     26  C   UNL     1       7.305   6.435  17.187  0.00  0.00    +0.000 A 
ATOM     27  S   UNL     1       6.052   5.551  16.432  0.00  0.00    +0.000 S 
ENDBRANCH  22  23
ENDBRANCH  21  22
ENDBRANCH  20  21
ENDBRANCH   2  20
TORSDOF 6
ENDMDL
MODEL 3
REMARK VINA RESULT:      -7.1      6.246      9.561
REMARK  Name = 
REMARK  6 active torsions:
REMARK  status: ('A' for Active; 'I' for Inactive)
REMARK    1  A    between atoms: C_2  and  C_3
REMARK    2  A    between atoms: C_3  and  C_4
REMARK    3  A    between atoms: C_4  and  C_5
REMARK    4  A    between atoms: C_5  and  C_6
REMARK    5  A    between atoms: N_14  and  C_15
REMARK    6  A    between atoms: C_18  and  C_19
REMARK                            x       y       z     vdW  Elec       q    Type
REMARK                         _______ _______ _______ _____ _____    ______ ____
ROOT
ATOM      1  O   UNL     1       2.014   5.713  20.584  0.00  0.00    +0.000 OA
ATOM      2  C   UNL     1       2.233   6.254  19.500  0.00  0.00    +0.000 C 
ATOM      3  N   UNL     1       2.106   7.616  19.329  0.00  0.00    +0.000 N 
ATOM      4  C   UNL     1       2.453   8.388  18.124  0.00  0.00    +0.000 C 
ATOM      5  C   UNL     1       1.329   9.372  17.740  0.00  0.00    +0.000 C 
ATOM      6  N   UNL     1       0.997  10.212  18.904  0.00  0.00    +0.000 N 
ATOM      7  C   UNL     1       0.579   9.436  20.086  0.00  0.00    +0.000 C 
ATOM      8  C   UNL     1       1.700   8.449  20.476  0.00  0.00    +0.000 C 
ENDROOT
BRANCH   6   9
ATOM      9  C   UNL     1       0.959  11.592  18.816  0.00  0.00    +0.000 A 
ATOM     10  C   UNL     1       2.176  12.304  18.702  0.00  0.00    +0.000 A 
ATOM     11  C   UNL     1       2.246  13.704  18.678  0.00  0.00    +0.000 A 
ATOM     12  C   UNL     1       1.083  14.464  18.741  0.00  0.00    +0.000 A 
ATOM     13  C   UNL     1      -0.143  13.796  18.816  0.00  0.00    +0.000 A 
ATOM     14  C   UNL     1      -0.207  12.389  18.868  0.00  0.00    +0.000 A 
ATOM     15 BR   UNL     1      -1.965  11.714  19.186  0.00  0.00    +0.000 Br
BRANCH  12  16
ATOM     16  C   UNL     1       1.122  15.973  18.744  0.00  0.00    +0.000 C 
ATOM     17  F   UNL     1       1.130  16.514  19.994  0.00  0.00    +0.000 F 
ATOM     18  F   UNL     1       2.221  16.468  18.114  0.00  0.00    +0.000 F 
ATOM     19  F   UNL     1       0.048  16.518  18.110  0.00  0.00    +0.000 F 
ENDBRANCH  12  16
ENDBRANCH   6   9
BRANCH   2  20
ATOM     20  C   UNL     1       2.662   5.417  18.301  0.00  0.00    +0.000 C 
BRANCH  20  21
ATOM     21  C   UNL     1       3.510   4.210  18.712  0.00  0.00    +0.000 C 
BRANCH  21  22
ATOM     22  C   UNL     1       4.998   4.577  18.757  0.00  0.00    +0.000 C 
BRANCH  22  23
ATOM     23  C   UNL     1       5.638   4.494  17.408  0.00  0.00    +0.000 A 
ATOM     24  C   UNL     1       5.187   3.808  16.298  0.00  0.00    +0.000 A 
ATOM     25  C   UNL     1       6.039   3.984  15.172  0.00  0.00    +0.000 A 
ATOM     26  C   UNL     1       7.114   4.793  15.461  0.00  0.00    +0.000 A 
ATOM     27  S   UNL     1       7.094   5.334  17.082  0.00  0.00    +0.000 S 
ENDBRANCH  22  23
ENDBRANCH  21  22
ENDBRANCH  20  21
ENDBRANCH   2  20
TORSDOF 6
ENDMDL
MODEL 4
REMARK VINA RESULT:      -7.1      3.394      4.499
REMARK  Name = 
REMARK  6 active torsions:
REMARK  status: ('A' for Active; 'I' for Inactive)
REMARK    1  A    between atoms: C_2  and  C_3
REMARK    2  A    between atoms: C_3  and  C_4
REMARK    3  A    between atoms: C_4  and  C_5
REMARK    4  A    between atoms: C_5  and  C_6
REMARK    5  A    between atoms: N_14  and  C_15
REMARK    6  A    between atoms: C_18  and  C_19
REMARK                            x       y       z     vdW  Elec       q    Type
REMARK                         _______ _______ _______ _____ _____    ______ ____
ROOT
ATOM      1  O   UNL     1      -0.430  11.181  19.671  0.00  0.00    +0.000 OA
ATOM      2  C   UNL     1       0.101  10.303  20.351  0.00  0.00    +0.000 C 
ATOM      3  N   UNL     1       1.065   9.464  19.831  0.00  0.00    +0.000 N 
ATOM      4  C   UNL     1       1.853   8.464  20.571  0.00  0.00    +0.000 C 
ATOM      5  C   UNL     1       1.884   7.110  19.833  0.00  0.00    +0.000 C 
ATOM      6  N   UNL     1       2.345   7.319  18.449  0.00  0.00    +0.000 N 
ATOM      7  C   UNL     1       1.507   8.266  17.691  0.00  0.00    +0.000 C 
ATOM      8  C   UNL     1       1.472   9.625  18.424  0.00  0.00    +0.000 C 
ENDROOT
BRANCH   6   9
ATOM      9  C   UNL     1       3.381   6.578  17.909  0.00  0.00    +0.000 A 
ATOM     10  C   UNL     1       4.582   7.237  17.556  0.00  0.00    +0.000 A 
ATOM     11  C   UNL     1       5.659   6.587  16.939  0.00  0.00    +0.000 A 
ATOM     12  C   UNL     1       5.593   5.224  16.668  0.00  0.00    +0.000 A 
ATOM     13  C   UNL     1       4.437   4.531  17.037  0.00  0.00    +0.000 A 
ATOM     14  C   UNL     1       3.345   5.193  17.632  0.00  0.00    +0.000 A 
ATOM     15 BR   UNL     1       1.803   4.087  17.848  0.00  0.00    +0.000 Br
BRANCH  12  16
ATOM     16  C   UNL     1       6.723   4.497  15.981  0.00  0.00    +0.000 C 
ATOM     17  F   UNL     1       6.346   3.319  15.412  0.00  0.00    +0.000 F 
ATOM     18  F   UNL     1       7.287   5.232  14.984  0.00  0.00    +0.000 F 
ATOM     19  F   UNL     1       7.735   4.189  16.839  0.00  0.00    +0.000 F 
ENDBRANCH  12  16
ENDBRANCH   6   9
BRANCH   2  20
ATOM     20  C   UNL     1      -0.296  10.122  21.811  0.00  0.00    +0.000 C 
BRANCH  20  21
ATOM     21  C   UNL     1      -0.557  11.460  22.509  0.00  0.00    +0.000 C 
BRANCH  21  22
ATOM     22  C   UNL     1      -1.913  11.446  23.226  0.00  0.00    +0.000 C 
BRANCH  22  23
ATOM     23  C   UNL     1      -2.630  12.753  23.099  0.00  0.00    +0.000 A 
ATOM     24  C   UNL     1      -3.888  12.981  22.580  0.00  0.00    +0.000 A 
ATOM     25  C   UNL     1      -4.261  14.353  22.653  0.00  0.00    +0.000 A 
ATOM     26  C   UNL     1      -3.273  15.125  23.219  0.00  0.00    +0.000 A 
ATOM     27  S   UNL     1      -1.904  14.199  23.658  0.00  0.00    +0.000 S 
ENDBRANCH  22  23
ENDBRANCH  21  22
ENDBRANCH  20  21
ENDBRANCH   2  20
TORSDOF 6
ENDMDL
MODEL 5
REMARK VINA RESULT:      -7.0      6.399      9.675
REMARK  Name = 
REMARK  6 active torsions:
REMARK  status: ('A' for Active; 'I' for Inactive)
REMARK    1  A    between atoms: C_2  and  C_3
REMARK    2  A    between atoms: C_3  and  C_4
REMARK    3  A    between atoms: C_4  and  C_5
REMARK    4  A    between atoms: C_5  and  C_6
REMARK    5  A    between atoms: N_14  and  C_15
REMARK    6  A    between atoms: C_18  and  C_19
REMARK                            x       y       z     vdW  Elec       q    Type
REMARK                         _______ _______ _______ _____ _____    ______ ____
ROOT
ATOM      1  O   UNL     1       1.950   9.188  17.304  0.00  0.00    +0.000 OA
ATOM      2  C   UNL     1       1.805   8.843  18.477  0.00  0.00    +0.000 C 
ATOM      3  N   UNL     1       1.054   9.584  19.365  0.00  0.00    +0.000 N 
ATOM      4  C   UNL     1       0.712   9.214  20.749  0.00  0.00    +0.000 C 
ATOM      5  C   UNL     1       0.956  10.384  21.724  0.00  0.00    +0.000 C 
ATOM      6  N   UNL     1       0.246  11.581  21.238  0.00  0.00    +0.000 N 
ATOM      7  C   UNL     1       0.649  11.989  19.880  0.00  0.00    +0.000 C 
ATOM      8  C   UNL     1       0.405  10.822  18.898  0.00  0.00    +0.000 C 
ENDROOT
BRANCH   6   9
ATOM      9  C   UNL     1      -0.604  12.303  22.057  0.00  0.00    +0.000 A 
ATOM     10  C   UNL     1      -1.792  11.690  22.520  0.00  0.00    +0.000 A 
ATOM     11  C   UNL     1      -2.748  12.361  23.293  0.00  0.00    +0.000 A 
ATOM     12  C   UNL     1      -2.544  13.685  23.666  0.00  0.00    +0.000 A 
ATOM     13  C   UNL     1      -1.363  14.313  23.260  0.00  0.00    +0.000 A 
ATOM     14  C   UNL     1      -0.417  13.645  22.459  0.00  0.00    +0.000 A 
ATOM     15 BR   UNL     1       1.004  14.767  21.852  0.00  0.00    +0.000 Br
BRANCH  12  16
ATOM     16  C   UNL     1      -3.565  14.447  24.477  0.00  0.00    +0.000 C 
ATOM     17  F   UNL     1      -3.203  14.624  25.777  0.00  0.00    +0.000 F 
ATOM     18  F   UNL     1      -3.803  15.691  23.980  0.00  0.00    +0.000 F 
ATOM     19  F   UNL     1      -4.772  13.818  24.509  0.00  0.00    +0.000 F 
ENDBRANCH  12  16
ENDBRANCH   6   9
BRANCH   2  20
ATOM     20  C   UNL     1       2.458   7.562  18.982  0.00  0.00    +0.000 C 
BRANCH  20  21
ATOM     21  C   UNL     1       2.408   6.438  17.943  0.00  0.00    +0.000 C 
BRANCH  21  22
ATOM     22  C   UNL     1       3.705   5.618  17.963  0.00  0.00    +0.000 C 
BRANCH  22  23
ATOM     23  C   UNL     1       3.440   4.152  18.097  0.00  0.00    +0.000 A 
ATOM     24  C   UNL     1       2.552   3.383  17.372  0.00  0.00    +0.000 A 
ATOM     25  C   UNL     1       2.593   2.011  17.750  0.00  0.00    +0.000 A 
ATOM     26  C   UNL     1       3.507   1.781  18.754  0.00  0.00    +0.000 A 
ATOM     27  S   UNL     1       4.307   3.213  19.236  0.00  0.00    +0.000 S 
ENDBRANCH  22  23
ENDBRANCH  21  22
ENDBRANCH  20  21
ENDBRANCH   2  20
TORSDOF 6
ENDMDL
MODEL 6
REMARK VINA RESULT:      -7.0      6.288      9.443
REMARK  Name = 
REMARK  6 active torsions:
REMARK  status: ('A' for Active; 'I' for Inactive)
REMARK    1  A    between atoms: C_2  and  C_3
REMARK    2  A    between atoms: C_3  and  C_4
REMARK    3  A    between atoms: C_4  and  C_5
REMARK    4  A    between atoms: C_5  and  C_6
REMARK    5  A    between atoms: N_14  and  C_15
REMARK    6  A    between atoms: C_18  and  C_19
REMARK                            x       y       z     vdW  Elec       q    Type
REMARK                         _______ _______ _______ _____ _____    ______ ____
ROOT
ATOM      1  O   UNL     1       1.995   9.286  17.293  0.00  0.00    +0.000 OA
ATOM      2  C   UNL     1       1.813   8.907  18.450  0.00  0.00    +0.000 C 
ATOM      3  N   UNL     1       1.063   9.640  19.346  0.00  0.00    +0.000 N 
ATOM      4  C   UNL     1       0.677   9.235  20.708  0.00  0.00    +0.000 C 
ATOM      5  C   UNL     1       0.933  10.364  21.727  0.00  0.00    +0.000 C 
ATOM      6  N   UNL     1       0.270  11.597  21.267  0.00  0.00    +0.000 N 
ATOM      7  C   UNL     1       0.716  12.037  19.932  0.00  0.00    +0.000 C 
ATOM      8  C   UNL     1       0.461  10.912  18.906  0.00  0.00    +0.000 C 
ENDROOT
BRANCH   6   9
ATOM      9  C   UNL     1      -0.578  12.316  22.090  0.00  0.00    +0.000 A 
ATOM     10  C   UNL     1      -1.738  11.686  22.596  0.00  0.00    +0.000 A 
ATOM     11  C   UNL     1      -2.692  12.350  23.378  0.00  0.00    +0.000 A 
ATOM     12  C   UNL     1      -2.513  13.688  23.715  0.00  0.00    +0.000 A 
ATOM     13  C   UNL     1      -1.359  14.335  23.266  0.00  0.00    +0.000 A 
ATOM     14  C   UNL     1      -0.416  13.672  22.456  0.00  0.00    +0.000 A 
ATOM     15 BR   UNL     1       0.960  14.815  21.788  0.00  0.00    +0.000 Br
BRANCH  12  16
ATOM     16  C   UNL     1      -3.532  14.442  24.534  0.00  0.00    +0.000 C 
ATOM     17  F   UNL     1      -3.705  15.732  24.132  0.00  0.00    +0.000 F 
ATOM     18  F   UNL     1      -4.765  13.868  24.491  0.00  0.00    +0.000 F 
ATOM     19  F   UNL     1      -3.193  14.505  25.850  0.00  0.00    +0.000 F 
ENDBRANCH  12  16
ENDBRANCH   6   9
BRANCH   2  20
ATOM     20  C   UNL     1       2.416   7.591  18.926  0.00  0.00    +0.000 C 
BRANCH  20  21
ATOM     21  C   UNL     1       2.286   6.482  17.879  0.00  0.00    +0.000 C 
BRANCH  21  22
ATOM     22  C   UNL     1       3.080   5.238  18.298  0.00  0.00    +0.000 C 
BRANCH  22  23
ATOM     23  C   UNL     1       2.238   4.264  19.059  0.00  0.00    +0.000 A 
ATOM     24  C   UNL     1       1.399   3.293  18.549  0.00  0.00    +0.000 A 
ATOM     25  C   UNL     1       0.781   2.522  19.574  0.00  0.00    +0.000 A 
ATOM     26  C   UNL     1       1.165   2.934  20.831  0.00  0.00    +0.000 A 
ATOM     27  S   UNL     1       2.262   4.244  20.770  0.00  0.00    +0.000 S 
ENDBRANCH  22  23
ENDBRANCH  21  22
ENDBRANCH  20  21
ENDBRANCH   2  20
TORSDOF 6
ENDMDL
MODEL 7
REMARK VINA RESULT:      -7.0      6.027      9.374
REMARK  Name = 
REMARK  6 active torsions:
REMARK  status: ('A' for Active; 'I' for Inactive)
REMARK    1  A    between atoms: C_2  and  C_3
REMARK    2  A    between atoms: C_3  and  C_4
REMARK    3  A    between atoms: C_4  and  C_5
REMARK    4  A    between atoms: C_5  and  C_6
REMARK    5  A    between atoms: N_14  and  C_15
REMARK    6  A    between atoms: C_18  and  C_19
REMARK                            x       y       z     vdW  Elec       q    Type
REMARK                         _______ _______ _______ _____ _____    ______ ____
ROOT
ATOM      1  O   UNL     1       2.269   5.914  20.424  0.00  0.00    +0.000 OA
ATOM      2  C   UNL     1       2.410   6.492  19.346  0.00  0.00    +0.000 C 
ATOM      3  N   UNL     1       2.173   7.844  19.210  0.00  0.00    +0.000 N 
ATOM      4  C   UNL     1       2.420   8.664  18.012  0.00  0.00    +0.000 C 
ATOM      5  C   UNL     1       1.213   9.565  17.685  0.00  0.00    +0.000 C 
ATOM      6  N   UNL     1       0.855  10.354  18.877  0.00  0.00    +0.000 N 
ATOM      7  C   UNL     1       0.537   9.524  20.053  0.00  0.00    +0.000 C 
ATOM      8  C   UNL     1       1.742   8.620  20.387  0.00  0.00    +0.000 C 
ENDROOT
BRANCH   6   9
ATOM      9  C   UNL     1       0.709  11.728  18.821  0.00  0.00    +0.000 A 
ATOM     10  C   UNL     1       1.832  12.547  19.079  0.00  0.00    +0.000 A 
ATOM     11  C   UNL     1       1.769  13.947  19.115  0.00  0.00    +0.000 A 
ATOM     12  C   UNL     1       0.566  14.600  18.866  0.00  0.00    +0.000 A 
ATOM     13  C   UNL     1      -0.559  13.826  18.569  0.00  0.00    +0.000 A 
ATOM     14  C   UNL     1      -0.498  12.418  18.562  0.00  0.00    +0.000 A 
ATOM     15 BR   UNL     1      -2.199  11.578  18.346  0.00  0.00    +0.000 Br
BRANCH  12  16
ATOM     16  C   UNL     1       0.455  16.104  18.923  0.00  0.00    +0.000 C 
ATOM     17  F   UNL     1       1.588  16.748  18.528  0.00  0.00    +0.000 F 
ATOM     18  F   UNL     1      -0.544  16.584  18.132  0.00  0.00    +0.000 F 
ATOM     19  F   UNL     1       0.189  16.555  20.179  0.00  0.00    +0.000 F 
ENDBRANCH  12  16
ENDBRANCH   6   9
BRANCH   2  20
ATOM     20  C   UNL     1       2.863   5.715  18.116  0.00  0.00    +0.000 C 
BRANCH  20  21
ATOM     21  C   UNL     1       1.810   4.708  17.647  0.00  0.00    +0.000 C 
BRANCH  21  22
ATOM     22  C   UNL     1       2.281   3.269  17.896  0.00  0.00    +0.000 C 
BRANCH  22  23
ATOM     23  C   UNL     1       2.259   2.915  19.349  0.00  0.00    +0.000 A 
ATOM     24  C   UNL     1       3.330   2.588  20.157  0.00  0.00    +0.000 A 
ATOM     25  C   UNL     1       2.936   2.343  21.502  0.00  0.00    +0.000 A 
ATOM     26  C   UNL     1       1.577   2.486  21.675  0.00  0.00    +0.000 A 
ATOM     27  S   UNL     1       0.786   2.911  20.221  0.00  0.00    +0.000 S 
ENDBRANCH  22  23
ENDBRANCH  21  22
ENDBRANCH  20  21
ENDBRANCH   2  20
TORSDOF 6
ENDMDL
MODEL 8
REMARK VINA RESULT:      -6.9      6.230      9.525
REMARK  Name = 
REMARK  6 active torsions:
REMARK  status: ('A' for Active; 'I' for Inactive)
REMARK    1  A    between atoms: C_2  and  C_3
REMARK    2  A    between atoms: C_3  and  C_4
REMARK    3  A    between atoms: C_4  and  C_5
REMARK    4  A    between atoms: C_5  and  C_6
REMARK    5  A    between atoms: N_14  and  C_15
REMARK    6  A    between atoms: C_18  and  C_19
REMARK                            x       y       z     vdW  Elec       q    Type
REMARK                         _______ _______ _______ _____ _____    ______ ____
ROOT
ATOM      1  O   UNL     1       2.160   5.724  20.418  0.00  0.00    +0.000 OA
ATOM      2  C   UNL     1       2.153   6.265  19.313  0.00  0.00    +0.000 C 
ATOM      3  N   UNL     1       1.996   7.629  19.172  0.00  0.00    +0.000 N 
ATOM      4  C   UNL     1       2.090   8.401  17.922  0.00  0.00    +0.000 C 
ATOM      5  C   UNL     1       0.913   9.387  17.777  0.00  0.00    +0.000 C 
ATOM      6  N   UNL     1       0.827  10.226  18.985  0.00  0.00    +0.000 N 
ATOM      7  C   UNL     1       0.659   9.449  20.226  0.00  0.00    +0.000 C 
ATOM      8  C   UNL     1       1.835   8.460  20.378  0.00  0.00    +0.000 C 
ENDROOT
BRANCH   6   9
ATOM      9  C   UNL     1       0.775  11.606  18.907  0.00  0.00    +0.000 A 
ATOM     10  C   UNL     1       1.942  12.353  19.190  0.00  0.00    +0.000 A 
ATOM     11  C   UNL     1       1.971  13.754  19.207  0.00  0.00    +0.000 A 
ATOM     12  C   UNL     1       0.823  14.481  18.912  0.00  0.00    +0.000 A 
ATOM     13  C   UNL     1      -0.342  13.779  18.590  0.00  0.00    +0.000 A 
ATOM     14  C   UNL     1      -0.374  12.371  18.601  0.00  0.00    +0.000 A 
ATOM     15 BR   UNL     1      -2.120  11.642  18.342  0.00  0.00    +0.000 Br
BRANCH  12  16
ATOM     16  C   UNL     1       0.810  15.990  18.947  0.00  0.00    +0.000 C 
ATOM     17  F   UNL     1      -0.437  16.526  18.842  0.00  0.00    +0.000 F 
ATOM     18  F   UNL     1       1.338  16.491  20.097  0.00  0.00    +0.000 F 
ATOM     19  F   UNL     1       1.535  16.536  17.932  0.00  0.00    +0.000 F 
ENDBRANCH  12  16
ENDBRANCH   6   9
BRANCH   2  20
ATOM     20  C   UNL     1       2.327   5.429  18.050  0.00  0.00    +0.000 C 
BRANCH  20  21
ATOM     21  C   UNL     1       3.699   4.752  17.990  0.00  0.00    +0.000 C 
BRANCH  21  22
ATOM     22  C   UNL     1       4.674   5.570  17.134  0.00  0.00    +0.000 C 
BRANCH  22  23
ATOM     23  C   UNL     1       5.938   5.885  17.869  0.00  0.00    +0.000 A 
ATOM     24  C   UNL     1       6.445   5.256  18.989  0.00  0.00    +0.000 A 
ATOM     25  C   UNL     1       7.694   5.803  19.396  0.00  0.00    +0.000 A 
ATOM     26  C   UNL     1       8.097   6.833  18.576  0.00  0.00    +0.000 A 
ATOM     27  S   UNL     1       6.971   7.137  17.326  0.00  0.00    +0.000 S 
ENDBRANCH  22  23
ENDBRANCH  21  22
ENDBRANCH  20  21
ENDBRANCH   2  20
TORSDOF 6
ENDMDL
MODEL 9
REMARK VINA RESULT:      -6.9      6.118      9.434
REMARK  Name = 
REMARK  6 active torsions:
REMARK  status: ('A' for Active; 'I' for Inactive)
REMARK    1  A    between atoms: C_2  and  C_3
REMARK    2  A    between atoms: C_3  and  C_4
REMARK    3  A    between atoms: C_4  and  C_5
REMARK    4  A    between atoms: C_5  and  C_6
REMARK    5  A    between atoms: N_14  and  C_15
REMARK    6  A    between atoms: C_18  and  C_19
REMARK                            x       y       z     vdW  Elec       q    Type
REMARK                         _______ _______ _______ _____ _____    ______ ____
ROOT
ATOM      1  O   UNL     1       2.093   5.406  20.249  0.00  0.00    +0.000 OA
ATOM      2  C   UNL     1       2.292   5.992  19.185  0.00  0.00    +0.000 C 
ATOM      3  N   UNL     1       2.239   7.367  19.092  0.00  0.00    +0.000 N 
ATOM      4  C   UNL     1       2.574   8.182  17.912  0.00  0.00    +0.000 C 
ATOM      5  C   UNL     1       1.495   9.248  17.636  0.00  0.00    +0.000 C 
ATOM      6  N   UNL     1       1.268  10.041  18.858  0.00  0.00    +0.000 N 
ATOM      7  C   UNL     1       0.861   9.226  20.017  0.00  0.00    +0.000 C 
ATOM      8  C   UNL     1       1.938   8.157  20.299  0.00  0.00    +0.000 C 
ENDROOT
BRANCH   6   9
ATOM      9  C   UNL     1       1.309  11.424  18.844  0.00  0.00    +0.000 A 
ATOM     10  C   UNL     1       2.404  12.070  18.224  0.00  0.00    +0.000 A 
ATOM     11  C   UNL     1       2.571  13.461  18.220  0.00  0.00    +0.000 A 
ATOM     12  C   UNL     1       1.622  14.282  18.821  0.00  0.00    +0.000 A 
ATOM     13  C   UNL     1       0.506  13.682  19.411  0.00  0.00    +0.000 A 
ATOM     14  C   UNL     1       0.356  12.282  19.437  0.00  0.00    +0.000 A 
ATOM     15 BR   UNL     1      -1.130  11.690  20.481  0.00  0.00    +0.000 Br
BRANCH  12  16
ATOM     16  C   UNL     1       1.782  15.782  18.859  0.00  0.00    +0.000 C 
ATOM     17  F   UNL     1       2.942  16.219  18.294  0.00  0.00    +0.000 F 
ATOM     18  F   UNL     1       0.779  16.431  18.206  0.00  0.00    +0.000 F 
ATOM     19  F   UNL     1       1.781  16.270  20.130  0.00  0.00    +0.000 F 
ENDBRANCH  12  16
ENDBRANCH   6   9
BRANCH   2  20
ATOM     20  C   UNL     1       2.614   5.198  17.924  0.00  0.00    +0.000 C 
BRANCH  20  21
ATOM     21  C   UNL     1       3.668   4.116  18.175  0.00  0.00    +0.000 C 
BRANCH  21  22
ATOM     22  C   UNL     1       4.799   4.207  17.143  0.00  0.00    +0.000 C 
BRANCH  22  23
ATOM     23  C   UNL     1       5.849   5.193  17.546  0.00  0.00    +0.000 A 
ATOM     24  C   UNL     1       6.820   5.047  18.516  0.00  0.00    +0.000 A 
ATOM     25  C   UNL     1       7.673   6.183  18.600  0.00  0.00    +0.000 A 
ATOM     26  C   UNL     1       7.322   7.159  17.695  0.00  0.00    +0.000 A 
ATOM     27  S   UNL     1       5.970   6.705  16.753  0.00  0.00    +0.000 S 
ENDBRANCH  22  23
ENDBRANCH  21  22
ENDBRANCH  20  21
ENDBRANCH   2  20
TORSDOF 6
ENDMDL
