MODEL 1
REMARK VINA RESULT:      -7.4      0.000      0.000
REMARK  Name = 
REMARK  10 active torsions:
REMARK  status: ('A' for Active; 'I' for Inactive)
REMARK    1  A    between atoms: C_1  and  C_2
REMARK    2  A    between atoms: C_2  and  N_3
REMARK    3  A    between atoms: N_3  and  C_4
REMARK    4  A    between atoms: N_3  and  S_6
REMARK    5  A    between atoms: C_4  and  C_5
REMARK    6  A    between atoms: S_6  and  C_9
REMARK    7  A    between atoms: C_12  and  N_13
REMARK    8  A    between atoms: C_19  and  N_20
REMARK    9  A    between atoms: C_21  and  C_23
REMARK   10  A    between atoms: C_23  and  C_24
REMARK                            x       y       z     vdW  Elec       q    Type
REMARK                         _______ _______ _______ _____ _____    ______ ____
ROOT
ATOM      1  C   UNL     1       2.588   7.173  18.838  0.00  0.00    +0.000 A 
ATOM      2  C   UNL     1       2.779   8.095  17.818  0.00  0.00    +0.000 A 
ATOM      3  C   UNL     1       2.132   9.334  17.890  0.00  0.00    +0.000 A 
ATOM      4  C   UNL     1       1.283   9.701  18.960  0.00  0.00    +0.000 A 
ATOM      5  C   UNL     1       1.116   8.728  19.975  0.00  0.00    +0.000 A 
ATOM      6  C   UNL     1       1.754   7.477  19.913  0.00  0.00    +0.000 A 
ENDROOT
BRANCH   4   7
ATOM      7  N   UNL     1       0.647  10.930  18.901  0.00  0.00    +0.000 N 
ATOM      8  C   UNL     1      -0.799  11.136  18.780  0.00  0.00    +0.000 C 
ATOM      9  C   UNL     1      -1.059  12.321  17.831  0.00  0.00    +0.000 C 
ATOM     10  O   UNL     1      -0.373  13.514  18.244  0.00  0.00    +0.000 OA
ATOM     11  C   UNL     1       1.043  13.274  18.328  0.00  0.00    +0.000 C 
ATOM     12  C   UNL     1       1.352  12.155  19.334  0.00  0.00    +0.000 C 
ENDBRANCH   4   7
BRANCH   5  13
ATOM     13  N   UNL     1       0.278   8.916  21.087  0.00  0.00    +0.000 N 
ATOM     14  C   UNL     1       0.728   9.502  22.258  0.00  0.00    +0.000 C 
ATOM     15  O   UNL     1       1.897   9.783  22.499  0.00  0.00    +0.000 OA
ATOM     16  H   UNL     1      -0.716   8.858  20.916  0.00  0.00    +0.000 HD
BRANCH  14  17
ATOM     17  C   UNL     1      -0.383   9.727  23.276  0.00  0.00    +0.000 C 
BRANCH  17  18
ATOM     18  C   UNL     1      -1.116  11.025  23.043  0.00  0.00    +0.000 A 
ATOM     19  C   UNL     1      -0.489  12.063  22.338  0.00  0.00    +0.000 A 
ATOM     20  C   UNL     1      -1.120  13.297  22.185  0.00  0.00    +0.000 A 
ATOM     21  C   UNL     1      -2.388  13.503  22.722  0.00  0.00    +0.000 A 
ATOM     22  C   UNL     1      -3.035  12.467  23.394  0.00  0.00    +0.000 A 
ATOM     23  C   UNL     1      -2.405  11.231  23.551  0.00  0.00    +0.000 A 
ENDBRANCH  17  18
ENDBRANCH  14  17
ENDBRANCH   5  13
BRANCH   1  24
ATOM     24  S   UNL     1       3.364   5.584  18.730  0.00  0.00    +0.000 S 
ATOM     25  O   UNL     1       4.436   5.573  19.702  0.00  0.00    +0.000 OA
ATOM     26  O   UNL     1       3.620   5.300  17.332  0.00  0.00    +0.000 OA
BRANCH  24  27
ATOM     27  N   UNL     1       2.140   4.497  19.261  0.00  0.00    +0.000 NA
BRANCH  27  29
ATOM     28  C   UNL     1       2.187   2.374  17.916  0.00  0.00    +0.000 C 
ATOM     29  C   UNL     1       1.498   3.707  18.167  0.00  0.00    +0.000 C 
ENDBRANCH  27  29
BRANCH  27  30
ATOM     30  C   UNL     1       2.520   3.719  20.479  0.00  0.00    +0.000 C 
ATOM     31  C   UNL     1       1.330   3.216  21.278  0.00  0.00    +0.000 C 
ENDBRANCH  27  30
ENDBRANCH  24  27
ENDBRANCH   1  24
TORSDOF 8
ENDMDL
MODEL 2
REMARK VINA RESULT:      -7.4      1.058      1.601
REMARK  Name = 
REMARK  10 active torsions:
REMARK  status: ('A' for Active; 'I' for Inactive)
REMARK    1  A    between atoms: C_1  and  C_2
REMARK    2  A    between atoms: C_2  and  N_3
REMARK    3  A    between atoms: N_3  and  C_4
REMARK    4  A    between atoms: N_3  and  S_6
REMARK    5  A    between atoms: C_4  and  C_5
REMARK    6  A    between atoms: S_6  and  C_9
REMARK    7  A    between atoms: C_12  and  N_13
REMARK    8  A    between atoms: C_19  and  N_20
REMARK    9  A    between atoms: C_21  and  C_23
REMARK   10  A    between atoms: C_23  and  C_24
REMARK                            x       y       z     vdW  Elec       q    Type
REMARK                         _______ _______ _______ _____ _____    ______ ____
ROOT
ATOM      1  C   UNL     1       2.503   6.911  19.434  0.00  0.00    +0.000 A 
ATOM      2  C   UNL     1       2.770   7.642  18.285  0.00  0.00    +0.000 A 
ATOM      3  C   UNL     1       2.122   8.867  18.090  0.00  0.00    +0.000 A 
ATOM      4  C   UNL     1       1.197   9.405  19.014  0.00  0.00    +0.000 A 
ATOM      5  C   UNL     1       0.953   8.624  20.169  0.00  0.00    +0.000 A 
ATOM      6  C   UNL     1       1.592   7.389  20.375  0.00  0.00    +0.000 A 
ENDROOT
BRANCH   4   7
ATOM      7  N   UNL     1       0.569  10.597  18.694  0.00  0.00    +0.000 N 
ATOM      8  C   UNL     1       1.245  11.856  18.370  0.00  0.00    +0.000 C 
ATOM      9  C   UNL     1       0.465  13.024  19.005  0.00  0.00    +0.000 C 
ATOM     10  O   UNL     1      -0.918  13.034  18.614  0.00  0.00    +0.000 OA
ATOM     11  C   UNL     1      -1.548  11.790  18.970  0.00  0.00    +0.000 C 
ATOM     12  C   UNL     1      -0.852  10.605  18.285  0.00  0.00    +0.000 C 
ENDBRANCH   4   7
BRANCH   5  13
ATOM     13  N   UNL     1       0.036   8.994  21.167  0.00  0.00    +0.000 N 
ATOM     14  C   UNL     1       0.433   9.608  22.343  0.00  0.00    +0.000 C 
ATOM     15  O   UNL     1       1.597   9.763  22.695  0.00  0.00    +0.000 OA
ATOM     16  H   UNL     1      -0.935   9.043  20.889  0.00  0.00    +0.000 HD
BRANCH  14  17
ATOM     17  C   UNL     1      -0.739  10.040  23.214  0.00  0.00    +0.000 C 
BRANCH  17  18
ATOM     18  C   UNL     1      -1.197  11.443  22.899  0.00  0.00    +0.000 A 
ATOM     19  C   UNL     1      -0.287  12.372  22.375  0.00  0.00    +0.000 A 
ATOM     20  C   UNL     1      -0.672  13.694  22.155  0.00  0.00    +0.000 A 
ATOM     21  C   UNL     1      -1.973  14.099  22.443  0.00  0.00    +0.000 A 
ATOM     22  C   UNL     1      -2.897  13.175  22.931  0.00  0.00    +0.000 A 
ATOM     23  C   UNL     1      -2.513  11.851  23.154  0.00  0.00    +0.000 A 
ENDBRANCH  17  18
ENDBRANCH  14  17
ENDBRANCH   5  13
BRANCH   1  24
ATOM     24  S   UNL     1       3.282   5.336  19.664  0.00  0.00    +0.000 S 
ATOM     25  O   UNL     1       2.652   4.719  20.811  0.00  0.00    +0.000 OA
ATOM     26  O   UNL     1       4.717   5.531  19.614  0.00  0.00    +0.000 OA
BRANCH  24  27
ATOM     27  N   UNL     1       2.832   4.451  18.258  0.00  0.00    +0.000 NA
BRANCH  27  29
ATOM     28  C   UNL     1       4.621   4.069  16.535  0.00  0.00    +0.000 C 
ATOM     29  C   UNL     1       3.885   3.522  17.749  0.00  0.00    +0.000 C 
ENDBRANCH  27  29
BRANCH  27  30
ATOM     30  C   UNL     1       1.451   3.883  18.327  0.00  0.00    +0.000 C 
ATOM     31  C   UNL     1       1.420   2.378  18.533  0.00  0.00    +0.000 C 
ENDBRANCH  27  30
ENDBRANCH  24  27
ENDBRANCH   1  24
TORSDOF 8
ENDMDL
MODEL 3
REMARK VINA RESULT:      -7.3      1.111      1.564
REMARK  Name = 
REMARK  10 active torsions:
REMARK  status: ('A' for Active; 'I' for Inactive)
REMARK    1  A    between atoms: C_1  and  C_2
REMARK    2  A    between atoms: C_2  and  N_3
REMARK    3  A    between atoms: N_3  and  C_4
REMARK    4  A    between atoms: N_3  and  S_6
REMARK    5  A    between atoms: C_4  and  C_5
REMARK    6  A    between atoms: S_6  and  C_9
REMARK    7  A    between atoms: C_12  and  N_13
REMARK    8  A    between atoms: C_19  and  N_20
REMARK    9  A    between atoms: C_21  and  C_23
REMARK   10  A    between atoms: C_23  and  C_24
REMARK                            x       y       z     vdW  Elec       q    Type
REMARK                         _______ _______ _______ _____ _____    ______ ____
ROOT
ATOM      1  C   UNL     1       2.516   6.999  19.270  0.00  0.00    +0.000 A 
ATOM      2  C   UNL     1       2.750   7.827  18.180  0.00  0.00    +0.000 A 
ATOM      3  C   UNL     1       2.112   9.071  18.121  0.00  0.00    +0.000 A 
ATOM      4  C   UNL     1       1.231   9.535  19.125  0.00  0.00    +0.000 A 
ATOM      5  C   UNL     1       1.020   8.656  20.214  0.00  0.00    +0.000 A 
ATOM      6  C   UNL     1       1.649   7.401  20.284  0.00  0.00    +0.000 A 
ENDROOT
BRANCH   4   7
ATOM      7  N   UNL     1       0.609  10.758  18.937  0.00  0.00    +0.000 N 
ATOM      8  C   UNL     1      -0.827  10.960  18.725  0.00  0.00    +0.000 C 
ATOM      9  C   UNL     1      -1.029  12.068  17.673  0.00  0.00    +0.000 C 
ATOM     10  O   UNL     1      -0.355  13.287  18.028  0.00  0.00    +0.000 OA
ATOM     11  C   UNL     1       1.052  13.049  18.204  0.00  0.00    +0.000 C 
ATOM     12  C   UNL     1       1.301  12.011  19.309  0.00  0.00    +0.000 C 
ENDBRANCH   4   7
BRANCH   5  13
ATOM     13  N   UNL     1       0.147   8.946  21.276  0.00  0.00    +0.000 N 
ATOM     14  C   UNL     1       0.590   9.502  22.465  0.00  0.00    +0.000 C 
ATOM     15  O   UNL     1       1.766   9.666  22.767  0.00  0.00    +0.000 OA
ATOM     16  H   UNL     1      -0.838   8.986  21.050  0.00  0.00    +0.000 HD
BRANCH  14  17
ATOM     17  C   UNL     1      -0.546   9.853  23.417  0.00  0.00    +0.000 C 
BRANCH  17  18
ATOM     18  C   UNL     1      -1.213  11.157  23.051  0.00  0.00    +0.000 A 
ATOM     19  C   UNL     1      -0.526  12.096  22.268  0.00  0.00    +0.000 A 
ATOM     20  C   UNL     1      -1.095  13.338  21.990  0.00  0.00    +0.000 A 
ATOM     21  C   UNL     1      -2.361  13.651  22.479  0.00  0.00    +0.000 A 
ATOM     22  C   UNL     1      -3.068  12.711  23.229  0.00  0.00    +0.000 A 
ATOM     23  C   UNL     1      -2.499  11.468  23.511  0.00  0.00    +0.000 A 
ENDBRANCH  17  18
ENDBRANCH  14  17
ENDBRANCH   5  13
BRANCH   1  24
ATOM     24  S   UNL     1       3.281   5.401  19.327  0.00  0.00    +0.000 S 
ATOM     25  O   UNL     1       2.454   4.571  20.177  0.00  0.00    +0.000 OA
ATOM     26  O   UNL     1       4.691   5.585  19.606  0.00  0.00    +0.000 OA
BRANCH  24  27
ATOM     27  N   UNL     1       3.144   4.827  17.711  0.00  0.00    +0.000 NA
BRANCH  27  29
ATOM     28  C   UNL     1       4.942   5.570  16.119  0.00  0.00    +0.000 C 
ATOM     29  C   UNL     1       4.447   4.486  17.065  0.00  0.00    +0.000 C 
ENDBRANCH  27  29
BRANCH  27  30
ATOM     30  C   UNL     1       2.050   3.826  17.523  0.00  0.00    +0.000 C 
ATOM     31  C   UNL     1       2.522   2.384  17.605  0.00  0.00    +0.000 C 
ENDBRANCH  27  30
ENDBRANCH  24  27
ENDBRANCH   1  24
TORSDOF 8
ENDMDL
MODEL 4
REMARK VINA RESULT:      -7.2      1.208      2.013
REMARK  Name = 
REMARK  10 active torsions:
REMARK  status: ('A' for Active; 'I' for Inactive)
REMARK    1  A    between atoms: C_1  and  C_2
REMARK    2  A    between atoms: C_2  and  N_3
REMARK    3  A    between atoms: N_3  and  C_4
REMARK    4  A    between atoms: N_3  and  S_6
REMARK    5  A    between atoms: C_4  and  C_5
REMARK    6  A    between atoms: S_6  and  C_9
REMARK    7  A    between atoms: C_12  and  N_13
REMARK    8  A    between atoms: C_19  and  N_20
REMARK    9  A    between atoms: C_21  and  C_23
REMARK   10  A    between atoms: C_23  and  C_24
REMARK                            x       y       z     vdW  Elec       q    Type
REMARK                         _______ _______ _______ _____ _____    ______ ____
ROOT
ATOM      1  C   UNL     1       2.643   6.847  19.313  0.00  0.00    +0.000 A 
ATOM      2  C   UNL     1       2.891   7.607  18.178  0.00  0.00    +0.000 A 
ATOM      3  C   UNL     1       2.220   8.824  18.013  0.00  0.00    +0.000 A 
ATOM      4  C   UNL     1       1.291   9.326  18.953  0.00  0.00    +0.000 A 
ATOM      5  C   UNL     1       1.067   8.515  20.092  0.00  0.00    +0.000 A 
ATOM      6  C   UNL     1       1.729   7.288  20.268  0.00  0.00    +0.000 A 
ENDROOT
BRANCH   4   7
ATOM      7  N   UNL     1       0.640  10.513  18.661  0.00  0.00    +0.000 N 
ATOM      8  C   UNL     1       1.292  11.789  18.357  0.00  0.00    +0.000 C 
ATOM      9  C   UNL     1       0.497  12.930  19.022  0.00  0.00    +0.000 C 
ATOM     10  O   UNL     1      -0.889  12.924  18.642  0.00  0.00    +0.000 OA
ATOM     11  C   UNL     1      -1.495  11.663  18.978  0.00  0.00    +0.000 C 
ATOM     12  C   UNL     1      -0.784  10.504  18.263  0.00  0.00    +0.000 C 
ENDBRANCH   4   7
BRANCH   5  13
ATOM     13  N   UNL     1       0.148   8.848  21.101  0.00  0.00    +0.000 N 
ATOM     14  C   UNL     1       0.524   9.534  22.244  0.00  0.00    +0.000 C 
ATOM     15  O   UNL     1       1.680   9.795  22.558  0.00  0.00    +0.000 OA
ATOM     16  H   UNL     1      -0.830   8.808  20.850  0.00  0.00    +0.000 HD
BRANCH  14  17
ATOM     17  C   UNL     1      -0.657   9.902  23.133  0.00  0.00    +0.000 C 
BRANCH  17  18
ATOM     18  C   UNL     1      -1.110  11.325  22.917  0.00  0.00    +0.000 A 
ATOM     19  C   UNL     1      -2.434  11.687  23.204  0.00  0.00    +0.000 A 
ATOM     20  C   UNL     1      -2.891  12.977  22.933  0.00  0.00    +0.000 A 
ATOM     21  C   UNL     1      -2.028  13.921  22.384  0.00  0.00    +0.000 A 
ATOM     22  C   UNL     1      -0.700  13.583  22.127  0.00  0.00    +0.000 A 
ATOM     23  C   UNL     1      -0.240  12.293  22.395  0.00  0.00    +0.000 A 
ENDBRANCH  17  18
ENDBRANCH  14  17
ENDBRANCH   5  13
BRANCH   1  24
ATOM     24  S   UNL     1       3.452   5.281  19.505  0.00  0.00    +0.000 S 
ATOM     25  O   UNL     1       2.660   4.512  20.439  0.00  0.00    +0.000 OA
ATOM     26  O   UNL     1       4.860   5.527  19.743  0.00  0.00    +0.000 OA
BRANCH  24  27
ATOM     27  N   UNL     1       3.310   4.558  17.950  0.00  0.00    +0.000 NA
BRANCH  27  29
ATOM     28  C   UNL     1       4.972   5.124  16.151  0.00  0.00    +0.000 C 
ATOM     29  C   UNL     1       4.614   4.207  17.311  0.00  0.00    +0.000 C 
ENDBRANCH  27  29
BRANCH  27  30
ATOM     30  C   UNL     1       2.252   3.505  17.876  0.00  0.00    +0.000 C 
ATOM     31  C   UNL     1       2.802   2.089  17.826  0.00  0.00    +0.000 C 
ENDBRANCH  27  30
ENDBRANCH  24  27
ENDBRANCH   1  24
TORSDOF 8
ENDMDL
MODEL 5
REMARK VINA RESULT:      -7.1      2.691      8.164
REMARK  Name = 
REMARK  10 active torsions:
REMARK  status: ('A' for Active; 'I' for Inactive)
REMARK    1  A    between atoms: C_1  and  C_2
REMARK    2  A    between atoms: C_2  and  N_3
REMARK    3  A    between atoms: N_3  and  C_4
REMARK    4  A    between atoms: N_3  and  S_6
REMARK    5  A    between atoms: C_4  and  C_5
REMARK    6  A    between atoms: S_6  and  C_9
REMARK    7  A    between atoms: C_12  and  N_13
REMARK    8  A    between atoms: C_19  and  N_20
REMARK    9  A    between atoms: C_21  and  C_23
REMARK   10  A    between atoms: C_23  and  C_24
REMARK                            x       y       z     vdW  Elec       q    Type
REMARK                         _______ _______ _______ _____ _____    ______ ____
ROOT
ATOM      1  C   UNL     1       1.240   9.223  19.710  0.00  0.00    +0.000 A 
ATOM      2  C   UNL     1       1.684   9.490  18.422  0.00  0.00    +0.000 A 
ATOM      3  C   UNL     1       2.483   8.546  17.768  0.00  0.00    +0.000 A 
ATOM      4  C   UNL     1       2.868   7.320  18.358  0.00  0.00    +0.000 A 
ATOM      5  C   UNL     1       2.395   7.093  19.673  0.00  0.00    +0.000 A 
ATOM      6  C   UNL     1       1.597   8.035  20.344  0.00  0.00    +0.000 A 
ENDROOT
BRANCH   4   7
ATOM      7  N   UNL     1       3.710   6.484  17.643  0.00  0.00    +0.000 N 
ATOM      8  C   UNL     1       3.498   5.051  17.418  0.00  0.00    +0.000 C 
ATOM      9  C   UNL     1       4.852   4.322  17.518  0.00  0.00    +0.000 C 
ATOM     10  O   UNL     1       5.836   4.872  16.626  0.00  0.00    +0.000 OA
ATOM     11  C   UNL     1       6.028   6.272  16.895  0.00  0.00    +0.000 C 
ATOM     12  C   UNL     1       4.716   7.051  16.721  0.00  0.00    +0.000 C 
ENDBRANCH   4   7
BRANCH   5  13
ATOM     13  N   UNL     1       2.716   5.944  20.416  0.00  0.00    +0.000 N 
ATOM     14  C   UNL     1       1.763   5.003  20.768  0.00  0.00    +0.000 C 
ATOM     15  O   UNL     1       0.555   5.130  20.599  0.00  0.00    +0.000 OA
ATOM     16  H   UNL     1       3.694   5.693  20.456  0.00  0.00    +0.000 HD
BRANCH  14  17
ATOM     17  C   UNL     1       2.358   3.780  21.452  0.00  0.00    +0.000 C 
BRANCH  17  18
ATOM     18  C   UNL     1       2.880   2.770  20.460  0.00  0.00    +0.000 A 
ATOM     19  C   UNL     1       4.185   2.273  20.591  0.00  0.00    +0.000 A 
ATOM     20  C   UNL     1       4.711   1.403  19.637  0.00  0.00    +0.000 A 
ATOM     21  C   UNL     1       3.936   1.009  18.550  0.00  0.00    +0.000 A 
ATOM     22  C   UNL     1       2.625   1.468  18.428  0.00  0.00    +0.000 A 
ATOM     23  C   UNL     1       2.096   2.342  19.380  0.00  0.00    +0.000 A 
ENDBRANCH  17  18
ENDBRANCH  14  17
ENDBRANCH   5  13
BRANCH   1  24
ATOM     24  S   UNL     1       0.269  10.436  20.564  0.00  0.00    +0.000 S 
ATOM     25  O   UNL     1       1.196  11.384  21.144  0.00  0.00    +0.000 OA
ATOM     26  O   UNL     1      -0.701   9.741  21.385  0.00  0.00    +0.000 OA
BRANCH  24  27
ATOM     27  N   UNL     1      -0.594  11.226  19.302  0.00  0.00    +0.000 NA
BRANCH  27  29
ATOM     28  C   UNL     1      -1.870  10.347  17.322  0.00  0.00    +0.000 C 
ATOM     29  C   UNL     1      -1.811  10.496  18.835  0.00  0.00    +0.000 C 
ENDBRANCH  27  29
BRANCH  27  30
ATOM     30  C   UNL     1      -0.769  12.693  19.526  0.00  0.00    +0.000 C 
ATOM     31  C   UNL     1      -0.342  13.547  18.344  0.00  0.00    +0.000 C 
ENDBRANCH  27  30
ENDBRANCH  24  27
ENDBRANCH   1  24
TORSDOF 8
ENDMDL
MODEL 6
REMARK VINA RESULT:      -7.1      1.664      2.432
REMARK  Name = 
REMARK  10 active torsions:
REMARK  status: ('A' for Active; 'I' for Inactive)
REMARK    1  A    between atoms: C_1  and  C_2
REMARK    2  A    between atoms: C_2  and  N_3
REMARK    3  A    between atoms: N_3  and  C_4
REMARK    4  A    between atoms: N_3  and  S_6
REMARK    5  A    between atoms: C_4  and  C_5
REMARK    6  A    between atoms: S_6  and  C_9
REMARK    7  A    between atoms: C_12  and  N_13
REMARK    8  A    between atoms: C_19  and  N_20
REMARK    9  A    between atoms: C_21  and  C_23
REMARK   10  A    between atoms: C_23  and  C_24
REMARK                            x       y       z     vdW  Elec       q    Type
REMARK                         _______ _______ _______ _____ _____    ______ ____
ROOT
ATOM      1  C   UNL     1       2.449   7.214  18.895  0.00  0.00    +0.000 A 
ATOM      2  C   UNL     1       2.736   8.133  17.894  0.00  0.00    +0.000 A 
ATOM      3  C   UNL     1       2.171   9.411  17.961  0.00  0.00    +0.000 A 
ATOM      4  C   UNL     1       1.313   9.822  19.007  0.00  0.00    +0.000 A 
ATOM      5  C   UNL     1       1.046   8.851  20.002  0.00  0.00    +0.000 A 
ATOM      6  C   UNL     1       1.601   7.561  19.945  0.00  0.00    +0.000 A 
ENDROOT
BRANCH   4   7
ATOM      7  N   UNL     1       0.763  11.092  18.944  0.00  0.00    +0.000 N 
ATOM      8  C   UNL     1      -0.663  11.396  18.803  0.00  0.00    +0.000 C 
ATOM      9  C   UNL     1      -0.828  12.600  17.855  0.00  0.00    +0.000 C 
ATOM     10  O   UNL     1      -0.069  13.742  18.283  0.00  0.00    +0.000 OA
ATOM     11  C   UNL     1       1.326  13.405  18.387  0.00  0.00    +0.000 C 
ATOM     12  C   UNL     1       1.544  12.265  19.393  0.00  0.00    +0.000 C 
ENDBRANCH   4   7
BRANCH   5  13
ATOM     13  N   UNL     1       0.185   9.083  21.089  0.00  0.00    +0.000 N 
ATOM     14  C   UNL     1       0.640   9.587  22.296  0.00  0.00    +0.000 C 
ATOM     15  O   UNL     1       1.820   9.749  22.589  0.00  0.00    +0.000 OA
ATOM     16  H   UNL     1      -0.803   9.124  20.879  0.00  0.00    +0.000 HD
BRANCH  14  17
ATOM     17  C   UNL     1      -0.485   9.883  23.279  0.00  0.00    +0.000 C 
BRANCH  17  18
ATOM     18  C   UNL     1      -1.138  11.216  23.012  0.00  0.00    +0.000 A 
ATOM     19  C   UNL     1      -2.457  11.443  23.432  0.00  0.00    +0.000 A 
ATOM     20  C   UNL     1      -3.103  12.639  23.122  0.00  0.00    +0.000 A 
ATOM     21  C   UNL     1      -2.436  13.626  22.400  0.00  0.00    +0.000 A 
ATOM     22  C   UNL     1      -1.113  13.426  22.008  0.00  0.00    +0.000 A 
ATOM     23  C   UNL     1      -0.464  12.228  22.315  0.00  0.00    +0.000 A 
ENDBRANCH  17  18
ENDBRANCH  14  17
ENDBRANCH   5  13
BRANCH   1  24
ATOM     24  S   UNL     1       3.120   5.577  18.790  0.00  0.00    +0.000 S 
ATOM     25  O   UNL     1       2.345   4.869  17.795  0.00  0.00    +0.000 OA
ATOM     26  O   UNL     1       3.260   5.059  20.136  0.00  0.00    +0.000 OA
BRANCH  24  27
ATOM     27  N   UNL     1       4.704   5.827  18.166  0.00  0.00    +0.000 NA
BRANCH  27  29
ATOM     28  C   UNL     1       7.014   5.715  19.150  0.00  0.00    +0.000 C 
ATOM     29  C   UNL     1       5.752   4.953  18.774  0.00  0.00    +0.000 C 
ENDBRANCH  27  29
BRANCH  27  30
ATOM     30  C   UNL     1       4.747   5.943  16.677  0.00  0.00    +0.000 C 
ATOM     31  C   UNL     1       5.345   4.728  15.986  0.00  0.00    +0.000 C 
ENDBRANCH  27  30
ENDBRANCH  24  27
ENDBRANCH   1  24
TORSDOF 8
ENDMDL
MODEL 7
REMARK VINA RESULT:      -6.9      0.602      1.368
REMARK  Name = 
REMARK  10 active torsions:
REMARK  status: ('A' for Active; 'I' for Inactive)
REMARK    1  A    between atoms: C_1  and  C_2
REMARK    2  A    between atoms: C_2  and  N_3
REMARK    3  A    between atoms: N_3  and  C_4
REMARK    4  A    between atoms: N_3  and  S_6
REMARK    5  A    between atoms: C_4  and  C_5
REMARK    6  A    between atoms: S_6  and  C_9
REMARK    7  A    between atoms: C_12  and  N_13
REMARK    8  A    between atoms: C_19  and  N_20
REMARK    9  A    between atoms: C_21  and  C_23
REMARK   10  A    between atoms: C_23  and  C_24
REMARK                            x       y       z     vdW  Elec       q    Type
REMARK                         _______ _______ _______ _____ _____    ______ ____
ROOT
ATOM      1  C   UNL     1       2.607   7.016  18.898  0.00  0.00    +0.000 A 
ATOM      2  C   UNL     1       2.730   7.859  17.802  0.00  0.00    +0.000 A 
ATOM      3  C   UNL     1       2.024   9.068  17.791  0.00  0.00    +0.000 A 
ATOM      4  C   UNL     1       1.182   9.479  18.849  0.00  0.00    +0.000 A 
ATOM      5  C   UNL     1       1.085   8.586  19.943  0.00  0.00    +0.000 A 
ATOM      6  C   UNL     1       1.783   7.366  19.965  0.00  0.00    +0.000 A 
ENDROOT
BRANCH   4   7
ATOM      7  N   UNL     1       0.485  10.668  18.708  0.00  0.00    +0.000 N 
ATOM      8  C   UNL     1       1.086  11.988  18.502  0.00  0.00    +0.000 C 
ATOM      9  C   UNL     1       0.294  13.032  19.313  0.00  0.00    +0.000 C 
ATOM     10  O   UNL     1      -1.108  13.019  19.001  0.00  0.00    +0.000 OA
ATOM     11  C   UNL     1      -1.662  11.712  19.238  0.00  0.00    +0.000 C 
ATOM     12  C   UNL     1      -0.956  10.651  18.380  0.00  0.00    +0.000 C 
ENDBRANCH   4   7
BRANCH   5  13
ATOM     13  N   UNL     1       0.264   8.824  21.058  0.00  0.00    +0.000 N 
ATOM     14  C   UNL     1       0.483   9.883  21.922  0.00  0.00    +0.000 C 
ATOM     15  O   UNL     1       1.462  10.620  21.896  0.00  0.00    +0.000 OA
ATOM     16  H   UNL     1      -0.637   8.366  21.058  0.00  0.00    +0.000 HD
BRANCH  14  17
ATOM     17  C   UNL     1      -0.607  10.026  22.977  0.00  0.00    +0.000 C 
BRANCH  17  18
ATOM     18  C   UNL     1      -1.221  11.404  22.979  0.00  0.00    +0.000 A 
ATOM     19  C   UNL     1      -2.565  11.568  23.344  0.00  0.00    +0.000 A 
ATOM     20  C   UNL     1      -3.171  12.822  23.272  0.00  0.00    +0.000 A 
ATOM     21  C   UNL     1      -2.438  13.927  22.848  0.00  0.00    +0.000 A 
ATOM     22  C   UNL     1      -1.091  13.783  22.516  0.00  0.00    +0.000 A 
ATOM     23  C   UNL     1      -0.483  12.528  22.585  0.00  0.00    +0.000 A 
ENDBRANCH  17  18
ENDBRANCH  14  17
ENDBRANCH   5  13
BRANCH   1  24
ATOM     24  S   UNL     1       3.459   5.461  18.897  0.00  0.00    +0.000 S 
ATOM     25  O   UNL     1       4.448   5.524  19.952  0.00  0.00    +0.000 OA
ATOM     26  O   UNL     1       3.839   5.155  17.533  0.00  0.00    +0.000 OA
BRANCH  24  27
ATOM     27  N   UNL     1       2.245   4.333  19.361  0.00  0.00    +0.000 NA
BRANCH  27  29
ATOM     28  C   UNL     1       2.208   2.259  17.941  0.00  0.00    +0.000 C 
ATOM     29  C   UNL     1       1.594   3.623  18.219  0.00  0.00    +0.000 C 
ENDBRANCH  27  29
BRANCH  27  30
ATOM     30  C   UNL     1       2.641   3.470  20.514  0.00  0.00    +0.000 C 
ATOM     31  C   UNL     1       1.479   3.076  21.410  0.00  0.00    +0.000 C 
ENDBRANCH  27  30
ENDBRANCH  24  27
ENDBRANCH   1  24
TORSDOF 8
ENDMDL
MODEL 8
REMARK VINA RESULT:      -6.9      1.127      2.029
REMARK  Name = 
REMARK  10 active torsions:
REMARK  status: ('A' for Active; 'I' for Inactive)
REMARK    1  A    between atoms: C_1  and  C_2
REMARK    2  A    between atoms: C_2  and  N_3
REMARK    3  A    between atoms: N_3  and  C_4
REMARK    4  A    between atoms: N_3  and  S_6
REMARK    5  A    between atoms: C_4  and  C_5
REMARK    6  A    between atoms: S_6  and  C_9
REMARK    7  A    between atoms: C_12  and  N_13
REMARK    8  A    between atoms: C_19  and  N_20
REMARK    9  A    between atoms: C_21  and  C_23
REMARK   10  A    between atoms: C_23  and  C_24
REMARK                            x       y       z     vdW  Elec       q    Type
REMARK                         _______ _______ _______ _____ _____    ______ ____
ROOT
ATOM      1  C   UNL     1       2.741   6.893  19.404  0.00  0.00    +0.000 A 
ATOM      2  C   UNL     1       2.998   7.632  18.257  0.00  0.00    +0.000 A 
ATOM      3  C   UNL     1       2.296   8.823  18.043  0.00  0.00    +0.000 A 
ATOM      4  C   UNL     1       1.326   9.320  18.944  0.00  0.00    +0.000 A 
ATOM      5  C   UNL     1       1.095   8.531  20.097  0.00  0.00    +0.000 A 
ATOM      6  C   UNL     1       1.789   7.329  20.322  0.00  0.00    +0.000 A 
ENDROOT
BRANCH   4   7
ATOM      7  N   UNL     1       0.648  10.479  18.605  0.00  0.00    +0.000 N 
ATOM      8  C   UNL     1       1.271  11.760  18.260  0.00  0.00    +0.000 C 
ATOM      9  C   UNL     1       0.442  12.903  18.877  0.00  0.00    +0.000 C 
ATOM     10  O   UNL     1      -0.940  12.849  18.487  0.00  0.00    +0.000 OA
ATOM     11  C   UNL     1      -1.517  11.586  18.863  0.00  0.00    +0.000 C 
ATOM     12  C   UNL     1      -0.771  10.420  18.196  0.00  0.00    +0.000 C 
ENDBRANCH   4   7
BRANCH   5  13
ATOM     13  N   UNL     1       0.139   8.860  21.072  0.00  0.00    +0.000 N 
ATOM     14  C   UNL     1       0.479   9.506  22.250  0.00  0.00    +0.000 C 
ATOM     15  O   UNL     1       1.626   9.727  22.623  0.00  0.00    +0.000 OA
ATOM     16  H   UNL     1      -0.827   8.854  20.776  0.00  0.00    +0.000 HD
BRANCH  14  17
ATOM     17  C   UNL     1      -0.732   9.881  23.094  0.00  0.00    +0.000 C 
BRANCH  17  18
ATOM     18  C   UNL     1      -1.135  11.323  22.903  0.00  0.00    +0.000 A 
ATOM     19  C   UNL     1      -2.383  11.765  23.363  0.00  0.00    +0.000 A 
ATOM     20  C   UNL     1      -2.805  13.072  23.122  0.00  0.00    +0.000 A 
ATOM     21  C   UNL     1      -1.980  13.954  22.430  0.00  0.00    +0.000 A 
ATOM     22  C   UNL     1      -0.722  13.536  21.997  0.00  0.00    +0.000 A 
ATOM     23  C   UNL     1      -0.298  12.227  22.235  0.00  0.00    +0.000 A 
ENDBRANCH  17  18
ENDBRANCH  14  17
ENDBRANCH   5  13
BRANCH   1  24
ATOM     24  S   UNL     1       3.591   5.358  19.657  0.00  0.00    +0.000 S 
ATOM     25  O   UNL     1       2.937   4.695  20.764  0.00  0.00    +0.000 OA
ATOM     26  O   UNL     1       5.014   5.629  19.683  0.00  0.00    +0.000 OA
BRANCH  24  27
ATOM     27  N   UNL     1       3.261   4.469  18.221  0.00  0.00    +0.000 NA
BRANCH  27  29
ATOM     28  C   UNL     1       1.248   2.968  18.333  0.00  0.00    +0.000 C 
ATOM     29  C   UNL     1       1.808   4.318  17.909  0.00  0.00    +0.000 C 
ENDBRANCH  27  29
BRANCH  27  30
ATOM     30  C   UNL     1       4.130   4.853  17.068  0.00  0.00    +0.000 C 
ATOM     31  C   UNL     1       4.839   3.676  16.419  0.00  0.00    +0.000 C 
ENDBRANCH  27  30
ENDBRANCH  24  27
ENDBRANCH   1  24
TORSDOF 8
ENDMDL
MODEL 9
REMARK VINA RESULT:      -6.8      1.256      1.862
REMARK  Name = 
REMARK  10 active torsions:
REMARK  status: ('A' for Active; 'I' for Inactive)
REMARK    1  A    between atoms: C_1  and  C_2
REMARK    2  A    between atoms: C_2  and  N_3
REMARK    3  A    between atoms: N_3  and  C_4
REMARK    4  A    between atoms: N_3  and  S_6
REMARK    5  A    between atoms: C_4  and  C_5
REMARK    6  A    between atoms: S_6  and  C_9
REMARK    7  A    between atoms: C_12  and  N_13
REMARK    8  A    between atoms: C_19  and  N_20
REMARK    9  A    between atoms: C_21  and  C_23
REMARK   10  A    between atoms: C_23  and  C_24
REMARK                            x       y       z     vdW  Elec       q    Type
REMARK                         _______ _______ _______ _____ _____    ______ ____
ROOT
ATOM      1  C   UNL     1       2.758   6.853  19.253  0.00  0.00    +0.000 A 
ATOM      2  C   UNL     1       2.919   7.667  18.140  0.00  0.00    +0.000 A 
ATOM      3  C   UNL     1       2.199   8.864  18.062  0.00  0.00    +0.000 A 
ATOM      4  C   UNL     1       1.305   9.294  19.069  0.00  0.00    +0.000 A 
ATOM      5  C   UNL     1       1.170   8.431  20.183  0.00  0.00    +0.000 A 
ATOM      6  C   UNL     1       1.882   7.222  20.272  0.00  0.00    +0.000 A 
ENDROOT
BRANCH   4   7
ATOM      7  N   UNL     1       0.599  10.468  18.862  0.00  0.00    +0.000 N 
ATOM      8  C   UNL     1      -0.838  10.561  18.589  0.00  0.00    +0.000 C 
ATOM      9  C   UNL     1      -1.079  11.661  17.537  0.00  0.00    +0.000 C 
ATOM     10  O   UNL     1      -0.517  12.924  17.928  0.00  0.00    +0.000 OA
ATOM     11  C   UNL     1       0.896  12.792  18.163  0.00  0.00    +0.000 C 
ATOM     12  C   UNL     1       1.176  11.766  19.272  0.00  0.00    +0.000 C 
ENDBRANCH   4   7
BRANCH   5  13
ATOM     13  N   UNL     1       0.296   8.689  21.252  0.00  0.00    +0.000 N 
ATOM     14  C   UNL     1       0.696   9.386  22.380  0.00  0.00    +0.000 C 
ATOM     15  O   UNL     1       1.849   9.720  22.627  0.00  0.00    +0.000 OA
ATOM     16  H   UNL     1      -0.692   8.587  21.060  0.00  0.00    +0.000 HD
BRANCH  14  17
ATOM     17  C   UNL     1      -0.449   9.664  23.345  0.00  0.00    +0.000 C 
BRANCH  17  18
ATOM     18  C   UNL     1      -1.118  10.988  23.069  0.00  0.00    +0.000 A 
ATOM     19  C   UNL     1      -2.393  11.248  23.593  0.00  0.00    +0.000 A 
ATOM     20  C   UNL     1      -3.060  12.432  23.280  0.00  0.00    +0.000 A 
ATOM     21  C   UNL     1      -2.456  13.373  22.450  0.00  0.00    +0.000 A 
ATOM     22  C   UNL     1      -1.175  13.141  21.952  0.00  0.00    +0.000 A 
ATOM     23  C   UNL     1      -0.506  11.956  22.262  0.00  0.00    +0.000 A 
ENDBRANCH  17  18
ENDBRANCH  14  17
ENDBRANCH   5  13
BRANCH   1  24
ATOM     24  S   UNL     1       3.629   5.312  19.337  0.00  0.00    +0.000 S 
ATOM     25  O   UNL     1       2.817   4.414  20.128  0.00  0.00    +0.000 OA
ATOM     26  O   UNL     1       5.005   5.589  19.697  0.00  0.00    +0.000 OA
BRANCH  24  27
ATOM     27  N   UNL     1       3.624   4.754  17.709  0.00  0.00    +0.000 NA
BRANCH  27  29
ATOM     28  C   UNL     1       5.117   5.231  15.744  0.00  0.00    +0.000 C 
ATOM     29  C   UNL     1       4.982   4.580  17.112  0.00  0.00    +0.000 C 
ENDBRANCH  27  29
BRANCH  27  30
ATOM     30  C   UNL     1       2.664   3.635  17.464  0.00  0.00    +0.000 C 
ATOM     31  C   UNL     1       1.209   4.071  17.451  0.00  0.00    +0.000 C 
ENDBRANCH  27  30
ENDBRANCH  24  27
ENDBRANCH   1  24
TORSDOF 8
ENDMDL
