MODEL 1
REMARK VINA RESULT:      -7.2      0.000      0.000
REMARK  Name = 
REMARK  10 active torsions:
REMARK  status: ('A' for Active; 'I' for Inactive)
REMARK    1  A    between atoms: C_1  and  C_2
REMARK    2  A    between atoms: C_6  and  C_7
REMARK    3  A    between atoms: C_13  and  C_14
REMARK    4  A    between atoms: N_15  and  C_16
REMARK    5  A    between atoms: C_16  and  C_17
REMARK    6  A    between atoms: C_17  and  C_18
REMARK    7  A    between atoms: C_18  and  C_19
REMARK    8  A    between atoms: C_19  and  C_20
REMARK    9  A    between atoms: C_20  and  C_21
REMARK   10  A    between atoms: C_21  and  O_23
REMARK                            x       y       z     vdW  Elec       q    Type
REMARK                         _______ _______ _______ _____ _____    ______ ____
ROOT
ATOM      1  C   UNL     1       6.237   4.612  14.510  0.00  0.00    +0.000 C 
ATOM      2  C   UNL     1       5.542   4.511  15.860  0.00  0.00    +0.000 A 
ATOM      3  N   UNL     1       4.410   3.891  15.735  0.00  0.00    +0.000 NA
ATOM      4  C   UNL     1       3.592   3.679  16.803  0.00  0.00    +0.000 A 
ATOM      5  O   UNL     1       2.506   3.121  16.676  0.00  0.00    +0.000 OA
ATOM      6  C   UNL     1       4.067   4.124  18.151  0.00  0.00    +0.000 A 
ATOM      7  C   UNL     1       5.260   4.755  18.241  0.00  0.00    +0.000 A 
ATOM      8  C   UNL     1       5.799   5.191  19.595  0.00  0.00    +0.000 C 
ATOM      9  N   UNL     1       6.046   5.019  17.078  0.00  0.00    +0.000 N 
ENDROOT
BRANCH   6  10
ATOM     10  C   UNL     1       3.189   3.856  19.305  0.00  0.00    +0.000 A 
ATOM     11  C   UNL     1       2.091   4.689  19.560  0.00  0.00    +0.000 A 
ATOM     12  C   UNL     1       1.246   4.425  20.640  0.00  0.00    +0.000 A 
ATOM     13  C   UNL     1       1.489   3.327  21.464  0.00  0.00    +0.000 A 
ATOM     14  C   UNL     1       2.584   2.499  21.221  0.00  0.00    +0.000 A 
ATOM     15  C   UNL     1       3.436   2.765  20.147  0.00  0.00    +0.000 A 
ENDBRANCH   6  10
BRANCH   9  16
ATOM     16  C   UNL     1       7.387   5.668  17.255  0.00  0.00    +0.000 C 
BRANCH  16  17
ATOM     17  C   UNL     1       7.397   7.184  17.245  0.00  0.00    +0.000 C 
BRANCH  17  18
ATOM     18  C   UNL     1       8.244   7.866  18.322  0.00  0.00    +0.000 C 
BRANCH  18  19
ATOM     19  C   UNL     1       8.313   9.353  17.950  0.00  0.00    +0.000 C 
BRANCH  19  20
ATOM     20  C   UNL     1       9.092  10.199  18.945  0.00  0.00    +0.000 C 
BRANCH  20  21
ATOM     21  C   UNL     1       9.305  11.599  18.414  0.00  0.00    +0.000 C 
ATOM     22  O   UNL     1       8.594  12.163  17.593  0.00  0.00    +0.000 OA
BRANCH  21  23
ATOM     23  O   UNL     1      10.400  12.190  18.959  0.00  0.00    +0.000 OA
ATOM     24  H   UNL     1      10.367  12.243  19.935  0.00  0.00    +0.000 HD
ENDBRANCH  21  23
ENDBRANCH  20  21
ENDBRANCH  19  20
ENDBRANCH  18  19
ENDBRANCH  17  18
ENDBRANCH  16  17
ENDBRANCH   9  16
TORSDOF 8
ENDMDL
MODEL 2
REMARK VINA RESULT:      -7.0      0.925      1.137
REMARK  Name = 
REMARK  10 active torsions:
REMARK  status: ('A' for Active; 'I' for Inactive)
REMARK    1  A    between atoms: C_1  and  C_2
REMARK    2  A    between atoms: C_6  and  C_7
REMARK    3  A    between atoms: C_13  and  C_14
REMARK    4  A    between atoms: N_15  and  C_16
REMARK    5  A    between atoms: C_16  and  C_17
REMARK    6  A    between atoms: C_17  and  C_18
REMARK    7  A    between atoms: C_18  and  C_19
REMARK    8  A    between atoms: C_19  and  C_20
REMARK    9  A    between atoms: C_20  and  C_21
REMARK   10  A    between atoms: C_21  and  O_23
REMARK                            x       y       z     vdW  Elec       q    Type
REMARK                         _______ _______ _______ _____ _____    ______ ____
ROOT
ATOM      1  C   UNL     1       6.609   4.629  15.079  0.00  0.00    +0.000 C 
ATOM      2  C   UNL     1       5.650   4.537  16.257  0.00  0.00    +0.000 A 
ATOM      3  N   UNL     1       5.146   3.346  16.332  0.00  0.00    +0.000 NA
ATOM      4  C   UNL     1       4.250   3.010  17.301  0.00  0.00    +0.000 A 
ATOM      5  O   UNL     1       3.749   1.890  17.349  0.00  0.00    +0.000 OA
ATOM      6  C   UNL     1       3.908   4.043  18.329  0.00  0.00    +0.000 A 
ATOM      7  C   UNL     1       4.465   5.271  18.224  0.00  0.00    +0.000 A 
ATOM      8  C   UNL     1       4.176   6.339  19.267  0.00  0.00    +0.000 C 
ATOM      9  N   UNL     1       5.343   5.594  17.144  0.00  0.00    +0.000 N 
ENDROOT
BRANCH   6  10
ATOM     10  C   UNL     1       2.964   3.656  19.395  0.00  0.00    +0.000 A 
ATOM     11  C   UNL     1       1.598   3.937  19.258  0.00  0.00    +0.000 A 
ATOM     12  C   UNL     1       0.700   3.554  20.256  0.00  0.00    +0.000 A 
ATOM     13  C   UNL     1       1.160   2.885  21.390  0.00  0.00    +0.000 A 
ATOM     14  C   UNL     1       2.520   2.611  21.536  0.00  0.00    +0.000 A 
ATOM     15  C   UNL     1       3.422   3.000  20.544  0.00  0.00    +0.000 A 
ENDBRANCH   6  10
BRANCH   9  16
ATOM     16  C   UNL     1       5.975   6.954  17.120  0.00  0.00    +0.000 C 
BRANCH  16  17
ATOM     17  C   UNL     1       7.487   6.985  17.223  0.00  0.00    +0.000 C 
BRANCH  17  18
ATOM     18  C   UNL     1       8.073   7.761  18.405  0.00  0.00    +0.000 C 
BRANCH  18  19
ATOM     19  C   UNL     1       8.223   9.217  17.944  0.00  0.00    +0.000 C 
BRANCH  19  20
ATOM     20  C   UNL     1       9.120  10.055  18.841  0.00  0.00    +0.000 C 
BRANCH  20  21
ATOM     21  C   UNL     1       9.678  11.243  18.090  0.00  0.00    +0.000 C 
ATOM     22  O   UNL     1      10.866  11.464  17.892  0.00  0.00    +0.000 OA
BRANCH  21  23
ATOM     23  O   UNL     1       8.698  12.068  17.637  0.00  0.00    +0.000 OA
ATOM     24  H   UNL     1       7.951  12.162  18.261  0.00  0.00    +0.000 HD
ENDBRANCH  21  23
ENDBRANCH  20  21
ENDBRANCH  19  20
ENDBRANCH  18  19
ENDBRANCH  17  18
ENDBRANCH  16  17
ENDBRANCH   9  16
TORSDOF 8
ENDMDL
MODEL 3
REMARK VINA RESULT:      -7.0      0.344      1.065
REMARK  Name = 
REMARK  10 active torsions:
REMARK  status: ('A' for Active; 'I' for Inactive)
REMARK    1  A    between atoms: C_1  and  C_2
REMARK    2  A    between atoms: C_6  and  C_7
REMARK    3  A    between atoms: C_13  and  C_14
REMARK    4  A    between atoms: N_15  and  C_16
REMARK    5  A    between atoms: C_16  and  C_17
REMARK    6  A    between atoms: C_17  and  C_18
REMARK    7  A    between atoms: C_18  and  C_19
REMARK    8  A    between atoms: C_19  and  C_20
REMARK    9  A    between atoms: C_20  and  C_21
REMARK   10  A    between atoms: C_21  and  O_23
REMARK                            x       y       z     vdW  Elec       q    Type
REMARK                         _______ _______ _______ _____ _____    ______ ____
ROOT
ATOM      1  C   UNL     1       6.351   4.784  14.612  0.00  0.00    +0.000 C 
ATOM      2  C   UNL     1       5.632   4.640  15.946  0.00  0.00    +0.000 A 
ATOM      3  N   UNL     1       4.519   3.996  15.787  0.00  0.00    +0.000 NA
ATOM      4  C   UNL     1       3.685   3.745  16.834  0.00  0.00    +0.000 A 
ATOM      5  O   UNL     1       2.616   3.163  16.675  0.00  0.00    +0.000 OA
ATOM      6  C   UNL     1       4.123   4.174  18.199  0.00  0.00    +0.000 A 
ATOM      7  C   UNL     1       5.298   4.832  18.325  0.00  0.00    +0.000 A 
ATOM      8  C   UNL     1       5.801   5.255  19.697  0.00  0.00    +0.000 C 
ATOM      9  N   UNL     1       6.100   5.137  17.183  0.00  0.00    +0.000 N 
ENDROOT
BRANCH   6  10
ATOM     10  C   UNL     1       3.229   3.863  19.331  0.00  0.00    +0.000 A 
ATOM     11  C   UNL     1       3.459   2.724  20.114  0.00  0.00    +0.000 A 
ATOM     12  C   UNL     1       2.628   2.438  21.198  0.00  0.00    +0.000 A 
ATOM     13  C   UNL     1       1.568   3.289  21.508  0.00  0.00    +0.000 A 
ATOM     14  C   UNL     1       1.328   4.419  20.727  0.00  0.00    +0.000 A 
ATOM     15  C   UNL     1       2.153   4.704  19.637  0.00  0.00    +0.000 A 
ENDBRANCH   6  10
BRANCH   9  16
ATOM     16  C   UNL     1       7.421   5.814  17.399  0.00  0.00    +0.000 C 
BRANCH  16  17
ATOM     17  C   UNL     1       7.405   7.329  17.353  0.00  0.00    +0.000 C 
BRANCH  17  18
ATOM     18  C   UNL     1       8.196   8.052  18.446  0.00  0.00    +0.000 C 
BRANCH  18  19
ATOM     19  C   UNL     1       8.415   9.489  17.953  0.00  0.00    +0.000 C 
BRANCH  19  20
ATOM     20  C   UNL     1       9.376  10.293  18.814  0.00  0.00    +0.000 C 
BRANCH  20  21
ATOM     21  C   UNL     1       9.156  11.777  18.628  0.00  0.00    +0.000 C 
ATOM     22  O   UNL     1       8.881  12.328  17.569  0.00  0.00    +0.000 OA
BRANCH  21  23
ATOM     23  O   UNL     1       9.294  12.464  19.792  0.00  0.00    +0.000 OA
ATOM     24  H   UNL     1       9.766  11.962  20.485  0.00  0.00    +0.000 HD
ENDBRANCH  21  23
ENDBRANCH  20  21
ENDBRANCH  19  20
ENDBRANCH  18  19
ENDBRANCH  17  18
ENDBRANCH  16  17
ENDBRANCH   9  16
TORSDOF 8
ENDMDL
MODEL 4
REMARK VINA RESULT:      -6.9      0.890      1.331
REMARK  Name = 
REMARK  10 active torsions:
REMARK  status: ('A' for Active; 'I' for Inactive)
REMARK    1  A    between atoms: C_1  and  C_2
REMARK    2  A    between atoms: C_6  and  C_7
REMARK    3  A    between atoms: C_13  and  C_14
REMARK    4  A    between atoms: N_15  and  C_16
REMARK    5  A    between atoms: C_16  and  C_17
REMARK    6  A    between atoms: C_17  and  C_18
REMARK    7  A    between atoms: C_18  and  C_19
REMARK    8  A    between atoms: C_19  and  C_20
REMARK    9  A    between atoms: C_20  and  C_21
REMARK   10  A    between atoms: C_21  and  O_23
REMARK                            x       y       z     vdW  Elec       q    Type
REMARK                         _______ _______ _______ _____ _____    ______ ____
ROOT
ATOM      1  C   UNL     1       6.561   4.820  15.002  0.00  0.00    +0.000 C 
ATOM      2  C   UNL     1       5.639   4.674  16.204  0.00  0.00    +0.000 A 
ATOM      3  N   UNL     1       5.078   3.506  16.198  0.00  0.00    +0.000 NA
ATOM      4  C   UNL     1       4.199   3.132  17.168  0.00  0.00    +0.000 A 
ATOM      5  O   UNL     1       3.645   2.037  17.142  0.00  0.00    +0.000 OA
ATOM      6  C   UNL     1       3.945   4.087  18.292  0.00  0.00    +0.000 A 
ATOM      7  C   UNL     1       4.560   5.292  18.269  0.00  0.00    +0.000 A 
ATOM      8  C   UNL     1       4.361   6.280  19.408  0.00  0.00    +0.000 C 
ATOM      9  N   UNL     1       5.416   5.664  17.188  0.00  0.00    +0.000 N 
ENDROOT
BRANCH   6  10
ATOM     10  C   UNL     1       3.020   3.656  19.357  0.00  0.00    +0.000 A 
ATOM     11  C   UNL     1       3.500   2.913  20.445  0.00  0.00    +0.000 A 
ATOM     12  C   UNL     1       2.631   2.522  21.464  0.00  0.00    +0.000 A 
ATOM     13  C   UNL     1       1.283   2.874  21.406  0.00  0.00    +0.000 A 
ATOM     14  C   UNL     1       0.798   3.604  20.322  0.00  0.00    +0.000 A 
ATOM     15  C   UNL     1       1.663   3.991  19.296  0.00  0.00    +0.000 A 
ENDBRANCH   6  10
BRANCH   9  16
ATOM     16  C   UNL     1       6.115   6.990  17.254  0.00  0.00    +0.000 C 
BRANCH  16  17
ATOM     17  C   UNL     1       7.625   6.938  17.382  0.00  0.00    +0.000 C 
BRANCH  17  18
ATOM     18  C   UNL     1       8.242   7.777  18.503  0.00  0.00    +0.000 C 
BRANCH  18  19
ATOM     19  C   UNL     1       8.278   9.226  17.999  0.00  0.00    +0.000 C 
BRANCH  19  20
ATOM     20  C   UNL     1       9.062  10.169  18.898  0.00  0.00    +0.000 C 
BRANCH  20  21
ATOM     21  C   UNL     1       9.519  11.390  18.133  0.00  0.00    +0.000 C 
ATOM     22  O   UNL     1       8.977  12.488  18.158  0.00  0.00    +0.000 OA
BRANCH  21  23
ATOM     23  O   UNL     1      10.631  11.143  17.392  0.00  0.00    +0.000 OA
ATOM     24  H   UNL     1      11.284  11.869  17.418  0.00  0.00    +0.000 HD
ENDBRANCH  21  23
ENDBRANCH  20  21
ENDBRANCH  19  20
ENDBRANCH  18  19
ENDBRANCH  17  18
ENDBRANCH  16  17
ENDBRANCH   9  16
TORSDOF 8
ENDMDL
MODEL 5
REMARK VINA RESULT:      -6.8      2.904      3.404
REMARK  Name = 
REMARK  10 active torsions:
REMARK  status: ('A' for Active; 'I' for Inactive)
REMARK    1  A    between atoms: C_1  and  C_2
REMARK    2  A    between atoms: C_6  and  C_7
REMARK    3  A    between atoms: C_13  and  C_14
REMARK    4  A    between atoms: N_15  and  C_16
REMARK    5  A    between atoms: C_16  and  C_17
REMARK    6  A    between atoms: C_17  and  C_18
REMARK    7  A    between atoms: C_18  and  C_19
REMARK    8  A    between atoms: C_19  and  C_20
REMARK    9  A    between atoms: C_20  and  C_21
REMARK   10  A    between atoms: C_21  and  O_23
REMARK                            x       y       z     vdW  Elec       q    Type
REMARK                         _______ _______ _______ _____ _____    ______ ____
ROOT
ATOM      1  C   UNL     1       5.768   4.881  14.744  0.00  0.00    +0.000 C 
ATOM      2  C   UNL     1       4.915   4.717  15.994  0.00  0.00    +0.000 A 
ATOM      3  N   UNL     1       4.681   3.461  16.215  0.00  0.00    +0.000 NA
ATOM      4  C   UNL     1       3.930   3.051  17.273  0.00  0.00    +0.000 A 
ATOM      5  O   UNL     1       3.684   1.863  17.462  0.00  0.00    +0.000 OA
ATOM      6  C   UNL     1       3.431   4.092  18.226  0.00  0.00    +0.000 A 
ATOM      7  C   UNL     1       3.707   5.391  17.967  0.00  0.00    +0.000 A 
ATOM      8  C   UNL     1       3.252   6.480  18.927  0.00  0.00    +0.000 C 
ATOM      9  N   UNL     1       4.437   5.774  16.801  0.00  0.00    +0.000 N 
ENDROOT
BRANCH   6  10
ATOM     10  C   UNL     1       2.650   3.633  19.389  0.00  0.00    +0.000 A 
ATOM     11  C   UNL     1       1.251   3.586  19.321  0.00  0.00    +0.000 A 
ATOM     12  C   UNL     1       0.510   3.132  20.414  0.00  0.00    +0.000 A 
ATOM     13  C   UNL     1       1.161   2.718  21.575  0.00  0.00    +0.000 A 
ATOM     14  C   UNL     1       2.553   2.771  21.653  0.00  0.00    +0.000 A 
ATOM     15  C   UNL     1       3.297   3.232  20.564  0.00  0.00    +0.000 A 
ENDBRANCH   6  10
BRANCH   9  16
ATOM     16  C   UNL     1       4.761   7.225  16.606  0.00  0.00    +0.000 C 
BRANCH  16  17
ATOM     17  C   UNL     1       5.940   7.754  17.398  0.00  0.00    +0.000 C 
BRANCH  17  18
ATOM     18  C   UNL     1       7.318   7.209  17.014  0.00  0.00    +0.000 C 
BRANCH  18  19
ATOM     19  C   UNL     1       8.108   7.052  18.320  0.00  0.00    +0.000 C 
BRANCH  19  20
ATOM     20  C   UNL     1       7.652   5.881  19.175  0.00  0.00    +0.000 C 
BRANCH  20  21
ATOM     21  C   UNL     1       7.548   4.617  18.351  0.00  0.00    +0.000 C 
ATOM     22  O   UNL     1       8.277   4.319  17.413  0.00  0.00    +0.000 OA
BRANCH  21  23
ATOM     23  O   UNL     1       6.534   3.816  18.770  0.00  0.00    +0.000 OA
ATOM     24  H   UNL     1       6.224   4.023  19.673  0.00  0.00    +0.000 HD
ENDBRANCH  21  23
ENDBRANCH  20  21
ENDBRANCH  19  20
ENDBRANCH  18  19
ENDBRANCH  17  18
ENDBRANCH  16  17
ENDBRANCH   9  16
TORSDOF 8
ENDMDL
MODEL 6
REMARK VINA RESULT:      -6.8      1.220      1.644
REMARK  Name = 
REMARK  10 active torsions:
REMARK  status: ('A' for Active; 'I' for Inactive)
REMARK    1  A    between atoms: C_1  and  C_2
REMARK    2  A    between atoms: C_6  and  C_7
REMARK    3  A    between atoms: C_13  and  C_14
REMARK    4  A    between atoms: N_15  and  C_16
REMARK    5  A    between atoms: C_16  and  C_17
REMARK    6  A    between atoms: C_17  and  C_18
REMARK    7  A    between atoms: C_18  and  C_19
REMARK    8  A    between atoms: C_19  and  C_20
REMARK    9  A    between atoms: C_20  and  C_21
REMARK   10  A    between atoms: C_21  and  O_23
REMARK                            x       y       z     vdW  Elec       q    Type
REMARK                         _______ _______ _______ _____ _____    ______ ____
ROOT
ATOM      1  C   UNL     1       6.521   4.781  15.031  0.00  0.00    +0.000 C 
ATOM      2  C   UNL     1       5.580   4.640  16.219  0.00  0.00    +0.000 A 
ATOM      3  N   UNL     1       5.101   3.437  16.271  0.00  0.00    +0.000 NA
ATOM      4  C   UNL     1       4.225   3.059  17.242  0.00  0.00    +0.000 A 
ATOM      5  O   UNL     1       3.749   1.927  17.270  0.00  0.00    +0.000 OA
ATOM      6  C   UNL     1       3.876   4.058  18.300  0.00  0.00    +0.000 A 
ATOM      7  C   UNL     1       4.405   5.300  18.218  0.00  0.00    +0.000 A 
ATOM      8  C   UNL     1       4.108   6.336  19.291  0.00  0.00    +0.000 C 
ATOM      9  N   UNL     1       5.262   5.668  17.136  0.00  0.00    +0.000 N 
ENDROOT
BRANCH   6  10
ATOM     10  C   UNL     1       2.955   3.626  19.368  0.00  0.00    +0.000 A 
ATOM     11  C   UNL     1       3.461   3.037  20.535  0.00  0.00    +0.000 A 
ATOM     12  C   UNL     1       2.593   2.646  21.557  0.00  0.00    +0.000 A 
ATOM     13  C   UNL     1       1.220   2.845  21.420  0.00  0.00    +0.000 A 
ATOM     14  C   UNL     1       0.709   3.421  20.257  0.00  0.00    +0.000 A 
ATOM     15  C   UNL     1       1.573   3.806  19.230  0.00  0.00    +0.000 A 
ENDBRANCH   6  10
BRANCH   9  16
ATOM     16  C   UNL     1       5.865   7.042  17.137  0.00  0.00    +0.000 C 
BRANCH  16  17
ATOM     17  C   UNL     1       7.265   7.151  17.709  0.00  0.00    +0.000 C 
BRANCH  17  18
ATOM     18  C   UNL     1       8.061   8.400  17.324  0.00  0.00    +0.000 C 
BRANCH  18  19
ATOM     19  C   UNL     1       8.429   9.107  18.634  0.00  0.00    +0.000 C 
BRANCH  19  20
ATOM     20  C   UNL     1       9.112  10.451  18.435  0.00  0.00    +0.000 C 
BRANCH  20  21
ATOM     21  C   UNL     1      10.032  10.767  19.593  0.00  0.00    +0.000 C 
ATOM     22  O   UNL     1      11.163  11.228  19.496  0.00  0.00    +0.000 OA
BRANCH  21  23
ATOM     23  O   UNL     1       9.461  10.482  20.792  0.00  0.00    +0.000 OA
ATOM     24  H   UNL     1      10.080  10.070  21.428  0.00  0.00    +0.000 HD
ENDBRANCH  21  23
ENDBRANCH  20  21
ENDBRANCH  19  20
ENDBRANCH  18  19
ENDBRANCH  17  18
ENDBRANCH  16  17
ENDBRANCH   9  16
TORSDOF 8
ENDMDL
MODEL 7
REMARK VINA RESULT:      -6.8      2.695      3.271
REMARK  Name = 
REMARK  10 active torsions:
REMARK  status: ('A' for Active; 'I' for Inactive)
REMARK    1  A    between atoms: C_1  and  C_2
REMARK    2  A    between atoms: C_6  and  C_7
REMARK    3  A    between atoms: C_13  and  C_14
REMARK    4  A    between atoms: N_15  and  C_16
REMARK    5  A    between atoms: C_16  and  C_17
REMARK    6  A    between atoms: C_17  and  C_18
REMARK    7  A    between atoms: C_18  and  C_19
REMARK    8  A    between atoms: C_19  and  C_20
REMARK    9  A    between atoms: C_20  and  C_21
REMARK   10  A    between atoms: C_21  and  O_23
REMARK                            x       y       z     vdW  Elec       q    Type
REMARK                         _______ _______ _______ _____ _____    ______ ____
ROOT
ATOM      1  C   UNL     1       6.530   4.879  14.978  0.00  0.00    +0.000 C 
ATOM      2  C   UNL     1       5.482   4.734  16.073  0.00  0.00    +0.000 A 
ATOM      3  N   UNL     1       5.294   3.481  16.347  0.00  0.00    +0.000 NA
ATOM      4  C   UNL     1       4.396   3.086  17.291  0.00  0.00    +0.000 A 
ATOM      5  O   UNL     1       4.195   1.897  17.526  0.00  0.00    +0.000 OA
ATOM      6  C   UNL     1       3.672   4.146  18.060  0.00  0.00    +0.000 A 
ATOM      7  C   UNL     1       3.906   5.442  17.753  0.00  0.00    +0.000 A 
ATOM      8  C   UNL     1       3.222   6.555  18.533  0.00  0.00    +0.000 C 
ATOM      9  N   UNL     1       4.804   5.802  16.702  0.00  0.00    +0.000 N 
ENDROOT
BRANCH   6  10
ATOM     10  C   UNL     1       2.729   3.706  19.106  0.00  0.00    +0.000 A 
ATOM     11  C   UNL     1       3.196   3.421  20.396  0.00  0.00    +0.000 A 
ATOM     12  C   UNL     1       2.303   3.025  21.393  0.00  0.00    +0.000 A 
ATOM     13  C   UNL     1       0.942   2.917  21.109  0.00  0.00    +0.000 A 
ATOM     14  C   UNL     1       0.473   3.190  19.825  0.00  0.00    +0.000 A 
ATOM     15  C   UNL     1       1.364   3.579  18.823  0.00  0.00    +0.000 A 
ENDBRANCH   6  10
BRANCH   9  16
ATOM     16  C   UNL     1       5.065   7.258  16.452  0.00  0.00    +0.000 C 
BRANCH  16  17
ATOM     17  C   UNL     1       5.993   7.943  17.436  0.00  0.00    +0.000 C 
BRANCH  17  18
ATOM     18  C   UNL     1       7.490   7.864  17.128  0.00  0.00    +0.000 C 
BRANCH  18  19
ATOM     19  C   UNL     1       8.156   7.217  18.350  0.00  0.00    +0.000 C 
BRANCH  19  20
ATOM     20  C   UNL     1       7.955   5.713  18.435  0.00  0.00    +0.000 C 
BRANCH  20  21
ATOM     21  C   UNL     1       7.351   5.322  19.765  0.00  0.00    +0.000 C 
ATOM     22  O   UNL     1       6.189   4.976  19.943  0.00  0.00    +0.000 OA
BRANCH  21  23
ATOM     23  O   UNL     1       8.254   5.391  20.777  0.00  0.00    +0.000 OA
ATOM     24  H   UNL     1       8.243   6.247  21.249  0.00  0.00    +0.000 HD
ENDBRANCH  21  23
ENDBRANCH  20  21
ENDBRANCH  19  20
ENDBRANCH  18  19
ENDBRANCH  17  18
ENDBRANCH  16  17
ENDBRANCH   9  16
TORSDOF 8
ENDMDL
MODEL 8
REMARK VINA RESULT:      -6.8      5.554      7.975
REMARK  Name = 
REMARK  10 active torsions:
REMARK  status: ('A' for Active; 'I' for Inactive)
REMARK    1  A    between atoms: C_1  and  C_2
REMARK    2  A    between atoms: C_6  and  C_7
REMARK    3  A    between atoms: C_13  and  C_14
REMARK    4  A    between atoms: N_15  and  C_16
REMARK    5  A    between atoms: C_16  and  C_17
REMARK    6  A    between atoms: C_17  and  C_18
REMARK    7  A    between atoms: C_18  and  C_19
REMARK    8  A    between atoms: C_19  and  C_20
REMARK    9  A    between atoms: C_20  and  C_21
REMARK   10  A    between atoms: C_21  and  O_23
REMARK                            x       y       z     vdW  Elec       q    Type
REMARK                         _______ _______ _______ _____ _____    ______ ____
ROOT
ATOM      1  C   UNL     1       0.167   9.144  21.930  0.00  0.00    +0.000 C 
ATOM      2  C   UNL     1       0.987   8.322  20.945  0.00  0.00    +0.000 A 
ATOM      3  N   UNL     1       1.163   7.122  21.402  0.00  0.00    +0.000 NA
ATOM      4  C   UNL     1       1.874   6.192  20.707  0.00  0.00    +0.000 A 
ATOM      5  O   UNL     1       2.068   5.066  21.157  0.00  0.00    +0.000 OA
ATOM      6  C   UNL     1       2.396   6.571  19.356  0.00  0.00    +0.000 A 
ATOM      7  C   UNL     1       2.179   7.829  18.909  0.00  0.00    +0.000 A 
ATOM      8  C   UNL     1       2.658   8.248  17.528  0.00  0.00    +0.000 C 
ATOM      9  N   UNL     1       1.490   8.790  19.711  0.00  0.00    +0.000 N 
ENDROOT
BRANCH   6  10
ATOM     10  C   UNL     1       3.132   5.543  18.597  0.00  0.00    +0.000 A 
ATOM     11  C   UNL     1       2.434   4.616  17.812  0.00  0.00    +0.000 A 
ATOM     12  C   UNL     1       3.129   3.655  17.076  0.00  0.00    +0.000 A 
ATOM     13  C   UNL     1       4.522   3.619  17.115  0.00  0.00    +0.000 A 
ATOM     14  C   UNL     1       5.223   4.534  17.901  0.00  0.00    +0.000 A 
ATOM     15  C   UNL     1       4.530   5.491  18.645  0.00  0.00    +0.000 A 
ENDBRANCH   6  10
BRANCH   9  16
ATOM     16  C   UNL     1       1.230  10.149  19.131  0.00  0.00    +0.000 C 
BRANCH  16  17
ATOM     17  C   UNL     1       0.078  10.242  18.150  0.00  0.00    +0.000 C 
BRANCH  17  18
ATOM     18  C   UNL     1      -1.330  10.210  18.750  0.00  0.00    +0.000 C 
BRANCH  18  19
ATOM     19  C   UNL     1      -2.275  10.777  17.682  0.00  0.00    +0.000 C 
BRANCH  19  20
ATOM     20  C   UNL     1      -2.359   9.929  16.423  0.00  0.00    +0.000 C 
BRANCH  20  21
ATOM     21  C   UNL     1      -3.176  10.622  15.357  0.00  0.00    +0.000 C 
ATOM     22  O   UNL     1      -3.311  10.236  14.202  0.00  0.00    +0.000 OA
BRANCH  21  23
ATOM     23  O   UNL     1      -3.768  11.753  15.821  0.00  0.00    +0.000 OA
ATOM     24  H   UNL     1      -3.129  12.437  16.105  0.00  0.00    +0.000 HD
ENDBRANCH  21  23
ENDBRANCH  20  21
ENDBRANCH  19  20
ENDBRANCH  18  19
ENDBRANCH  17  18
ENDBRANCH  16  17
ENDBRANCH   9  16
TORSDOF 8
ENDMDL
MODEL 9
REMARK VINA RESULT:      -6.7      1.294      1.801
REMARK  Name = 
REMARK  10 active torsions:
REMARK  status: ('A' for Active; 'I' for Inactive)
REMARK    1  A    between atoms: C_1  and  C_2
REMARK    2  A    between atoms: C_6  and  C_7
REMARK    3  A    between atoms: C_13  and  C_14
REMARK    4  A    between atoms: N_15  and  C_16
REMARK    5  A    between atoms: C_16  and  C_17
REMARK    6  A    between atoms: C_17  and  C_18
REMARK    7  A    between atoms: C_18  and  C_19
REMARK    8  A    between atoms: C_19  and  C_20
REMARK    9  A    between atoms: C_20  and  C_21
REMARK   10  A    between atoms: C_21  and  O_23
REMARK                            x       y       z     vdW  Elec       q    Type
REMARK                         _______ _______ _______ _____ _____    ______ ____
ROOT
ATOM      1  C   UNL     1       6.189   4.336  14.800  0.00  0.00    +0.000 C 
ATOM      2  C   UNL     1       5.247   4.282  15.995  0.00  0.00    +0.000 A 
ATOM      3  N   UNL     1       5.001   3.051  16.316  0.00  0.00    +0.000 NA
ATOM      4  C   UNL     1       4.176   2.735  17.352  0.00  0.00    +0.000 A 
ATOM      5  O   UNL     1       3.919   1.568  17.633  0.00  0.00    +0.000 OA
ATOM      6  C   UNL     1       3.607   3.857  18.163  0.00  0.00    +0.000 A 
ATOM      7  C   UNL     1       3.897   5.128  17.805  0.00  0.00    +0.000 A 
ATOM      8  C   UNL     1       3.372   6.298  18.622  0.00  0.00    +0.000 C 
ATOM      9  N   UNL     1       4.709   5.406  16.663  0.00  0.00    +0.000 N 
ENDROOT
BRANCH   6  10
ATOM     10  C   UNL     1       2.744   3.501  19.306  0.00  0.00    +0.000 A 
ATOM     11  C   UNL     1       3.318   3.144  20.534  0.00  0.00    +0.000 A 
ATOM     12  C   UNL     1       2.505   2.827  21.623  0.00  0.00    +0.000 A 
ATOM     13  C   UNL     1       1.117   2.871  21.493  0.00  0.00    +0.000 A 
ATOM     14  C   UNL     1       0.540   3.216  20.272  0.00  0.00    +0.000 A 
ATOM     15  C   UNL     1       1.351   3.526  19.178  0.00  0.00    +0.000 A 
ENDBRANCH   6  10
BRANCH   9  16
ATOM     16  C   UNL     1       5.044   6.836  16.356  0.00  0.00    +0.000 C 
BRANCH  16  17
ATOM     17  C   UNL     1       5.992   7.517  17.322  0.00  0.00    +0.000 C 
BRANCH  17  18
ATOM     18  C   UNL     1       7.423   6.975  17.369  0.00  0.00    +0.000 C 
BRANCH  18  19
ATOM     19  C   UNL     1       8.234   7.949  18.234  0.00  0.00    +0.000 C 
BRANCH  19  20
ATOM     20  C   UNL     1       8.131   9.398  17.787  0.00  0.00    +0.000 C 
BRANCH  20  21
ATOM     21  C   UNL     1       9.054  10.281  18.597  0.00  0.00    +0.000 C 
ATOM     22  O   UNL     1       9.398  10.075  19.755  0.00  0.00    +0.000 OA
BRANCH  21  23
ATOM     23  O   UNL     1       9.481  11.359  17.890  0.00  0.00    +0.000 OA
ATOM     24  H   UNL     1       9.232  11.326  16.945  0.00  0.00    +0.000 HD
ENDBRANCH  21  23
ENDBRANCH  20  21
ENDBRANCH  19  20
ENDBRANCH  18  19
ENDBRANCH  17  18
ENDBRANCH  16  17
ENDBRANCH   9  16
TORSDOF 8
ENDMDL
