MODEL 1
REMARK VINA RESULT:      -8.0      0.000      0.000
REMARK  Name = 
REMARK  7 active torsions:
REMARK  status: ('A' for Active; 'I' for Inactive)
REMARK    1  A    between atoms: C_1  and  C_2
REMARK    2  A    between atoms: C_2  and  O_3
REMARK    3  A    between atoms: C_2  and  C_4
REMARK    4  A    between atoms: C_4  and  O_5
REMARK    5  A    between atoms: O_5  and  C_6
REMARK    6  A    between atoms: C_17  and  C_18
REMARK    7  A    between atoms: C_23  and  N_24
REMARK                            x       y       z     vdW  Elec       q    Type
REMARK                         _______ _______ _______ _____ _____    ______ ____
ROOT
ATOM      1  C   UNL     1      -2.757  10.162  16.213  0.00  0.00    +0.000 A 
ATOM      2  C   UNL     1      -3.611  11.162  16.678  0.00  0.00    +0.000 A 
ATOM      3  C   UNL     1      -3.305  11.865  17.844  0.00  0.00    +0.000 A 
ATOM      4  C   UNL     1      -2.148  11.567  18.566  0.00  0.00    +0.000 A 
ATOM      5  C   UNL     1      -1.290  10.551  18.125  0.00  0.00    +0.000 A 
ATOM      6  C   UNL     1      -1.595   9.868  16.934  0.00  0.00    +0.000 A 
ATOM      7  C   UNL     1      -0.032  10.234  18.898  0.00  0.00    +0.000 C 
ATOM      8  C   UNL     1      -0.220  10.245  20.403  0.00  0.00    +0.000 A 
ATOM      9  C   UNL     1       0.429   9.276  21.184  0.00  0.00    +0.000 A 
ATOM     10  C   UNL     1       0.301   9.280  22.572  0.00  0.00    +0.000 A 
ATOM     11  C   UNL     1      -0.474  10.255  23.198  0.00  0.00    +0.000 A 
ATOM     12  C   UNL     1      -1.133  11.237  22.444  0.00  0.00    +0.000 A 
ATOM     13  C   UNL     1      -0.996  11.240  21.038  0.00  0.00    +0.000 A 
ATOM     14  S   UNL     1      -1.800  12.499  20.042  0.00  0.00    +0.000 S 
ENDROOT
BRANCH  12  15
ATOM     15  C   UNL     1      -1.943  12.227  23.171  0.00  0.00    +0.000 A 
ATOM     16  C   UNL     1      -3.221  11.981  23.481  0.00  0.00    +0.000 A 
ATOM     17  C   UNL     1      -3.954  13.014  24.216  0.00  0.00    +0.000 A 
ATOM     18  O   UNL     1      -5.146  12.886  24.486  0.00  0.00    +0.000 OA
ATOM     19  C   UNL     1      -3.203  14.206  24.636  0.00  0.00    +0.000 A 
ATOM     20  C   UNL     1      -1.915  14.353  24.284  0.00  0.00    +0.000 A 
ATOM     21  O   UNL     1      -1.280  13.399  23.491  0.00  0.00    +0.000 OA
BRANCH  20  22
ATOM     22  N   UNL     1      -1.131  15.434  24.679  0.00  0.00    +0.000 N 
ATOM     23  C   UNL     1      -1.046  15.903  26.077  0.00  0.00    +0.000 C 
ATOM     24  C   UNL     1      -1.286  17.419  26.153  0.00  0.00    +0.000 C 
ATOM     25  O   UNL     1      -0.404  18.145  25.279  0.00  0.00    +0.000 OA
ATOM     26  C   UNL     1      -0.588  17.712  23.922  0.00  0.00    +0.000 C 
ATOM     27  C   UNL     1      -0.274  16.215  23.768  0.00  0.00    +0.000 C 
ENDBRANCH  20  22
ENDBRANCH  12  15
BRANCH   1  28
ATOM     28  O   UNL     1      -2.952   9.414  15.080  0.00  0.00    +0.000 OA
BRANCH  28  29
ATOM     29  C   UNL     1      -4.092   9.767  14.283  0.00  0.00    +0.000 C 
BRANCH  29  31
ATOM     30  C   UNL     1      -4.706   9.660  11.820  0.00  0.00    +0.000 C 
ATOM     31  C   UNL     1      -3.657  10.066  12.844  0.00  0.00    +0.000 C 
BRANCH  31  32
ATOM     32  O   UNL     1      -2.439   9.383  12.545  0.00  0.00    +0.000 OA
ATOM     33  H   UNL     1      -2.485   9.132  11.603  0.00  0.00    +0.000 HD
ENDBRANCH  31  32
ENDBRANCH  29  31
ENDBRANCH  28  29
ENDBRANCH   1  28
TORSDOF 6
ENDMDL
MODEL 2
REMARK VINA RESULT:      -7.6      6.863      8.767
REMARK  Name = 
REMARK  7 active torsions:
REMARK  status: ('A' for Active; 'I' for Inactive)
REMARK    1  A    between atoms: C_1  and  C_2
REMARK    2  A    between atoms: C_2  and  O_3
REMARK    3  A    between atoms: C_2  and  C_4
REMARK    4  A    between atoms: C_4  and  O_5
REMARK    5  A    between atoms: O_5  and  C_6
REMARK    6  A    between atoms: C_17  and  C_18
REMARK    7  A    between atoms: C_23  and  N_24
REMARK                            x       y       z     vdW  Elec       q    Type
REMARK                         _______ _______ _______ _____ _____    ______ ____
ROOT
ATOM      1  C   UNL     1       5.929   3.988  14.518  0.00  0.00    +0.000 A 
ATOM      2  C   UNL     1       5.676   5.313  14.163  0.00  0.00    +0.000 A 
ATOM      3  C   UNL     1       5.281   6.238  15.129  0.00  0.00    +0.000 A 
ATOM      4  C   UNL     1       5.121   5.848  16.460  0.00  0.00    +0.000 A 
ATOM      5  C   UNL     1       5.350   4.516  16.830  0.00  0.00    +0.000 A 
ATOM      6  C   UNL     1       5.773   3.598  15.852  0.00  0.00    +0.000 A 
ATOM      7  C   UNL     1       5.188   4.093  18.271  0.00  0.00    +0.000 C 
ATOM      8  C   UNL     1       3.981   4.704  18.956  0.00  0.00    +0.000 A 
ATOM      9  C   UNL     1       3.223   3.920  19.840  0.00  0.00    +0.000 A 
ATOM     10  C   UNL     1       2.127   4.464  20.509  0.00  0.00    +0.000 A 
ATOM     11  C   UNL     1       1.777   5.797  20.306  0.00  0.00    +0.000 A 
ATOM     12  C   UNL     1       2.517   6.606  19.430  0.00  0.00    +0.000 A 
ATOM     13  C   UNL     1       3.634   6.059  18.759  0.00  0.00    +0.000 A 
ATOM     14  S   UNL     1       4.623   7.070  17.653  0.00  0.00    +0.000 S 
ENDROOT
BRANCH  12  15
ATOM     15  C   UNL     1       2.084   8.001  19.256  0.00  0.00    +0.000 A 
ATOM     16  C   UNL     1       2.478   8.721  18.200  0.00  0.00    +0.000 A 
ATOM     17  C   UNL     1       1.992  10.098  18.095  0.00  0.00    +0.000 A 
ATOM     18  O   UNL     1       2.357  10.839  17.185  0.00  0.00    +0.000 OA
ATOM     19  C   UNL     1       1.035  10.556  19.112  0.00  0.00    +0.000 A 
ATOM     20  C   UNL     1       0.692   9.750  20.131  0.00  0.00    +0.000 A 
ATOM     21  O   UNL     1       1.258   8.482  20.257  0.00  0.00    +0.000 OA
BRANCH  20  22
ATOM     22  N   UNL     1      -0.238  10.100  21.106  0.00  0.00    +0.000 N 
ATOM     23  C   UNL     1      -1.001  11.364  21.080  0.00  0.00    +0.000 C 
ATOM     24  C   UNL     1      -0.900  12.084  22.434  0.00  0.00    +0.000 C 
ATOM     25  O   UNL     1      -1.294  11.231  23.524  0.00  0.00    +0.000 OA
ATOM     26  C   UNL     1      -0.465  10.058  23.556  0.00  0.00    +0.000 C 
ATOM     27  C   UNL     1      -0.594   9.249  22.257  0.00  0.00    +0.000 C 
ENDBRANCH  20  22
ENDBRANCH  12  15
BRANCH   1  28
ATOM     28  O   UNL     1       6.327   2.997  13.658  0.00  0.00    +0.000 OA
BRANCH  28  29
ATOM     29  C   UNL     1       6.642   3.415  12.322  0.00  0.00    +0.000 C 
BRANCH  29  31
ATOM     30  C   UNL     1       4.268   3.163  11.450  0.00  0.00    +0.000 C 
ATOM     31  C   UNL     1       5.716   2.715  11.319  0.00  0.00    +0.000 C 
BRANCH  31  32
ATOM     32  O   UNL     1       5.774   1.300  11.498  0.00  0.00    +0.000 OA
ATOM     33  H   UNL     1       6.151   1.147  12.384  0.00  0.00    +0.000 HD
ENDBRANCH  31  32
ENDBRANCH  29  31
ENDBRANCH  28  29
ENDBRANCH   1  28
TORSDOF 6
ENDMDL
MODEL 3
REMARK VINA RESULT:      -7.4      1.739      3.282
REMARK  Name = 
REMARK  7 active torsions:
REMARK  status: ('A' for Active; 'I' for Inactive)
REMARK    1  A    between atoms: C_1  and  C_2
REMARK    2  A    between atoms: C_2  and  O_3
REMARK    3  A    between atoms: C_2  and  C_4
REMARK    4  A    between atoms: C_4  and  O_5
REMARK    5  A    between atoms: O_5  and  C_6
REMARK    6  A    between atoms: C_17  and  C_18
REMARK    7  A    between atoms: C_23  and  N_24
REMARK                            x       y       z     vdW  Elec       q    Type
REMARK                         _______ _______ _______ _____ _____    ______ ____
ROOT
ATOM      1  C   UNL     1      -2.662  10.118  16.018  0.00  0.00    +0.000 A 
ATOM      2  C   UNL     1      -3.309  11.304  16.366  0.00  0.00    +0.000 A 
ATOM      3  C   UNL     1      -2.914  12.016  17.498  0.00  0.00    +0.000 A 
ATOM      4  C   UNL     1      -1.877  11.546  18.304  0.00  0.00    +0.000 A 
ATOM      5  C   UNL     1      -1.230  10.346  17.982  0.00  0.00    +0.000 A 
ATOM      6  C   UNL     1      -1.619   9.650  16.823  0.00  0.00    +0.000 A 
ATOM      7  C   UNL     1      -0.099   9.840  18.846  0.00  0.00    +0.000 C 
ATOM      8  C   UNL     1      -0.346  10.004  20.333  0.00  0.00    +0.000 A 
ATOM      9  C   UNL     1       0.054   8.985  21.213  0.00  0.00    +0.000 A 
ATOM     10  C   UNL     1      -0.130   9.122  22.588  0.00  0.00    +0.000 A 
ATOM     11  C   UNL     1      -0.712  10.279  23.102  0.00  0.00    +0.000 A 
ATOM     12  C   UNL     1      -1.120  11.315  22.248  0.00  0.00    +0.000 A 
ATOM     13  C   UNL     1      -0.925  11.181  20.855  0.00  0.00    +0.000 A 
ATOM     14  S   UNL     1      -1.407  12.498  19.733  0.00  0.00    +0.000 S 
ENDROOT
BRANCH  12  15
ATOM     15  C   UNL     1      -1.738  12.502  22.859  0.00  0.00    +0.000 A 
ATOM     16  C   UNL     1      -0.990  13.446  23.444  0.00  0.00    +0.000 A 
ATOM     17  C   UNL     1      -1.682  14.602  24.019  0.00  0.00    +0.000 A 
ATOM     18  O   UNL     1      -1.070  15.480  24.622  0.00  0.00    +0.000 OA
ATOM     19  C   UNL     1      -3.137  14.681  23.830  0.00  0.00    +0.000 A 
ATOM     20  C   UNL     1      -3.796  13.684  23.216  0.00  0.00    +0.000 A 
ATOM     21  O   UNL     1      -3.118  12.547  22.776  0.00  0.00    +0.000 OA
BRANCH  20  22
ATOM     22  N   UNL     1      -5.166  13.709  22.965  0.00  0.00    +0.000 N 
ATOM     23  C   UNL     1      -5.784  14.565  21.932  0.00  0.00    +0.000 C 
ATOM     24  C   UNL     1      -6.957  15.362  22.524  0.00  0.00    +0.000 C 
ATOM     25  O   UNL     1      -7.916  14.504  23.167  0.00  0.00    +0.000 OA
ATOM     26  C   UNL     1      -7.283  13.758  24.218  0.00  0.00    +0.000 C 
ATOM     27  C   UNL     1      -6.154  12.872  23.670  0.00  0.00    +0.000 C 
ENDBRANCH  20  22
ENDBRANCH  12  15
BRANCH   1  28
ATOM     28  O   UNL     1      -2.959   9.341  14.928  0.00  0.00    +0.000 OA
BRANCH  28  29
ATOM     29  C   UNL     1      -4.125   9.723  14.184  0.00  0.00    +0.000 C 
BRANCH  29  31
ATOM     30  C   UNL     1      -4.807   9.534  11.743  0.00  0.00    +0.000 C 
ATOM     31  C   UNL     1      -3.749  10.012  12.726  0.00  0.00    +0.000 C 
BRANCH  31  32
ATOM     32  O   UNL     1      -2.508   9.385  12.402  0.00  0.00    +0.000 OA
ATOM     33  H   UNL     1      -2.200   9.791  11.570  0.00  0.00    +0.000 HD
ENDBRANCH  31  32
ENDBRANCH  29  31
ENDBRANCH  28  29
ENDBRANCH   1  28
TORSDOF 6
ENDMDL
MODEL 4
REMARK VINA RESULT:      -7.0      1.860      3.483
REMARK  Name = 
REMARK  7 active torsions:
REMARK  status: ('A' for Active; 'I' for Inactive)
REMARK    1  A    between atoms: C_1  and  C_2
REMARK    2  A    between atoms: C_2  and  O_3
REMARK    3  A    between atoms: C_2  and  C_4
REMARK    4  A    between atoms: C_4  and  O_5
REMARK    5  A    between atoms: O_5  and  C_6
REMARK    6  A    between atoms: C_17  and  C_18
REMARK    7  A    between atoms: C_23  and  N_24
REMARK                            x       y       z     vdW  Elec       q    Type
REMARK                         _______ _______ _______ _____ _____    ______ ____
ROOT
ATOM      1  C   UNL     1      -3.401  10.153  16.019  0.00  0.00    +0.000 A 
ATOM      2  C   UNL     1      -4.069  11.304  16.438  0.00  0.00    +0.000 A 
ATOM      3  C   UNL     1      -3.589  12.043  17.519  0.00  0.00    +0.000 A 
ATOM      4  C   UNL     1      -2.443  11.634  18.203  0.00  0.00    +0.000 A 
ATOM      5  C   UNL     1      -1.772  10.469  17.809  0.00  0.00    +0.000 A 
ATOM      6  C   UNL     1      -2.249   9.747  16.701  0.00  0.00    +0.000 A 
ATOM      7  C   UNL     1      -0.525  10.030  18.540  0.00  0.00    +0.000 C 
ATOM      8  C   UNL     1      -0.611  10.189  20.046  0.00  0.00    +0.000 A 
ATOM      9  C   UNL     1      -0.060   9.199  20.874  0.00  0.00    +0.000 A 
ATOM     10  C   UNL     1      -0.095   9.333  22.261  0.00  0.00    +0.000 A 
ATOM     11  C   UNL     1      -0.679  10.459  22.838  0.00  0.00    +0.000 A 
ATOM     12  C   UNL     1      -1.237  11.466  22.036  0.00  0.00    +0.000 A 
ATOM     13  C   UNL     1      -1.192  11.336  20.630  0.00  0.00    +0.000 A 
ATOM     14  S   UNL     1      -1.869  12.618  19.570  0.00  0.00    +0.000 S 
ENDROOT
BRANCH  12  15
ATOM     15  C   UNL     1      -1.845  12.621  22.714  0.00  0.00    +0.000 A 
ATOM     16  C   UNL     1      -1.091  13.615  23.197  0.00  0.00    +0.000 A 
ATOM     17  C   UNL     1      -1.776  14.735  23.848  0.00  0.00    +0.000 A 
ATOM     18  O   UNL     1      -1.149  15.655  24.367  0.00  0.00    +0.000 OA
ATOM     19  C   UNL     1      -3.246  14.724  23.840  0.00  0.00    +0.000 A 
ATOM     20  C   UNL     1      -3.913  13.681  23.317  0.00  0.00    +0.000 A 
ATOM     21  O   UNL     1      -3.226  12.582  22.803  0.00  0.00    +0.000 OA
BRANCH  20  22
ATOM     22  N   UNL     1      -5.302  13.620  23.239  0.00  0.00    +0.000 N 
ATOM     23  C   UNL     1      -6.062  12.356  23.316  0.00  0.00    +0.000 C 
ATOM     24  C   UNL     1      -7.056  12.252  22.149  0.00  0.00    +0.000 C 
ATOM     25  O   UNL     1      -7.916  13.403  22.074  0.00  0.00    +0.000 OA
ATOM     26  C   UNL     1      -7.132  14.595  21.914  0.00  0.00    +0.000 C 
ATOM     27  C   UNL     1      -6.177  14.798  23.100  0.00  0.00    +0.000 C 
ENDBRANCH  20  22
ENDBRANCH  12  15
BRANCH   1  28
ATOM     28  O   UNL     1      -3.775   9.355  14.968  0.00  0.00    +0.000 OA
BRANCH  28  29
ATOM     29  C   UNL     1      -3.085   9.581  13.731  0.00  0.00    +0.000 C 
BRANCH  29  31
ATOM     30  C   UNL     1      -5.366   9.180  12.685  0.00  0.00    +0.000 C 
ATOM     31  C   UNL     1      -4.081   9.992  12.640  0.00  0.00    +0.000 C 
BRANCH  31  32
ATOM     32  O   UNL     1      -3.490   9.841  11.349  0.00  0.00    +0.000 OA
ATOM     33  H   UNL     1      -2.622  10.286  11.386  0.00  0.00    +0.000 HD
ENDBRANCH  31  32
ENDBRANCH  29  31
ENDBRANCH  28  29
ENDBRANCH   1  28
TORSDOF 6
ENDMDL
MODEL 5
REMARK VINA RESULT:      -6.9      4.047      6.188
REMARK  Name = 
REMARK  7 active torsions:
REMARK  status: ('A' for Active; 'I' for Inactive)
REMARK    1  A    between atoms: C_1  and  C_2
REMARK    2  A    between atoms: C_2  and  O_3
REMARK    3  A    between atoms: C_2  and  C_4
REMARK    4  A    between atoms: C_4  and  O_5
REMARK    5  A    between atoms: O_5  and  C_6
REMARK    6  A    between atoms: C_17  and  C_18
REMARK    7  A    between atoms: C_23  and  N_24
REMARK                            x       y       z     vdW  Elec       q    Type
REMARK                         _______ _______ _______ _____ _____    ______ ____
ROOT
ATOM      1  C   UNL     1       2.433   6.750  19.776  0.00  0.00    +0.000 A 
ATOM      2  C   UNL     1       1.526   6.833  20.832  0.00  0.00    +0.000 A 
ATOM      3  C   UNL     1       0.674   7.931  20.944  0.00  0.00    +0.000 A 
ATOM      4  C   UNL     1       0.728   8.967  20.010  0.00  0.00    +0.000 A 
ATOM      5  C   UNL     1       1.648   8.911  18.955  0.00  0.00    +0.000 A 
ATOM      6  C   UNL     1       2.483   7.786  18.837  0.00  0.00    +0.000 A 
ATOM      7  C   UNL     1       1.700  10.024  17.937  0.00  0.00    +0.000 C 
ATOM      8  C   UNL     1       1.567  11.410  18.538  0.00  0.00    +0.000 A 
ATOM      9  C   UNL     1       2.349  12.459  18.029  0.00  0.00    +0.000 A 
ATOM     10  C   UNL     1       2.225  13.750  18.540  0.00  0.00    +0.000 A 
ATOM     11  C   UNL     1       1.315  14.010  19.563  0.00  0.00    +0.000 A 
ATOM     12  C   UNL     1       0.518  12.983  20.090  0.00  0.00    +0.000 A 
ATOM     13  C   UNL     1       0.636  11.676  19.566  0.00  0.00    +0.000 A 
ATOM     14  S   UNL     1      -0.388  10.341  20.195  0.00  0.00    +0.000 S 
ENDROOT
BRANCH  12  15
ATOM     15  C   UNL     1      -0.413  13.329  21.176  0.00  0.00    +0.000 A 
ATOM     16  C   UNL     1       0.009  13.980  22.266  0.00  0.00    +0.000 A 
ATOM     17  C   UNL     1      -0.983  14.297  23.296  0.00  0.00    +0.000 A 
ATOM     18  O   UNL     1      -0.663  14.841  24.350  0.00  0.00    +0.000 OA
ATOM     19  C   UNL     1      -2.385  13.955  23.012  0.00  0.00    +0.000 A 
ATOM     20  C   UNL     1      -2.708  13.310  21.878  0.00  0.00    +0.000 A 
ATOM     21  O   UNL     1      -1.721  12.928  20.970  0.00  0.00    +0.000 OA
BRANCH  20  22
ATOM     22  N   UNL     1      -4.016  12.990  21.524  0.00  0.00    +0.000 N 
ATOM     23  C   UNL     1      -4.410  12.594  20.157  0.00  0.00    +0.000 C 
ATOM     24  C   UNL     1      -5.614  13.422  19.680  0.00  0.00    +0.000 C 
ATOM     25  O   UNL     1      -6.712  13.352  20.607  0.00  0.00    +0.000 OA
ATOM     26  C   UNL     1      -6.299  13.829  21.897  0.00  0.00    +0.000 C 
ATOM     27  C   UNL     1      -5.152  12.979  22.464  0.00  0.00    +0.000 C 
ENDBRANCH  20  22
ENDBRANCH  12  15
BRANCH   1  28
ATOM     28  O   UNL     1       3.312   5.719  19.562  0.00  0.00    +0.000 OA
BRANCH  28  29
ATOM     29  C   UNL     1       2.739   4.403  19.531  0.00  0.00    +0.000 C 
BRANCH  29  31
ATOM     30  C   UNL     1       3.850   4.496  17.247  0.00  0.00    +0.000 C 
ATOM     31  C   UNL     1       2.769   3.849  18.101  0.00  0.00    +0.000 C 
BRANCH  31  32
ATOM     32  O   UNL     1       1.505   4.049  17.467  0.00  0.00    +0.000 OA
ATOM     33  H   UNL     1       0.899   3.381  17.839  0.00  0.00    +0.000 HD
ENDBRANCH  31  32
ENDBRANCH  29  31
ENDBRANCH  28  29
ENDBRANCH   1  28
TORSDOF 6
ENDMDL
MODEL 6
REMARK VINA RESULT:      -6.8      4.202      6.528
REMARK  Name = 
REMARK  7 active torsions:
REMARK  status: ('A' for Active; 'I' for Inactive)
REMARK    1  A    between atoms: C_1  and  C_2
REMARK    2  A    between atoms: C_2  and  O_3
REMARK    3  A    between atoms: C_2  and  C_4
REMARK    4  A    between atoms: C_4  and  O_5
REMARK    5  A    between atoms: O_5  and  C_6
REMARK    6  A    between atoms: C_17  and  C_18
REMARK    7  A    between atoms: C_23  and  N_24
REMARK                            x       y       z     vdW  Elec       q    Type
REMARK                         _______ _______ _______ _____ _____    ______ ____
ROOT
ATOM      1  C   UNL     1       2.583   6.529  19.830  0.00  0.00    +0.000 A 
ATOM      2  C   UNL     1       1.628   6.621  20.843  0.00  0.00    +0.000 A 
ATOM      3  C   UNL     1       0.749   7.703  20.887  0.00  0.00    +0.000 A 
ATOM      4  C   UNL     1       0.822   8.713  19.926  0.00  0.00    +0.000 A 
ATOM      5  C   UNL     1       1.788   8.647  18.914  0.00  0.00    +0.000 A 
ATOM      6  C   UNL     1       2.651   7.538  18.865  0.00  0.00    +0.000 A 
ATOM      7  C   UNL     1       1.861   9.733  17.867  0.00  0.00    +0.000 C 
ATOM      8  C   UNL     1       1.673  11.132  18.421  0.00  0.00    +0.000 A 
ATOM      9  C   UNL     1       2.454  12.183  17.916  0.00  0.00    +0.000 A 
ATOM     10  C   UNL     1       2.280  13.485  18.384  0.00  0.00    +0.000 A 
ATOM     11  C   UNL     1       1.321  13.753  19.359  0.00  0.00    +0.000 A 
ATOM     12  C   UNL     1       0.524  12.724  19.881  0.00  0.00    +0.000 A 
ATOM     13  C   UNL     1       0.692  11.406  19.400  0.00  0.00    +0.000 A 
ATOM     14  S   UNL     1      -0.330  10.067  20.023  0.00  0.00    +0.000 S 
ENDROOT
BRANCH  12  15
ATOM     15  C   UNL     1      -0.461  13.079  20.915  0.00  0.00    +0.000 A 
ATOM     16  C   UNL     1      -0.071  13.527  22.114  0.00  0.00    +0.000 A 
ATOM     17  C   UNL     1      -1.114  13.870  23.084  0.00  0.00    +0.000 A 
ATOM     18  O   UNL     1      -0.835  14.232  24.224  0.00  0.00    +0.000 OA
ATOM     19  C   UNL     1      -2.511  13.781  22.634  0.00  0.00    +0.000 A 
ATOM     20  C   UNL     1      -2.797  13.329  21.401  0.00  0.00    +0.000 A 
ATOM     21  O   UNL     1      -1.783  12.910  20.542  0.00  0.00    +0.000 OA
BRANCH  20  22
ATOM     22  N   UNL     1      -4.092  13.257  20.892  0.00  0.00    +0.000 N 
ATOM     23  C   UNL     1      -5.275  13.766  21.615  0.00  0.00    +0.000 C 
ATOM     24  C   UNL     1      -6.378  12.697  21.666  0.00  0.00    +0.000 C 
ATOM     25  O   UNL     1      -6.709  12.207  20.354  0.00  0.00    +0.000 OA
ATOM     26  C   UNL     1      -5.544  11.646  19.729  0.00  0.00    +0.000 C 
ATOM     27  C   UNL     1      -4.435  12.698  19.572  0.00  0.00    +0.000 C 
ENDBRANCH  20  22
ENDBRANCH  12  15
BRANCH   1  28
ATOM     28  O   UNL     1       3.491   5.512  19.684  0.00  0.00    +0.000 OA
BRANCH  28  29
ATOM     29  C   UNL     1       3.188   4.541  18.671  0.00  0.00    +0.000 C 
BRANCH  29  31
ATOM     30  C   UNL     1       4.724   4.556  16.646  0.00  0.00    +0.000 C 
ATOM     31  C   UNL     1       4.484   4.010  18.046  0.00  0.00    +0.000 C 
BRANCH  31  32
ATOM     32  O   UNL     1       4.454   2.584  17.981  0.00  0.00    +0.000 OA
ATOM     33  H   UNL     1       3.513   2.328  17.949  0.00  0.00    +0.000 HD
ENDBRANCH  31  32
ENDBRANCH  29  31
ENDBRANCH  28  29
ENDBRANCH   1  28
TORSDOF 6
ENDMDL
MODEL 7
REMARK VINA RESULT:      -6.7      5.628      9.658
REMARK  Name = 
REMARK  7 active torsions:
REMARK  status: ('A' for Active; 'I' for Inactive)
REMARK    1  A    between atoms: C_1  and  C_2
REMARK    2  A    between atoms: C_2  and  O_3
REMARK    3  A    between atoms: C_2  and  C_4
REMARK    4  A    between atoms: C_4  and  O_5
REMARK    5  A    between atoms: O_5  and  C_6
REMARK    6  A    between atoms: C_17  and  C_18
REMARK    7  A    between atoms: C_23  and  N_24
REMARK                            x       y       z     vdW  Elec       q    Type
REMARK                         _______ _______ _______ _____ _____    ______ ____
ROOT
ATOM      1  C   UNL     1       2.085  15.100  19.093  0.00  0.00    +0.000 A 
ATOM      2  C   UNL     1       2.898  14.398  18.203  0.00  0.00    +0.000 A 
ATOM      3  C   UNL     1       2.677  13.041  17.967  0.00  0.00    +0.000 A 
ATOM      4  C   UNL     1       1.649  12.366  18.628  0.00  0.00    +0.000 A 
ATOM      5  C   UNL     1       0.837  13.051  19.541  0.00  0.00    +0.000 A 
ATOM      6  C   UNL     1       1.052  14.425  19.751  0.00  0.00    +0.000 A 
ATOM      7  C   UNL     1      -0.283  12.326  20.250  0.00  0.00    +0.000 C 
ATOM      8  C   UNL     1       0.087  10.930  20.711  0.00  0.00    +0.000 A 
ATOM      9  C   UNL     1      -0.372  10.473  21.956  0.00  0.00    +0.000 A 
ATOM     10  C   UNL     1      -0.074   9.183  22.393  0.00  0.00    +0.000 A 
ATOM     11  C   UNL     1       0.683   8.332  21.589  0.00  0.00    +0.000 A 
ATOM     12  C   UNL     1       1.154   8.760  20.339  0.00  0.00    +0.000 A 
ATOM     13  C   UNL     1       0.844  10.064  19.892  0.00  0.00    +0.000 A 
ATOM     14  S   UNL     1       1.405  10.637  18.285  0.00  0.00    +0.000 S 
ENDROOT
BRANCH  12  15
ATOM     15  C   UNL     1       1.956   7.812  19.550  0.00  0.00    +0.000 A 
ATOM     16  C   UNL     1       2.652   8.218  18.482  0.00  0.00    +0.000 A 
ATOM     17  C   UNL     1       3.435   7.214  17.758  0.00  0.00    +0.000 A 
ATOM     18  O   UNL     1       4.052   7.498  16.735  0.00  0.00    +0.000 OA
ATOM     19  C   UNL     1       3.467   5.853  18.313  0.00  0.00    +0.000 A 
ATOM     20  C   UNL     1       2.740   5.549  19.401  0.00  0.00    +0.000 A 
ATOM     21  O   UNL     1       1.922   6.504  20.002  0.00  0.00    +0.000 OA
BRANCH  20  22
ATOM     22  N   UNL     1       2.753   4.294  20.007  0.00  0.00    +0.000 N 
ATOM     23  C   UNL     1       3.253   3.078  19.335  0.00  0.00    +0.000 C 
ATOM     24  C   UNL     1       2.225   1.940  19.445  0.00  0.00    +0.000 C 
ATOM     25  O   UNL     1       1.845   1.693  20.810  0.00  0.00    +0.000 OA
ATOM     26  C   UNL     1       1.287   2.883  21.389  0.00  0.00    +0.000 C 
ATOM     27  C   UNL     1       2.305   4.034  21.387  0.00  0.00    +0.000 C 
ENDBRANCH  20  22
ENDBRANCH  12  15
BRANCH   1  28
ATOM     28  O   UNL     1       2.205  16.432  19.396  0.00  0.00    +0.000 OA
BRANCH  28  29
ATOM     29  C   UNL     1       1.024  17.067  19.909  0.00  0.00    +0.000 C 
BRANCH  29  31
ATOM     30  C   UNL     1      -0.524  17.460  17.931  0.00  0.00    +0.000 C 
ATOM     31  C   UNL     1       0.485  18.078  18.889  0.00  0.00    +0.000 C 
BRANCH  31  32
ATOM     32  O   UNL     1       1.559  18.631  18.127  0.00  0.00    +0.000 OA
ATOM     33  H   UNL     1       1.241  19.485  17.779  0.00  0.00    +0.000 HD
ENDBRANCH  31  32
ENDBRANCH  29  31
ENDBRANCH  28  29
ENDBRANCH   1  28
TORSDOF 6
ENDMDL
MODEL 8
REMARK VINA RESULT:      -6.7      4.119      6.445
REMARK  Name = 
REMARK  7 active torsions:
REMARK  status: ('A' for Active; 'I' for Inactive)
REMARK    1  A    between atoms: C_1  and  C_2
REMARK    2  A    between atoms: C_2  and  O_3
REMARK    3  A    between atoms: C_2  and  C_4
REMARK    4  A    between atoms: C_4  and  O_5
REMARK    5  A    between atoms: O_5  and  C_6
REMARK    6  A    between atoms: C_17  and  C_18
REMARK    7  A    between atoms: C_23  and  N_24
REMARK                            x       y       z     vdW  Elec       q    Type
REMARK                         _______ _______ _______ _____ _____    ______ ____
ROOT
ATOM      1  C   UNL     1       2.229   6.710  19.952  0.00  0.00    +0.000 A 
ATOM      2  C   UNL     1       1.476   6.974  21.097  0.00  0.00    +0.000 A 
ATOM      3  C   UNL     1       0.791   8.182  21.226  0.00  0.00    +0.000 A 
ATOM      4  C   UNL     1       0.859   9.146  20.219  0.00  0.00    +0.000 A 
ATOM      5  C   UNL     1       1.628   8.906  19.072  0.00  0.00    +0.000 A 
ATOM      6  C   UNL     1       2.293   7.674  18.941  0.00  0.00    +0.000 A 
ATOM      7  C   UNL     1       1.695   9.943  17.976  0.00  0.00    +0.000 C 
ATOM      8  C   UNL     1       1.813  11.366  18.486  0.00  0.00    +0.000 A 
ATOM      9  C   UNL     1       2.653  12.269  17.816  0.00  0.00    +0.000 A 
ATOM     10  C   UNL     1       2.757  13.592  18.243  0.00  0.00    +0.000 A 
ATOM     11  C   UNL     1       2.020  14.030  19.342  0.00  0.00    +0.000 A 
ATOM     12  C   UNL     1       1.171  13.151  20.030  0.00  0.00    +0.000 A 
ATOM     13  C   UNL     1       1.057  11.812  19.592  0.00  0.00    +0.000 A 
ATOM     14  S   UNL     1      -0.042  10.666  20.430  0.00  0.00    +0.000 S 
ENDROOT
BRANCH  12  15
ATOM     15  C   UNL     1       0.433  13.680  21.188  0.00  0.00    +0.000 A 
ATOM     16  C   UNL     1       0.892  14.730  21.879  0.00  0.00    +0.000 A 
ATOM     17  C   UNL     1       0.092  15.202  23.011  0.00  0.00    +0.000 A 
ATOM     18  O   UNL     1       0.476  16.123  23.728  0.00  0.00    +0.000 OA
ATOM     19  C   UNL     1      -1.201  14.543  23.246  0.00  0.00    +0.000 A 
ATOM     20  C   UNL     1      -1.578  13.502  22.485  0.00  0.00    +0.000 A 
ATOM     21  O   UNL     1      -0.741  13.010  21.485  0.00  0.00    +0.000 OA
BRANCH  20  22
ATOM     22  N   UNL     1      -2.804  12.856  22.622  0.00  0.00    +0.000 N 
ATOM     23  C   UNL     1      -3.818  12.808  21.550  0.00  0.00    +0.000 C 
ATOM     24  C   UNL     1      -5.192  13.240  22.086  0.00  0.00    +0.000 C 
ATOM     25  O   UNL     1      -5.581  12.472  23.240  0.00  0.00    +0.000 OA
ATOM     26  C   UNL     1      -4.605  12.622  24.283  0.00  0.00    +0.000 C 
ATOM     27  C   UNL     1      -3.225  12.122  23.830  0.00  0.00    +0.000 C 
ENDBRANCH  20  22
ENDBRANCH  12  15
BRANCH   1  28
ATOM     28  O   UNL     1       2.936   5.559  19.714  0.00  0.00    +0.000 OA
BRANCH  28  29
ATOM     29  C   UNL     1       4.150   5.713  18.965  0.00  0.00    +0.000 C 
BRANCH  29  31
ATOM     30  C   UNL     1       3.826   3.193  19.040  0.00  0.00    +0.000 C 
ATOM     31  C   UNL     1       4.744   4.337  18.636  0.00  0.00    +0.000 C 
BRANCH  31  32
ATOM     32  O   UNL     1       5.999   4.170  19.295  0.00  0.00    +0.000 OA
ATOM     33  H   UNL     1       6.474   5.018  19.207  0.00  0.00    +0.000 HD
ENDBRANCH  31  32
ENDBRANCH  29  31
ENDBRANCH  28  29
ENDBRANCH   1  28
TORSDOF 6
ENDMDL
MODEL 9
REMARK VINA RESULT:      -6.7      4.059      6.296
REMARK  Name = 
REMARK  7 active torsions:
REMARK  status: ('A' for Active; 'I' for Inactive)
REMARK    1  A    between atoms: C_1  and  C_2
REMARK    2  A    between atoms: C_2  and  O_3
REMARK    3  A    between atoms: C_2  and  C_4
REMARK    4  A    between atoms: C_4  and  O_5
REMARK    5  A    between atoms: O_5  and  C_6
REMARK    6  A    between atoms: C_17  and  C_18
REMARK    7  A    between atoms: C_23  and  N_24
REMARK                            x       y       z     vdW  Elec       q    Type
REMARK                         _______ _______ _______ _____ _____    ______ ____
ROOT
ATOM      1  C   UNL     1       2.182   6.959  19.890  0.00  0.00    +0.000 A 
ATOM      2  C   UNL     1       1.406   7.165  21.031  0.00  0.00    +0.000 A 
ATOM      3  C   UNL     1       0.693   8.353  21.193  0.00  0.00    +0.000 A 
ATOM      4  C   UNL     1       0.758   9.355  20.224  0.00  0.00    +0.000 A 
ATOM      5  C   UNL     1       1.550   9.175  19.083  0.00  0.00    +0.000 A 
ATOM      6  C   UNL     1       2.243   7.962  18.917  0.00  0.00    +0.000 A 
ATOM      7  C   UNL     1       1.613  10.253  18.027  0.00  0.00    +0.000 C 
ATOM      8  C   UNL     1       1.693  11.658  18.592  0.00  0.00    +0.000 A 
ATOM      9  C   UNL     1       2.525  12.603  17.971  0.00  0.00    +0.000 A 
ATOM     10  C   UNL     1       2.594  13.910  18.449  0.00  0.00    +0.000 A 
ATOM     11  C   UNL     1       1.831  14.292  19.551  0.00  0.00    +0.000 A 
ATOM     12  C   UNL     1       0.989  13.371  20.191  0.00  0.00    +0.000 A 
ATOM     13  C   UNL     1       0.910  12.047  19.701  0.00  0.00    +0.000 A 
ATOM     14  S   UNL     1      -0.178  10.848  20.476  0.00  0.00    +0.000 S 
ENDROOT
BRANCH  12  15
ATOM     15  C   UNL     1       0.221  13.840  21.355  0.00  0.00    +0.000 A 
ATOM     16  C   UNL     1       0.656  14.861  22.103  0.00  0.00    +0.000 A 
ATOM     17  C   UNL     1      -0.174  15.275  23.237  0.00  0.00    +0.000 A 
ATOM     18  O   UNL     1       0.187  16.164  24.004  0.00  0.00    +0.000 OA
ATOM     19  C   UNL     1      -1.466  14.596  23.412  0.00  0.00    +0.000 A 
ATOM     20  C   UNL     1      -1.817  13.588  22.596  0.00  0.00    +0.000 A 
ATOM     21  O   UNL     1      -0.954  13.149  21.594  0.00  0.00    +0.000 OA
BRANCH  20  22
ATOM     22  N   UNL     1      -3.040  12.927  22.676  0.00  0.00    +0.000 N 
ATOM     23  C   UNL     1      -3.915  12.700  21.508  0.00  0.00    +0.000 C 
ATOM     24  C   UNL     1      -5.351  13.156  21.812  0.00  0.00    +0.000 C 
ATOM     25  O   UNL     1      -5.866  12.542  23.007  0.00  0.00    +0.000 OA
ATOM     26  C   UNL     1      -5.027  12.865  24.128  0.00  0.00    +0.000 C 
ATOM     27  C   UNL     1      -3.594  12.352  23.916  0.00  0.00    +0.000 C 
ENDBRANCH  20  22
ENDBRANCH  12  15
BRANCH   1  28
ATOM     28  O   UNL     1       2.917   5.833  19.621  0.00  0.00    +0.000 OA
BRANCH  28  29
ATOM     29  C   UNL     1       2.168   4.673  19.231  0.00  0.00    +0.000 C 
BRANCH  29  31
ATOM     30  C   UNL     1       2.930   2.617  20.516  0.00  0.00    +0.000 C 
ATOM     31  C   UNL     1       1.934   3.765  20.444  0.00  0.00    +0.000 C 
BRANCH  31  32
ATOM     32  O   UNL     1       0.614   3.222  20.407  0.00  0.00    +0.000 OA
ATOM     33  H   UNL     1       0.406   2.933  21.315  0.00  0.00    +0.000 HD
ENDBRANCH  31  32
ENDBRANCH  29  31
ENDBRANCH  28  29
ENDBRANCH   1  28
TORSDOF 6
ENDMDL
