MODEL 1
REMARK VINA RESULT:      -9.4      0.000      0.000
REMARK  Name = 
REMARK  6 active torsions:
REMARK  status: ('A' for Active; 'I' for Inactive)
REMARK    1  A    between atoms: C_1  and  C_2
REMARK    2  A    between atoms: C_4  and  C_5
REMARK    3  A    between atoms: C_12  and  C_13
REMARK    4  A    between atoms: N_26  and  C_27
REMARK    5  A    between atoms: C_27  and  C_28
REMARK    6  A    between atoms: C_27  and  C_29
REMARK                            x       y       z     vdW  Elec       q    Type
REMARK                         _______ _______ _______ _____ _____    ______ ____
ROOT
ATOM      1  C   UNL     1       1.813   5.679  19.914  0.00  0.00    +0.000 A 
ATOM      2  C   UNL     1       0.990   4.692  20.681  0.00  0.00    +0.000 A 
ATOM      3  C   UNL     1       1.206   3.404  20.373  0.00  0.00    +0.000 A 
ATOM      4  N   UNL     1       2.180   3.049  19.444  0.00  0.00    +0.000 N 
ATOM      5  N   UNL     1       2.528   1.808  19.053  0.00  0.00    +0.000 NA
ATOM      6  C   UNL     1       3.629   1.984  18.330  0.00  0.00    +0.000 A 
ATOM      7  N   UNL     1       4.306   0.942  17.836  0.00  0.00    +0.000 N 
ATOM      8  C   UNL     1       4.005   3.348  18.212  0.00  0.00    +0.000 A 
ATOM      9  C   UNL     1       2.984   4.025  18.861  0.00  0.00    +0.000 A 
ATOM     10  N   UNL     1       2.745   5.356  19.065  0.00  0.00    +0.000 NA
ATOM     11  H   UNL     1       4.044   0.007  18.119  0.00  0.00    +0.000 HD
ATOM     12  H   UNL     1       5.228   1.057  17.429  0.00  0.00    +0.000 HD
ENDROOT
BRANCH   1  16
ATOM     13  C   UNL     1       0.439   9.488  22.945  0.00  0.00    +0.000 C 
ATOM     14  C   UNL     1       0.914   9.007  21.606  0.00  0.00    +0.000 A 
ATOM     15  C   UNL     1       1.126   7.626  21.407  0.00  0.00    +0.000 A 
ATOM     16  C   UNL     1       1.585   7.129  20.171  0.00  0.00    +0.000 A 
ATOM     17  C   UNL     1       1.817   8.011  19.110  0.00  0.00    +0.000 A 
ATOM     18  C   UNL     1       1.592   9.362  19.299  0.00  0.00    +0.000 A 
ATOM     19  C   UNL     1       1.142   9.861  20.524  0.00  0.00    +0.000 A 
ATOM     20  C   UNL     1       0.970  11.323  20.340  0.00  0.00    +0.000 C 
ATOM     21  O   UNL     1       0.636  12.102  21.217  0.00  0.00    +0.000 OA
ATOM     22  N   UNL     1       1.273  11.610  19.006  0.00  0.00    +0.000 N 
ATOM     23  C   UNL     1       1.768  10.447  18.304  0.00  0.00    +0.000 C 
BRANCH  22  24
ATOM     24  C   UNL     1       1.325  12.949  18.418  0.00  0.00    +0.000 C 
ATOM     25  C   UNL     1      -0.016  13.678  18.574  0.00  0.00    +0.000 C 
BRANCH  24  26
ATOM     26  C   UNL     1       2.407  13.802  19.056  0.00  0.00    +0.000 C 
ATOM     27  C   UNL     1       3.627  14.301  18.317  0.00  0.00    +0.000 C 
ATOM     28  C   UNL     1       2.525  15.257  18.671  0.00  0.00    +0.000 C 
ENDBRANCH  24  26
ENDBRANCH  22  24
ENDBRANCH   1  16
BRANCH   8  29
ATOM     29  C   UNL     1       5.198   3.991  17.662  0.00  0.00    +0.000 A 
ATOM     30  C   UNL     1       5.266   4.356  16.327  0.00  0.00    +0.000 A 
ATOM     31  C   UNL     1       6.376   5.052  15.920  0.00  0.00    +0.000 A 
ATOM     32  N   UNL     1       7.383   5.371  16.743  0.00  0.00    +0.000 NA
ATOM     33  C   UNL     1       7.234   4.968  18.016  0.00  0.00    +0.000 A 
ATOM     34  N   UNL     1       6.184   4.307  18.533  0.00  0.00    +0.000 NA
ENDBRANCH   8  29
TORSDOF 4
ENDMDL
MODEL 2
REMARK VINA RESULT:      -9.3      3.243      8.597
REMARK  Name = 
REMARK  6 active torsions:
REMARK  status: ('A' for Active; 'I' for Inactive)
REMARK    1  A    between atoms: C_1  and  C_2
REMARK    2  A    between atoms: C_4  and  C_5
REMARK    3  A    between atoms: C_12  and  C_13
REMARK    4  A    between atoms: N_26  and  C_27
REMARK    5  A    between atoms: C_27  and  C_28
REMARK    6  A    between atoms: C_27  and  C_29
REMARK                            x       y       z     vdW  Elec       q    Type
REMARK                         _______ _______ _______ _____ _____    ______ ____
ROOT
ATOM      1  C   UNL     1       0.669   9.068  20.546  0.00  0.00    +0.000 A 
ATOM      2  C   UNL     1       0.685   9.452  21.992  0.00  0.00    +0.000 A 
ATOM      3  C   UNL     1      -0.025  10.548  22.302  0.00  0.00    +0.000 A 
ATOM      4  N   UNL     1      -0.761  11.217  21.329  0.00  0.00    +0.000 N 
ATOM      5  N   UNL     1      -1.537  12.305  21.491  0.00  0.00    +0.000 NA
ATOM      6  C   UNL     1      -2.183  12.427  20.336  0.00  0.00    +0.000 A 
ATOM      7  N   UNL     1      -3.114  13.371  20.160  0.00  0.00    +0.000 N 
ATOM      8  C   UNL     1      -1.820  11.435  19.388  0.00  0.00    +0.000 A 
ATOM      9  C   UNL     1      -0.817  10.725  20.028  0.00  0.00    +0.000 A 
ATOM     10  N   UNL     1      -0.039   9.671  19.634  0.00  0.00    +0.000 NA
ATOM     11  H   UNL     1      -3.413  13.920  20.955  0.00  0.00    +0.000 HD
ATOM     12  H   UNL     1      -3.723  13.368  19.349  0.00  0.00    +0.000 HD
ENDROOT
BRANCH   1  16
ATOM     13  C   UNL     1       2.172   4.276  21.136  0.00  0.00    +0.000 C 
ATOM     14  C   UNL     1       2.245   5.571  20.384  0.00  0.00    +0.000 A 
ATOM     15  C   UNL     1       1.454   6.659  20.809  0.00  0.00    +0.000 A 
ATOM     16  C   UNL     1       1.479   7.891  20.126  0.00  0.00    +0.000 A 
ATOM     17  C   UNL     1       2.316   8.053  19.016  0.00  0.00    +0.000 A 
ATOM     18  C   UNL     1       3.104   6.993  18.609  0.00  0.00    +0.000 A 
ATOM     19  C   UNL     1       3.079   5.768  19.280  0.00  0.00    +0.000 A 
ATOM     20  C   UNL     1       4.074   4.901  18.602  0.00  0.00    +0.000 C 
ATOM     21  O   UNL     1       4.292   3.735  18.885  0.00  0.00    +0.000 OA
ATOM     22  N   UNL     1       4.676   5.669  17.601  0.00  0.00    +0.000 N 
ATOM     23  C   UNL     1       4.056   6.969  17.473  0.00  0.00    +0.000 C 
BRANCH  22  24
ATOM     24  C   UNL     1       5.650   5.177  16.626  0.00  0.00    +0.000 C 
ATOM     25  C   UNL     1       5.363   5.733  15.224  0.00  0.00    +0.000 C 
BRANCH  24  26
ATOM     26  C   UNL     1       7.069   5.557  17.005  0.00  0.00    +0.000 C 
ATOM     27  C   UNL     1       7.461   6.917  17.536  0.00  0.00    +0.000 C 
ATOM     28  C   UNL     1       7.424   5.737  18.462  0.00  0.00    +0.000 C 
ENDBRANCH  24  26
ENDBRANCH  22  24
ENDBRANCH   1  16
BRANCH   8  29
ATOM     29  C   UNL     1      -2.369  11.084  18.078  0.00  0.00    +0.000 A 
ATOM     30  C   UNL     1      -1.771  10.117  17.286  0.00  0.00    +0.000 A 
ATOM     31  C   UNL     1      -2.411   9.772  16.122  0.00  0.00    +0.000 A 
ATOM     32  N   UNL     1      -3.559  10.334  15.724  0.00  0.00    +0.000 NA
ATOM     33  C   UNL     1      -4.059  11.268  16.550  0.00  0.00    +0.000 A 
ATOM     34  N   UNL     1      -3.536  11.667  17.722  0.00  0.00    +0.000 NA
ENDBRANCH   8  29
TORSDOF 4
ENDMDL
MODEL 3
REMARK VINA RESULT:      -9.1      3.327      8.889
REMARK  Name = 
REMARK  6 active torsions:
REMARK  status: ('A' for Active; 'I' for Inactive)
REMARK    1  A    between atoms: C_1  and  C_2
REMARK    2  A    between atoms: C_4  and  C_5
REMARK    3  A    between atoms: C_12  and  C_13
REMARK    4  A    between atoms: N_26  and  C_27
REMARK    5  A    between atoms: C_27  and  C_28
REMARK    6  A    between atoms: C_27  and  C_29
REMARK                            x       y       z     vdW  Elec       q    Type
REMARK                         _______ _______ _______ _____ _____    ______ ____
ROOT
ATOM      1  C   UNL     1       0.533   9.332  20.387  0.00  0.00    +0.000 A 
ATOM      2  C   UNL     1       0.526   9.696  21.839  0.00  0.00    +0.000 A 
ATOM      3  C   UNL     1      -0.241  10.750  22.162  0.00  0.00    +0.000 A 
ATOM      4  N   UNL     1      -1.007  11.393  21.195  0.00  0.00    +0.000 N 
ATOM      5  N   UNL     1      -1.839  12.438  21.369  0.00  0.00    +0.000 NA
ATOM      6  C   UNL     1      -2.487  12.542  20.213  0.00  0.00    +0.000 A 
ATOM      7  N   UNL     1      -3.465  13.440  20.047  0.00  0.00    +0.000 N 
ATOM      8  C   UNL     1      -2.071  11.584  19.253  0.00  0.00    +0.000 A 
ATOM      9  C   UNL     1      -1.034  10.917  19.887  0.00  0.00    +0.000 A 
ATOM     10  N   UNL     1      -0.202   9.909  19.482  0.00  0.00    +0.000 NA
ATOM     11  H   UNL     1      -3.793  13.962  20.849  0.00  0.00    +0.000 HD
ATOM     12  H   UNL     1      -4.071  13.416  19.234  0.00  0.00    +0.000 HD
ENDROOT
BRANCH   1  16
ATOM     13  C   UNL     1       2.293   4.622  20.930  0.00  0.00    +0.000 C 
ATOM     14  C   UNL     1       2.294   5.926  20.189  0.00  0.00    +0.000 A 
ATOM     15  C   UNL     1       1.447   6.966  20.627  0.00  0.00    +0.000 A 
ATOM     16  C   UNL     1       1.404   8.203  19.954  0.00  0.00    +0.000 A 
ATOM     17  C   UNL     1       2.227   8.421  18.844  0.00  0.00    +0.000 A 
ATOM     18  C   UNL     1       3.070   7.408  18.425  0.00  0.00    +0.000 A 
ATOM     19  C   UNL     1       3.113   6.177  19.085  0.00  0.00    +0.000 A 
ATOM     20  C   UNL     1       4.151   5.371  18.396  0.00  0.00    +0.000 C 
ATOM     21  O   UNL     1       4.432   4.216  18.668  0.00  0.00    +0.000 OA
ATOM     22  N   UNL     1       4.708   6.180  17.400  0.00  0.00    +0.000 N 
ATOM     23  C   UNL     1       4.018   7.445  17.287  0.00  0.00    +0.000 C 
BRANCH  22  24
ATOM     24  C   UNL     1       5.703   5.750  16.418  0.00  0.00    +0.000 C 
ATOM     25  C   UNL     1       7.056   5.464  17.084  0.00  0.00    +0.000 C 
BRANCH  24  26
ATOM     26  C   UNL     1       5.263   4.497  15.682  0.00  0.00    +0.000 C 
ATOM     27  C   UNL     1       5.266   4.363  14.176  0.00  0.00    +0.000 C 
ATOM     28  C   UNL     1       6.298   3.640  14.993  0.00  0.00    +0.000 C 
ENDBRANCH  24  26
ENDBRANCH  22  24
ENDBRANCH   1  16
BRANCH   8  29
ATOM     29  C   UNL     1      -2.597  11.223  17.936  0.00  0.00    +0.000 A 
ATOM     30  C   UNL     1      -1.886  10.394  17.083  0.00  0.00    +0.000 A 
ATOM     31  C   UNL     1      -2.500  10.018  15.915  0.00  0.00    +0.000 A 
ATOM     32  N   UNL     1      -3.727  10.427  15.569  0.00  0.00    +0.000 NA
ATOM     33  C   UNL     1      -4.335  11.235  16.452  0.00  0.00    +0.000 A 
ATOM     34  N   UNL     1      -3.845  11.647  17.635  0.00  0.00    +0.000 NA
ENDBRANCH   8  29
TORSDOF 4
ENDMDL
MODEL 4
REMARK VINA RESULT:      -9.0      0.638      1.197
REMARK  Name = 
REMARK  6 active torsions:
REMARK  status: ('A' for Active; 'I' for Inactive)
REMARK    1  A    between atoms: C_1  and  C_2
REMARK    2  A    between atoms: C_4  and  C_5
REMARK    3  A    between atoms: C_12  and  C_13
REMARK    4  A    between atoms: N_26  and  C_27
REMARK    5  A    between atoms: C_27  and  C_28
REMARK    6  A    between atoms: C_27  and  C_29
REMARK                            x       y       z     vdW  Elec       q    Type
REMARK                         _______ _______ _______ _____ _____    ______ ____
ROOT
ATOM      1  C   UNL     1       1.729   5.825  19.978  0.00  0.00    +0.000 A 
ATOM      2  C   UNL     1       0.876   4.782  20.630  0.00  0.00    +0.000 A 
ATOM      3  C   UNL     1       1.103   3.522  20.227  0.00  0.00    +0.000 A 
ATOM      4  N   UNL     1       2.111   3.240  19.310  0.00  0.00    +0.000 N 
ATOM      5  N   UNL     1       2.472   2.033  18.834  0.00  0.00    +0.000 NA
ATOM      6  C   UNL     1       3.600   2.263  18.170  0.00  0.00    +0.000 A 
ATOM      7  N   UNL     1       4.295   1.261  17.620  0.00  0.00    +0.000 N 
ATOM      8  C   UNL     1       3.983   3.629  18.178  0.00  0.00    +0.000 A 
ATOM      9  C   UNL     1       2.938   4.256  18.840  0.00  0.00    +0.000 A 
ATOM     10  N   UNL     1       2.693   5.567  19.142  0.00  0.00    +0.000 NA
ATOM     11  H   UNL     1       4.020   0.307  17.816  0.00  0.00    +0.000 HD
ATOM     12  H   UNL     1       5.232   1.404  17.258  0.00  0.00    +0.000 HD
ENDROOT
BRANCH   1  16
ATOM     13  C   UNL     1       0.188   9.377  23.231  0.00  0.00    +0.000 C 
ATOM     14  C   UNL     1       0.743   9.006  21.888  0.00  0.00    +0.000 A 
ATOM     15  C   UNL     1       0.960   7.645  21.586  0.00  0.00    +0.000 A 
ATOM     16  C   UNL     1       1.494   7.250  20.343  0.00  0.00    +0.000 A 
ATOM     17  C   UNL     1       1.797   8.216  19.378  0.00  0.00    +0.000 A 
ATOM     18  C   UNL     1       1.568   9.548  19.667  0.00  0.00    +0.000 A 
ATOM     19  C   UNL     1       1.045   9.947  20.899  0.00  0.00    +0.000 A 
ATOM     20  C   UNL     1       0.892  11.421  20.831  0.00  0.00    +0.000 C 
ATOM     21  O   UNL     1       0.508  12.126  21.748  0.00  0.00    +0.000 OA
ATOM     22  N   UNL     1       1.281  11.817  19.547  0.00  0.00    +0.000 N 
ATOM     23  C   UNL     1       1.812  10.712  18.781  0.00  0.00    +0.000 C 
BRANCH  22  24
ATOM     24  C   UNL     1       1.377  13.200  19.080  0.00  0.00    +0.000 C 
ATOM     25  C   UNL     1       2.323  13.316  17.878  0.00  0.00    +0.000 C 
BRANCH  24  26
ATOM     26  C   UNL     1       0.023  13.753  18.674  0.00  0.00    +0.000 C 
ATOM     27  C   UNL     1      -0.919  14.452  19.627  0.00  0.00    +0.000 C 
ATOM     28  C   UNL     1      -0.173  15.248  18.596  0.00  0.00    +0.000 C 
ENDBRANCH  24  26
ENDBRANCH  22  24
ENDBRANCH   1  16
BRANCH   8  29
ATOM     29  C   UNL     1       5.197   4.310  17.728  0.00  0.00    +0.000 A 
ATOM     30  C   UNL     1       5.285   4.855  16.458  0.00  0.00    +0.000 A 
ATOM     31  C   UNL     1       6.416   5.571  16.156  0.00  0.00    +0.000 A 
ATOM     32  N   UNL     1       7.425   5.743  17.020  0.00  0.00    +0.000 NA
ATOM     33  C   UNL     1       7.256   5.171  18.224  0.00  0.00    +0.000 A 
ATOM     34  N   UNL     1       6.184   4.473  18.638  0.00  0.00    +0.000 NA
ENDBRANCH   8  29
TORSDOF 4
ENDMDL
MODEL 5
REMARK VINA RESULT:      -8.7      1.721      2.946
REMARK  Name = 
REMARK  6 active torsions:
REMARK  status: ('A' for Active; 'I' for Inactive)
REMARK    1  A    between atoms: C_1  and  C_2
REMARK    2  A    between atoms: C_4  and  C_5
REMARK    3  A    between atoms: C_12  and  C_13
REMARK    4  A    between atoms: N_26  and  C_27
REMARK    5  A    between atoms: C_27  and  C_28
REMARK    6  A    between atoms: C_27  and  C_29
REMARK                            x       y       z     vdW  Elec       q    Type
REMARK                         _______ _______ _______ _____ _____    ______ ____
ROOT
ATOM      1  C   UNL     1       1.854   5.851  19.851  0.00  0.00    +0.000 A 
ATOM      2  C   UNL     1       1.122   4.980  20.824  0.00  0.00    +0.000 A 
ATOM      3  C   UNL     1       1.386   3.667  20.729  0.00  0.00    +0.000 A 
ATOM      4  N   UNL     1       2.327   3.196  19.818  0.00  0.00    +0.000 N 
ATOM      5  N   UNL     1       2.716   1.921  19.627  0.00  0.00    +0.000 NA
ATOM      6  C   UNL     1       3.768   2.013  18.819  0.00  0.00    +0.000 A 
ATOM      7  N   UNL     1       4.471   0.929  18.473  0.00  0.00    +0.000 N 
ATOM      8  C   UNL     1       4.070   3.349  18.447  0.00  0.00    +0.000 A 
ATOM      9  C   UNL     1       3.051   4.087  19.030  0.00  0.00    +0.000 A 
ATOM     10  N   UNL     1       2.757   5.422  19.016  0.00  0.00    +0.000 NA
ATOM     11  H   UNL     1       4.270   0.048  18.927  0.00  0.00    +0.000 HD
ATOM     12  H   UNL     1       5.363   1.008  17.997  0.00  0.00    +0.000 HD
ENDROOT
BRANCH   1  16
ATOM     13  C   UNL     1       2.159  10.460  17.792  0.00  0.00    +0.000 C 
ATOM     14  C   UNL     1       1.704   9.570  18.910  0.00  0.00    +0.000 A 
ATOM     15  C   UNL     1       1.987   8.189  18.849  0.00  0.00    +0.000 A 
ATOM     16  C   UNL     1       1.568   7.313  19.869  0.00  0.00    +0.000 A 
ATOM     17  C   UNL     1       0.875   7.815  20.976  0.00  0.00    +0.000 A 
ATOM     18  C   UNL     1       0.612   9.171  21.045  0.00  0.00    +0.000 A 
ATOM     19  C   UNL     1       1.021  10.044  20.034  0.00  0.00    +0.000 A 
ATOM     20  C   UNL     1       0.614  11.403  20.467  0.00  0.00    +0.000 C 
ATOM     21  O   UNL     1       0.763  12.419  19.809  0.00  0.00    +0.000 OA
ATOM     22  N   UNL     1       0.035  11.276  21.733  0.00  0.00    +0.000 N 
ATOM     23  C   UNL     1      -0.094   9.892  22.130  0.00  0.00    +0.000 C 
BRANCH  22  24
ATOM     24  C   UNL     1      -0.591  12.360  22.490  0.00  0.00    +0.000 C 
ATOM     25  C   UNL     1      -0.028  13.726  22.076  0.00  0.00    +0.000 C 
BRANCH  24  26
ATOM     26  C   UNL     1      -2.096  12.388  22.294  0.00  0.00    +0.000 C 
ATOM     27  C   UNL     1      -3.093  12.185  23.412  0.00  0.00    +0.000 C 
ATOM     28  C   UNL     1      -2.892  13.554  22.829  0.00  0.00    +0.000 C 
ENDBRANCH  24  26
ENDBRANCH  22  24
ENDBRANCH   1  16
BRANCH   8  29
ATOM     29  C   UNL     1       5.199   3.934  17.726  0.00  0.00    +0.000 A 
ATOM     30  C   UNL     1       5.130   4.180  16.364  0.00  0.00    +0.000 A 
ATOM     31  C   UNL     1       6.192   4.831  15.787  0.00  0.00    +0.000 A 
ATOM     32  N   UNL     1       7.276   5.215  16.473  0.00  0.00    +0.000 NA
ATOM     33  C   UNL     1       7.258   4.926  17.785  0.00  0.00    +0.000 A 
ATOM     34  N   UNL     1       6.267   4.319  18.461  0.00  0.00    +0.000 NA
ENDBRANCH   8  29
TORSDOF 4
ENDMDL
MODEL 6
REMARK VINA RESULT:      -8.7      3.342      9.487
REMARK  Name = 
REMARK  6 active torsions:
REMARK  status: ('A' for Active; 'I' for Inactive)
REMARK    1  A    between atoms: C_1  and  C_2
REMARK    2  A    between atoms: C_4  and  C_5
REMARK    3  A    between atoms: C_12  and  C_13
REMARK    4  A    between atoms: N_26  and  C_27
REMARK    5  A    between atoms: C_27  and  C_28
REMARK    6  A    between atoms: C_27  and  C_29
REMARK                            x       y       z     vdW  Elec       q    Type
REMARK                         _______ _______ _______ _____ _____    ______ ____
ROOT
ATOM      1  C   UNL     1       0.282   9.760  20.502  0.00  0.00    +0.000 A 
ATOM      2  C   UNL     1       0.328  10.108  21.957  0.00  0.00    +0.000 A 
ATOM      3  C   UNL     1      -0.421  11.161  22.319  0.00  0.00    +0.000 A 
ATOM      4  N   UNL     1      -1.217  11.820  21.387  0.00  0.00    +0.000 N 
ATOM      5  N   UNL     1      -2.036  12.867  21.602  0.00  0.00    +0.000 NA
ATOM      6  C   UNL     1      -2.724  12.989  20.471  0.00  0.00    +0.000 A 
ATOM      7  N   UNL     1      -3.701  13.893  20.350  0.00  0.00    +0.000 N 
ATOM      8  C   UNL     1      -2.347  12.039  19.486  0.00  0.00    +0.000 A 
ATOM      9  C   UNL     1      -1.293  11.359  20.075  0.00  0.00    +0.000 A 
ATOM     10  N   UNL     1      -0.481  10.352  19.630  0.00  0.00    +0.000 NA
ATOM     11  H   UNL     1      -3.999  14.408  21.168  0.00  0.00    +0.000 HD
ATOM     12  H   UNL     1      -4.335  13.883  19.558  0.00  0.00    +0.000 HD
ENDROOT
BRANCH   1  16
ATOM     13  C   UNL     1       3.660   7.793  17.293  0.00  0.00    +0.000 C 
ATOM     14  C   UNL     1       2.760   7.634  18.482  0.00  0.00    +0.000 A 
ATOM     15  C   UNL     1       1.980   8.730  18.906  0.00  0.00    +0.000 A 
ATOM     16  C   UNL     1       1.131   8.632  20.026  0.00  0.00    +0.000 A 
ATOM     17  C   UNL     1       1.037   7.423  20.723  0.00  0.00    +0.000 A 
ATOM     18  C   UNL     1       1.788   6.343  20.298  0.00  0.00    +0.000 A 
ATOM     19  C   UNL     1       2.636   6.436  19.191  0.00  0.00    +0.000 A 
ATOM     20  C   UNL     1       3.230   5.089  19.007  0.00  0.00    +0.000 C 
ATOM     21  O   UNL     1       4.062   4.804  18.162  0.00  0.00    +0.000 OA
ATOM     22  N   UNL     1       2.666   4.253  19.976  0.00  0.00    +0.000 N 
ATOM     23  C   UNL     1       1.821   4.985  20.892  0.00  0.00    +0.000 C 
BRANCH  22  24
ATOM     24  C   UNL     1       3.043   2.860  20.214  0.00  0.00    +0.000 C 
ATOM     25  C   UNL     1       2.783   2.455  21.671  0.00  0.00    +0.000 C 
BRANCH  24  26
ATOM     26  C   UNL     1       2.278   1.908  19.313  0.00  0.00    +0.000 C 
ATOM     27  C   UNL     1       0.981   2.264  18.622  0.00  0.00    +0.000 C 
ATOM     28  C   UNL     1       2.249   2.158  17.825  0.00  0.00    +0.000 C 
ENDBRANCH  24  26
ENDBRANCH  22  24
ENDBRANCH   1  16
BRANCH   8  29
ATOM     29  C   UNL     1      -2.921  11.697  18.185  0.00  0.00    +0.000 A 
ATOM     30  C   UNL     1      -2.122  11.251  17.144  0.00  0.00    +0.000 A 
ATOM     31  C   UNL     1      -2.753  10.848  15.994  0.00  0.00    +0.000 A 
ATOM     32  N   UNL     1      -4.082  10.884  15.838  0.00  0.00    +0.000 NA
ATOM     33  C   UNL     1      -4.774  11.338  16.896  0.00  0.00    +0.000 A 
ATOM     34  N   UNL     1      -4.268  11.734  18.077  0.00  0.00    +0.000 NA
ENDBRANCH   8  29
TORSDOF 4
ENDMDL
MODEL 7
REMARK VINA RESULT:      -8.6      2.318      3.151
REMARK  Name = 
REMARK  6 active torsions:
REMARK  status: ('A' for Active; 'I' for Inactive)
REMARK    1  A    between atoms: C_1  and  C_2
REMARK    2  A    between atoms: C_4  and  C_5
REMARK    3  A    between atoms: C_12  and  C_13
REMARK    4  A    between atoms: N_26  and  C_27
REMARK    5  A    between atoms: C_27  and  C_28
REMARK    6  A    between atoms: C_27  and  C_29
REMARK                            x       y       z     vdW  Elec       q    Type
REMARK                         _______ _______ _______ _____ _____    ______ ____
ROOT
ATOM      1  C   UNL     1       1.828   6.786  20.139  0.00  0.00    +0.000 A 
ATOM      2  C   UNL     1       0.990   5.802  20.894  0.00  0.00    +0.000 A 
ATOM      3  C   UNL     1       1.419   4.531  20.847  0.00  0.00    +0.000 A 
ATOM      4  N   UNL     1       2.597   4.201  20.184  0.00  0.00    +0.000 N 
ATOM      5  N   UNL     1       3.164   2.985  20.074  0.00  0.00    +0.000 NA
ATOM      6  C   UNL     1       4.361   3.223  19.545  0.00  0.00    +0.000 A 
ATOM      7  N   UNL     1       5.245   2.237  19.363  0.00  0.00    +0.000 N 
ATOM      8  C   UNL     1       4.586   4.598  19.276  0.00  0.00    +0.000 A 
ATOM      9  C   UNL     1       3.380   5.197  19.606  0.00  0.00    +0.000 A 
ATOM     10  N   UNL     1       2.946   6.492  19.540  0.00  0.00    +0.000 NA
ATOM     11  H   UNL     1       5.044   1.321  19.743  0.00  0.00    +0.000 HD
ATOM     12  H   UNL     1       6.210   2.431  19.118  0.00  0.00    +0.000 HD
ENDROOT
BRANCH   1  16
ATOM     13  C   UNL     1       1.872  11.411  18.094  0.00  0.00    +0.000 C 
ATOM     14  C   UNL     1       1.382  10.470  19.153  0.00  0.00    +0.000 A 
ATOM     15  C   UNL     1       1.824   9.130  19.141  0.00  0.00    +0.000 A 
ATOM     16  C   UNL     1       1.379   8.206  20.108  0.00  0.00    +0.000 A 
ATOM     17  C   UNL     1       0.500   8.621  21.113  0.00  0.00    +0.000 A 
ATOM     18  C   UNL     1       0.080   9.938  21.136  0.00  0.00    +0.000 A 
ATOM     19  C   UNL     1       0.513  10.857  20.177  0.00  0.00    +0.000 A 
ATOM     20  C   UNL     1      -0.095  12.160  20.544  0.00  0.00    +0.000 C 
ATOM     21  O   UNL     1       0.021  13.190  19.901  0.00  0.00    +0.000 OA
ATOM     22  N   UNL     1      -0.813  11.962  21.727  0.00  0.00    +0.000 N 
ATOM     23  C   UNL     1      -0.835  10.570  22.117  0.00  0.00    +0.000 C 
BRANCH  22  24
ATOM     24  C   UNL     1      -1.648  12.964  22.389  0.00  0.00    +0.000 C 
ATOM     25  C   UNL     1      -2.738  12.304  23.244  0.00  0.00    +0.000 C 
BRANCH  24  26
ATOM     26  C   UNL     1      -0.830  13.876  23.286  0.00  0.00    +0.000 C 
ATOM     27  C   UNL     1      -0.526  15.321  22.961  0.00  0.00    +0.000 C 
ATOM     28  C   UNL     1      -1.519  14.990  24.037  0.00  0.00    +0.000 C 
ENDBRANCH  24  26
ENDBRANCH  22  24
ENDBRANCH   1  16
BRANCH   8  29
ATOM     29  C   UNL     1       5.780   5.332  18.856  0.00  0.00    +0.000 A 
ATOM     30  C   UNL     1       5.762   6.151  17.739  0.00  0.00    +0.000 A 
ATOM     31  C   UNL     1       6.891   6.887  17.479  0.00  0.00    +0.000 A 
ATOM     32  N   UNL     1       7.992   6.831  18.240  0.00  0.00    +0.000 NA
ATOM     33  C   UNL     1       7.920   6.003  19.295  0.00  0.00    +0.000 A 
ATOM     34  N   UNL     1       6.864   5.257  19.661  0.00  0.00    +0.000 NA
ENDBRANCH   8  29
TORSDOF 4
ENDMDL
MODEL 8
REMARK VINA RESULT:      -8.5      2.349      3.410
REMARK  Name = 
REMARK  6 active torsions:
REMARK  status: ('A' for Active; 'I' for Inactive)
REMARK    1  A    between atoms: C_1  and  C_2
REMARK    2  A    between atoms: C_4  and  C_5
REMARK    3  A    between atoms: C_12  and  C_13
REMARK    4  A    between atoms: N_26  and  C_27
REMARK    5  A    between atoms: C_27  and  C_28
REMARK    6  A    between atoms: C_27  and  C_29
REMARK                            x       y       z     vdW  Elec       q    Type
REMARK                         _______ _______ _______ _____ _____    ______ ____
ROOT
ATOM      1  C   UNL     1       1.814   6.696  20.209  0.00  0.00    +0.000 A 
ATOM      2  C   UNL     1       0.966   5.682  20.912  0.00  0.00    +0.000 A 
ATOM      3  C   UNL     1       1.383   4.412  20.803  0.00  0.00    +0.000 A 
ATOM      4  N   UNL     1       2.561   4.105  20.127  0.00  0.00    +0.000 N 
ATOM      5  N   UNL     1       3.117   2.891  19.957  0.00  0.00    +0.000 NA
ATOM      6  C   UNL     1       4.318   3.145  19.445  0.00  0.00    +0.000 A 
ATOM      7  N   UNL     1       5.194   2.161  19.215  0.00  0.00    +0.000 N 
ATOM      8  C   UNL     1       4.556   4.530  19.245  0.00  0.00    +0.000 A 
ATOM      9  C   UNL     1       3.354   5.122  19.602  0.00  0.00    +0.000 A 
ATOM     10  N   UNL     1       2.932   6.423  19.600  0.00  0.00    +0.000 NA
ATOM     11  H   UNL     1       4.984   1.229  19.548  0.00  0.00    +0.000 HD
ATOM     12  H   UNL     1       6.161   2.359  18.983  0.00  0.00    +0.000 HD
ENDROOT
BRANCH   1  16
ATOM     13  C   UNL     1       1.573  11.322  18.180  0.00  0.00    +0.000 C 
ATOM     14  C   UNL     1       1.249  10.384  19.304  0.00  0.00    +0.000 A 
ATOM     15  C   UNL     1       1.672   9.040  19.223  0.00  0.00    +0.000 A 
ATOM     16  C   UNL     1       1.378   8.120  20.248  0.00  0.00    +0.000 A 
ATOM     17  C   UNL     1       0.673   8.542  21.380  0.00  0.00    +0.000 A 
ATOM     18  C   UNL     1       0.272   9.862  21.468  0.00  0.00    +0.000 A 
ATOM     19  C   UNL     1       0.556  10.778  20.452  0.00  0.00    +0.000 A 
ATOM     20  C   UNL     1       0.024  12.086  20.909  0.00  0.00    +0.000 C 
ATOM     21  O   UNL     1       0.046  13.115  20.255  0.00  0.00    +0.000 OA
ATOM     22  N   UNL     1      -0.498  11.893  22.191  0.00  0.00    +0.000 N 
ATOM     23  C   UNL     1      -0.470  10.501  22.581  0.00  0.00    +0.000 C 
BRANCH  22  24
ATOM     24  C   UNL     1      -1.210  12.902  22.976  0.00  0.00    +0.000 C 
ATOM     25  C   UNL     1      -0.542  14.278  22.850  0.00  0.00    +0.000 C 
BRANCH  24  26
ATOM     26  C   UNL     1      -2.658  13.036  22.542  0.00  0.00    +0.000 C 
ATOM     27  C   UNL     1      -3.833  12.617  23.395  0.00  0.00    +0.000 C 
ATOM     28  C   UNL     1      -3.536  14.075  23.198  0.00  0.00    +0.000 C 
ENDBRANCH  24  26
ENDBRANCH  22  24
ENDBRANCH   1  16
BRANCH   8  29
ATOM     29  C   UNL     1       5.757   5.273  18.865  0.00  0.00    +0.000 A 
ATOM     30  C   UNL     1       5.759   6.122  17.771  0.00  0.00    +0.000 A 
ATOM     31  C   UNL     1       6.893   6.863  17.551  0.00  0.00    +0.000 A 
ATOM     32  N   UNL     1       7.981   6.785  18.328  0.00  0.00    +0.000 NA
ATOM     33  C   UNL     1       7.891   5.928  19.359  0.00  0.00    +0.000 A 
ATOM     34  N   UNL     1       6.827   5.174  19.686  0.00  0.00    +0.000 NA
ENDBRANCH   8  29
TORSDOF 4
ENDMDL
MODEL 9
REMARK VINA RESULT:      -8.5      3.387      8.812
REMARK  Name = 
REMARK  6 active torsions:
REMARK  status: ('A' for Active; 'I' for Inactive)
REMARK    1  A    between atoms: C_1  and  C_2
REMARK    2  A    between atoms: C_4  and  C_5
REMARK    3  A    between atoms: C_12  and  C_13
REMARK    4  A    between atoms: N_26  and  C_27
REMARK    5  A    between atoms: C_27  and  C_28
REMARK    6  A    between atoms: C_27  and  C_29
REMARK                            x       y       z     vdW  Elec       q    Type
REMARK                         _______ _______ _______ _____ _____    ______ ____
ROOT
ATOM      1  C   UNL     1       1.393   8.396  20.188  0.00  0.00    +0.000 A 
ATOM      2  C   UNL     1       1.598   8.486  21.667  0.00  0.00    +0.000 A 
ATOM      3  C   UNL     1       0.975   9.510  22.271  0.00  0.00    +0.000 A 
ATOM      4  N   UNL     1       0.157  10.371  21.546  0.00  0.00    +0.000 N 
ATOM      5  N   UNL     1      -0.549  11.418  22.012  0.00  0.00    +0.000 NA
ATOM      6  C   UNL     1      -1.323  11.777  20.992  0.00  0.00    +0.000 A 
ATOM      7  N   UNL     1      -2.228  12.753  21.120  0.00  0.00    +0.000 N 
ATOM      8  C   UNL     1      -1.117  10.986  19.831  0.00  0.00    +0.000 A 
ATOM      9  C   UNL     1      -0.074  10.146  20.191  0.00  0.00    +0.000 A 
ATOM     10  N   UNL     1       0.607   9.178  19.506  0.00  0.00    +0.000 NA
ATOM     11  H   UNL     1      -2.407  13.139  22.038  0.00  0.00    +0.000 HD
ATOM     12  H   UNL     1      -2.929  12.921  20.407  0.00  0.00    +0.000 HD
ENDROOT
BRANCH   1  16
ATOM     13  C   UNL     1       2.477   3.513  19.440  0.00  0.00    +0.000 C 
ATOM     14  C   UNL     1       2.661   4.951  19.060  0.00  0.00    +0.000 A 
ATOM     15  C   UNL     1       1.968   5.948  19.779  0.00  0.00    +0.000 A 
ATOM     16  C   UNL     1       2.098   7.311  19.449  0.00  0.00    +0.000 A 
ATOM     17  C   UNL     1       2.945   7.695  18.404  0.00  0.00    +0.000 A 
ATOM     18  C   UNL     1       3.639   6.721  17.710  0.00  0.00    +0.000 A 
ATOM     19  C   UNL     1       3.509   5.367  18.029  0.00  0.00    +0.000 A 
ATOM     20  C   UNL     1       4.425   4.634  17.120  0.00  0.00    +0.000 C 
ATOM     21  O   UNL     1       4.541   3.421  17.076  0.00  0.00    +0.000 OA
ATOM     22  N   UNL     1       5.090   5.591  16.347  0.00  0.00    +0.000 N 
ATOM     23  C   UNL     1       4.584   6.923  16.586  0.00  0.00    +0.000 C 
BRANCH  22  24
ATOM     24  C   UNL     1       6.016   5.299  15.253  0.00  0.00    +0.000 C 
ATOM     25  C   UNL     1       7.448   5.110  15.771  0.00  0.00    +0.000 C 
BRANCH  24  26
ATOM     26  C   UNL     1       5.617   4.046  14.495  0.00  0.00    +0.000 C 
ATOM     27  C   UNL     1       4.962   4.061  13.133  0.00  0.00    +0.000 C 
ATOM     28  C   UNL     1       6.397   3.642  13.267  0.00  0.00    +0.000 C 
ENDBRANCH  24  26
ENDBRANCH  22  24
ENDBRANCH   1  16
BRANCH   8  29
ATOM     29  C   UNL     1      -1.831  10.911  18.557  0.00  0.00    +0.000 A 
ATOM     30  C   UNL     1      -1.443  10.020  17.569  0.00  0.00    +0.000 A 
ATOM     31  C   UNL     1      -2.233   9.937  16.450  0.00  0.00    +0.000 A 
ATOM     32  N   UNL     1      -3.333  10.680  16.275  0.00  0.00    +0.000 NA
ATOM     33  C   UNL     1      -3.626  11.522  17.280  0.00  0.00    +0.000 A 
ATOM     34  N   UNL     1      -2.943  11.669  18.429  0.00  0.00    +0.000 NA
ENDBRANCH   8  29
TORSDOF 4
ENDMDL
