MODEL 1
REMARK VINA RESULT:      -8.1      0.000      0.000
REMARK  Name = 
REMARK  3 active torsions:
REMARK  status: ('A' for Active; 'I' for Inactive)
REMARK    1  A    between atoms: O_1  and  C_2
REMARK    2  A    between atoms: C_6  and  C_7
REMARK    3  A    between atoms: C_13  and  C_14
REMARK                            x       y       z     vdW  Elec       q    Type
REMARK                         _______ _______ _______ _____ _____    ______ ____
ROOT
ATOM      1  C   UNL     1       2.792   6.175  18.912  0.00  0.00    +0.000 A 
ATOM      2  N   UNL     1       3.317   6.203  17.674  0.00  0.00    +0.000 NA
ATOM      3  N   UNL     1       3.043   7.438  17.223  0.00  0.00    +0.000 N 
ATOM      4  C   UNL     1       2.386   8.236  18.119  0.00  0.00    +0.000 A 
ATOM      5  C   UNL     1       1.934   9.556  18.043  0.00  0.00    +0.000 A 
ATOM      6  C   UNL     1       1.290  10.079  19.177  0.00  0.00    +0.000 A 
ATOM      7  C   UNL     1       1.119   9.326  20.348  0.00  0.00    +0.000 A 
ATOM      8  C   UNL     1       1.603   8.010  20.382  0.00  0.00    +0.000 A 
ATOM      9  C   UNL     1       2.225   7.446  19.248  0.00  0.00    +0.000 A 
ATOM     10  H   UNL     1       3.341   7.681  16.285  0.00  0.00    +0.000 HD
ENDROOT
BRANCH   1  15
ATOM     11  C   UNL     1       3.902   2.863  20.328  0.00  0.00    +0.000 A 
ATOM     12  C   UNL     1       2.912   2.601  21.267  0.00  0.00    +0.000 A 
ATOM     13  C   UNL     1       1.900   3.538  21.467  0.00  0.00    +0.000 A 
ATOM     14  C   UNL     1       1.868   4.717  20.712  0.00  0.00    +0.000 A 
ATOM     15  C   UNL     1       2.855   4.973  19.751  0.00  0.00    +0.000 A 
ATOM     16  C   UNL     1       3.891   4.043  19.593  0.00  0.00    +0.000 A 
BRANCH  11  17
ATOM     17  O   UNL     1       4.910   1.979  20.081  0.00  0.00    +0.000 OA
ATOM     18  H   UNL     1       4.632   1.383  19.367  0.00  0.00    +0.000 HD
ENDBRANCH  11  17
ENDBRANCH   1  15
BRANCH   7  19
ATOM     19  C   UNL     1       0.442   9.909  21.508  0.00  0.00    +0.000 A 
ATOM     20  N   UNL     1       0.330  11.185  21.822  0.00  0.00    +0.000 NA
ATOM     21  N   UNL     1      -0.394  11.244  22.989  0.00  0.00    +0.000 NA
ATOM     22  N   UNL     1      -0.729  10.031  23.398  0.00  0.00    +0.000 NA
ATOM     23  N   UNL     1      -0.213   9.202  22.483  0.00  0.00    +0.000 N 
ATOM     24  H   UNL     1      -0.346   8.208  22.591  0.00  0.00    +0.000 HD
ENDBRANCH   7  19
TORSDOF 3
ENDMDL
MODEL 2
REMARK VINA RESULT:      -8.0      5.753      7.877
REMARK  Name = 
REMARK  3 active torsions:
REMARK  status: ('A' for Active; 'I' for Inactive)
REMARK    1  A    between atoms: O_1  and  C_2
REMARK    2  A    between atoms: C_6  and  C_7
REMARK    3  A    between atoms: C_13  and  C_14
REMARK                            x       y       z     vdW  Elec       q    Type
REMARK                         _______ _______ _______ _____ _____    ______ ____
ROOT
ATOM      1  C   UNL     1       6.480   4.575  14.343  0.00  0.00    +0.000 A 
ATOM      2  N   UNL     1       7.549   5.387  14.419  0.00  0.00    +0.000 NA
ATOM      3  N   UNL     1       7.474   5.924  15.648  0.00  0.00    +0.000 N 
ATOM      4  C   UNL     1       6.418   5.482  16.396  0.00  0.00    +0.000 A 
ATOM      5  C   UNL     1       5.997   5.785  17.694  0.00  0.00    +0.000 A 
ATOM      6  C   UNL     1       4.848   5.127  18.164  0.00  0.00    +0.000 A 
ATOM      7  C   UNL     1       4.155   4.190  17.383  0.00  0.00    +0.000 A 
ATOM      8  C   UNL     1       4.625   3.909  16.092  0.00  0.00    +0.000 A 
ATOM      9  C   UNL     1       5.757   4.577  15.579  0.00  0.00    +0.000 A 
ATOM     10  H   UNL     1       8.186   6.592  15.921  0.00  0.00    +0.000 HD
ENDROOT
BRANCH   1  15
ATOM     11  C   UNL     1       4.579   2.990  11.501  0.00  0.00    +0.000 A 
ATOM     12  C   UNL     1       5.562   2.229  10.881  0.00  0.00    +0.000 A 
ATOM     13  C   UNL     1       6.866   2.271  11.374  0.00  0.00    +0.000 A 
ATOM     14  C   UNL     1       7.173   3.052  12.494  0.00  0.00    +0.000 A 
ATOM     15  C   UNL     1       6.178   3.806  13.131  0.00  0.00    +0.000 A 
ATOM     16  C   UNL     1       4.882   3.789  12.597  0.00  0.00    +0.000 A 
BRANCH  11  17
ATOM     17  O   UNL     1       3.286   2.980  11.070  0.00  0.00    +0.000 OA
ATOM     18  H   UNL     1       2.760   3.551  11.655  0.00  0.00    +0.000 HD
ENDBRANCH  11  17
ENDBRANCH   1  15
BRANCH   7  19
ATOM     19  C   UNL     1       2.962   3.527  17.912  0.00  0.00    +0.000 A 
ATOM     20  N   UNL     1       1.719   3.639  17.487  0.00  0.00    +0.000 NA
ATOM     21  N   UNL     1       0.952   2.824  18.286  0.00  0.00    +0.000 NA
ATOM     22  N   UNL     1       1.699   2.214  19.192  0.00  0.00    +0.000 NA
ATOM     23  N   UNL     1       2.944   2.647  18.964  0.00  0.00    +0.000 N 
ATOM     24  H   UNL     1       3.696   2.308  19.544  0.00  0.00    +0.000 HD
ENDBRANCH   7  19
TORSDOF 3
ENDMDL
MODEL 3
REMARK VINA RESULT:      -8.0      5.729      7.801
REMARK  Name = 
REMARK  3 active torsions:
REMARK  status: ('A' for Active; 'I' for Inactive)
REMARK    1  A    between atoms: O_1  and  C_2
REMARK    2  A    between atoms: C_6  and  C_7
REMARK    3  A    between atoms: C_13  and  C_14
REMARK                            x       y       z     vdW  Elec       q    Type
REMARK                         _______ _______ _______ _____ _____    ______ ____
ROOT
ATOM      1  C   UNL     1       6.394   4.530  14.443  0.00  0.00    +0.000 A 
ATOM      2  N   UNL     1       7.443   5.363  14.335  0.00  0.00    +0.000 NA
ATOM      3  N   UNL     1       7.592   5.876  15.567  0.00  0.00    +0.000 N 
ATOM      4  C   UNL     1       6.704   5.397  16.491  0.00  0.00    +0.000 A 
ATOM      5  C   UNL     1       6.530   5.666  17.851  0.00  0.00    +0.000 A 
ATOM      6  C   UNL     1       5.502   4.975  18.515  0.00  0.00    +0.000 A 
ATOM      7  C   UNL     1       4.691   4.038  17.857  0.00  0.00    +0.000 A 
ATOM      8  C   UNL     1       4.914   3.791  16.494  0.00  0.00    +0.000 A 
ATOM      9  C   UNL     1       5.917   4.494  15.793  0.00  0.00    +0.000 A 
ATOM     10  H   UNL     1       8.331   6.554  15.717  0.00  0.00    +0.000 HD
ENDROOT
BRANCH   1  15
ATOM     11  C   UNL     1       6.196   2.100  11.570  0.00  0.00    +0.000 A 
ATOM     12  C   UNL     1       4.967   2.415  11.005  0.00  0.00    +0.000 A 
ATOM     13  C   UNL     1       4.179   3.401  11.598  0.00  0.00    +0.000 A 
ATOM     14  C   UNL     1       4.634   4.082  12.734  0.00  0.00    +0.000 A 
ATOM     15  C   UNL     1       5.883   3.777  13.293  0.00  0.00    +0.000 A 
ATOM     16  C   UNL     1       6.643   2.753  12.713  0.00  0.00    +0.000 A 
BRANCH  11  17
ATOM     17  O   UNL     1       7.013   1.153  11.027  0.00  0.00    +0.000 OA
ATOM     18  H   UNL     1       6.464   0.496  10.569  0.00  0.00    +0.000 HD
ENDBRANCH  11  17
ENDBRANCH   1  15
BRANCH   7  19
ATOM     19  C   UNL     1       3.632   3.340  18.586  0.00  0.00    +0.000 A 
ATOM     20  N   UNL     1       3.252   3.523  19.835  0.00  0.00    +0.000 NA
ATOM     21  N   UNL     1       2.220   2.646  20.069  0.00  0.00    +0.000 NA
ATOM     22  N   UNL     1       1.958   1.927  18.989  0.00  0.00    +0.000 NA
ATOM     23  N   UNL     1       2.829   2.354  18.068  0.00  0.00    +0.000 N 
ATOM     24  H   UNL     1       2.814   1.941  17.149  0.00  0.00    +0.000 HD
ENDBRANCH   7  19
TORSDOF 3
ENDMDL
MODEL 4
REMARK VINA RESULT:      -8.0      3.617      7.490
REMARK  Name = 
REMARK  3 active torsions:
REMARK  status: ('A' for Active; 'I' for Inactive)
REMARK    1  A    between atoms: O_1  and  C_2
REMARK    2  A    between atoms: C_6  and  C_7
REMARK    3  A    between atoms: C_13  and  C_14
REMARK                            x       y       z     vdW  Elec       q    Type
REMARK                         _______ _______ _______ _____ _____    ______ ____
ROOT
ATOM      1  C   UNL     1       2.425   6.428  19.675  0.00  0.00    +0.000 A 
ATOM      2  N   UNL     1       1.922   5.719  20.700  0.00  0.00    +0.000 NA
ATOM      3  N   UNL     1       2.541   4.530  20.621  0.00  0.00    +0.000 N 
ATOM      4  C   UNL     1       3.453   4.433  19.606  0.00  0.00    +0.000 A 
ATOM      5  C   UNL     1       4.291   3.392  19.196  0.00  0.00    +0.000 A 
ATOM      6  C   UNL     1       5.127   3.640  18.093  0.00  0.00    +0.000 A 
ATOM      7  C   UNL     1       5.143   4.879  17.436  0.00  0.00    +0.000 A 
ATOM      8  C   UNL     1       4.294   5.897  17.895  0.00  0.00    +0.000 A 
ATOM      9  C   UNL     1       3.420   5.668  18.978  0.00  0.00    +0.000 A 
ATOM     10  H   UNL     1       2.299   3.819  21.302  0.00  0.00    +0.000 HD
ENDROOT
BRANCH   1  15
ATOM     11  C   UNL     1       0.864   9.833  20.086  0.00  0.00    +0.000 A 
ATOM     12  C   UNL     1       1.014  10.378  18.817  0.00  0.00    +0.000 A 
ATOM     13  C   UNL     1       1.671   9.640  17.833  0.00  0.00    +0.000 A 
ATOM     14  C   UNL     1       2.151   8.355  18.116  0.00  0.00    +0.000 A 
ATOM     15  C   UNL     1       1.983   7.797  19.391  0.00  0.00    +0.000 A 
ATOM     16  C   UNL     1       1.361   8.569  20.381  0.00  0.00    +0.000 A 
BRANCH  11  17
ATOM     17  O   UNL     1       0.221  10.504  21.083  0.00  0.00    +0.000 OA
ATOM     18  H   UNL     1       0.657  10.298  21.927  0.00  0.00    +0.000 HD
ENDBRANCH  11  17
ENDBRANCH   1  15
BRANCH   7  19
ATOM     19  C   UNL     1       6.029   5.095  16.292  0.00  0.00    +0.000 A 
ATOM     20  N   UNL     1       7.226   5.650  16.289  0.00  0.00    +0.000 NA
ATOM     21  N   UNL     1       7.670   5.625  14.988  0.00  0.00    +0.000 NA
ATOM     22  N   UNL     1       6.772   5.066  14.193  0.00  0.00    +0.000 NA
ATOM     23  N   UNL     1       5.754   4.737  14.996  0.00  0.00    +0.000 N 
ATOM     24  H   UNL     1       4.942   4.289  14.602  0.00  0.00    +0.000 HD
ENDBRANCH   7  19
TORSDOF 3
ENDMDL
MODEL 5
REMARK VINA RESULT:      -8.0      5.049      7.761
REMARK  Name = 
REMARK  3 active torsions:
REMARK  status: ('A' for Active; 'I' for Inactive)
REMARK    1  A    between atoms: O_1  and  C_2
REMARK    2  A    between atoms: C_6  and  C_7
REMARK    3  A    between atoms: C_13  and  C_14
REMARK                            x       y       z     vdW  Elec       q    Type
REMARK                         _______ _______ _______ _____ _____    ______ ____
ROOT
ATOM      1  C   UNL     1       4.599   4.580  18.738  0.00  0.00    +0.000 A 
ATOM      2  N   UNL     1       5.309   5.228  19.678  0.00  0.00    +0.000 NA
ATOM      3  N   UNL     1       6.438   5.595  19.049  0.00  0.00    +0.000 N 
ATOM      4  C   UNL     1       6.492   5.243  17.729  0.00  0.00    +0.000 A 
ATOM      5  C   UNL     1       7.466   5.438  16.746  0.00  0.00    +0.000 A 
ATOM      6  C   UNL     1       7.187   4.943  15.461  0.00  0.00    +0.000 A 
ATOM      7  C   UNL     1       5.979   4.296  15.159  0.00  0.00    +0.000 A 
ATOM      8  C   UNL     1       5.026   4.138  16.176  0.00  0.00    +0.000 A 
ATOM      9  C   UNL     1       5.291   4.595  17.484  0.00  0.00    +0.000 A 
ATOM     10  H   UNL     1       7.141   6.095  19.583  0.00  0.00    +0.000 HD
ENDROOT
BRANCH   1  15
ATOM     11  C   UNL     1       1.759   2.929  20.586  0.00  0.00    +0.000 A 
ATOM     12  C   UNL     1       0.828   2.733  19.574  0.00  0.00    +0.000 A 
ATOM     13  C   UNL     1       1.116   3.186  18.287  0.00  0.00    +0.000 A 
ATOM     14  C   UNL     1       2.341   3.807  18.014  0.00  0.00    +0.000 A 
ATOM     15  C   UNL     1       3.289   3.988  19.030  0.00  0.00    +0.000 A 
ATOM     16  C   UNL     1       2.966   3.569  20.328  0.00  0.00    +0.000 A 
BRANCH  11  17
ATOM     17  O   UNL     1       1.537   2.499  21.860  0.00  0.00    +0.000 OA
ATOM     18  H   UNL     1       0.592   2.293  21.957  0.00  0.00    +0.000 HD
ENDBRANCH  11  17
ENDBRANCH   1  15
BRANCH   7  19
ATOM     19  C   UNL     1       5.728   3.796  13.807  0.00  0.00    +0.000 A 
ATOM     20  N   UNL     1       4.626   3.912  13.093  0.00  0.00    +0.000 NA
ATOM     21  N   UNL     1       4.867   3.294  11.888  0.00  0.00    +0.000 NA
ATOM     22  N   UNL     1       6.095   2.802  11.848  0.00  0.00    +0.000 NA
ATOM     23  N   UNL     1       6.631   3.111  13.034  0.00  0.00    +0.000 N 
ATOM     24  H   UNL     1       7.579   2.831  13.231  0.00  0.00    +0.000 HD
ENDBRANCH   7  19
TORSDOF 3
ENDMDL
MODEL 6
REMARK VINA RESULT:      -7.9      3.547      7.259
REMARK  Name = 
REMARK  3 active torsions:
REMARK  status: ('A' for Active; 'I' for Inactive)
REMARK    1  A    between atoms: O_1  and  C_2
REMARK    2  A    between atoms: C_6  and  C_7
REMARK    3  A    between atoms: C_13  and  C_14
REMARK                            x       y       z     vdW  Elec       q    Type
REMARK                         _______ _______ _______ _____ _____    ______ ____
ROOT
ATOM      1  C   UNL     1       2.304   6.151  20.019  0.00  0.00    +0.000 A 
ATOM      2  N   UNL     1       1.812   5.360  20.989  0.00  0.00    +0.000 NA
ATOM      3  N   UNL     1       2.449   4.189  20.820  0.00  0.00    +0.000 N 
ATOM      4  C   UNL     1       3.360   4.182  19.800  0.00  0.00    +0.000 A 
ATOM      5  C   UNL     1       4.213   3.187  19.312  0.00  0.00    +0.000 A 
ATOM      6  C   UNL     1       5.042   3.529  18.231  0.00  0.00    +0.000 A 
ATOM      7  C   UNL     1       5.039   4.814  17.668  0.00  0.00    +0.000 A 
ATOM      8  C   UNL     1       4.176   5.782  18.202  0.00  0.00    +0.000 A 
ATOM      9  C   UNL     1       3.308   5.460  19.266  0.00  0.00    +0.000 A 
ATOM     10  H   UNL     1       2.219   3.426  21.447  0.00  0.00    +0.000 HD
ENDROOT
BRANCH   1  15
ATOM     11  C   UNL     1       1.669   9.531  18.477  0.00  0.00    +0.000 A 
ATOM     12  C   UNL     1       1.072  10.221  19.524  0.00  0.00    +0.000 A 
ATOM     13  C   UNL     1       0.836   9.559  20.728  0.00  0.00    +0.000 A 
ATOM     14  C   UNL     1       1.220   8.222  20.887  0.00  0.00    +0.000 A 
ATOM     15  C   UNL     1       1.841   7.531  19.838  0.00  0.00    +0.000 A 
ATOM     16  C   UNL     1       2.030   8.196  18.619  0.00  0.00    +0.000 A 
BRANCH  11  17
ATOM     17  O   UNL     1       1.934  10.129  17.282  0.00  0.00    +0.000 OA
ATOM     18  H   UNL     1       2.811   9.840  16.978  0.00  0.00    +0.000 HD
ENDBRANCH  11  17
ENDBRANCH   1  15
BRANCH   7  19
ATOM     19  C   UNL     1       5.920   5.128  16.542  0.00  0.00    +0.000 A 
ATOM     20  N   UNL     1       7.221   5.339  16.568  0.00  0.00    +0.000 NA
ATOM     21  N   UNL     1       7.607   5.588  15.272  0.00  0.00    +0.000 NA
ATOM     22  N   UNL     1       6.570   5.534  14.452  0.00  0.00    +0.000 NA
ATOM     23  N   UNL     1       5.523   5.249  15.234  0.00  0.00    +0.000 N 
ATOM     24  H   UNL     1       4.610   5.157  14.818  0.00  0.00    +0.000 HD
ENDBRANCH   7  19
TORSDOF 3
ENDMDL
MODEL 7
REMARK VINA RESULT:      -7.8      3.266      4.836
REMARK  Name = 
REMARK  3 active torsions:
REMARK  status: ('A' for Active; 'I' for Inactive)
REMARK    1  A    between atoms: O_1  and  C_2
REMARK    2  A    between atoms: C_6  and  C_7
REMARK    3  A    between atoms: C_13  and  C_14
REMARK                            x       y       z     vdW  Elec       q    Type
REMARK                         _______ _______ _______ _____ _____    ______ ____
ROOT
ATOM      1  C   UNL     1       4.226   3.623  18.060  0.00  0.00    +0.000 A 
ATOM      2  N   UNL     1       4.091   2.308  18.304  0.00  0.00    +0.000 NA
ATOM      3  N   UNL     1       3.183   2.242  19.292  0.00  0.00    +0.000 N 
ATOM      4  C   UNL     1       2.691   3.455  19.691  0.00  0.00    +0.000 A 
ATOM      5  C   UNL     1       1.752   3.813  20.662  0.00  0.00    +0.000 A 
ATOM      6  C   UNL     1       1.470   5.181  20.807  0.00  0.00    +0.000 A 
ATOM      7  C   UNL     1       2.083   6.156  20.006  0.00  0.00    +0.000 A 
ATOM      8  C   UNL     1       3.009   5.747  19.035  0.00  0.00    +0.000 A 
ATOM      9  C   UNL     1       3.337   4.382  18.887  0.00  0.00    +0.000 A 
ATOM     10  H   UNL     1       2.933   1.328  19.652  0.00  0.00    +0.000 HD
ENDROOT
BRANCH   1  15
ATOM     11  C   UNL     1       6.865   5.711  16.364  0.00  0.00    +0.000 A 
ATOM     12  C   UNL     1       6.864   5.193  15.076  0.00  0.00    +0.000 A 
ATOM     13  C   UNL     1       6.022   4.122  14.774  0.00  0.00    +0.000 A 
ATOM     14  C   UNL     1       5.172   3.594  15.753  0.00  0.00    +0.000 A 
ATOM     15  C   UNL     1       5.159   4.129  17.048  0.00  0.00    +0.000 A 
ATOM     16  C   UNL     1       6.043   5.174  17.349  0.00  0.00    +0.000 A 
BRANCH  11  17
ATOM     17  O   UNL     1       7.658   6.763  16.714  0.00  0.00    +0.000 OA
ATOM     18  H   UNL     1       8.400   6.814  16.089  0.00  0.00    +0.000 HD
ENDBRANCH  11  17
ENDBRANCH   1  15
BRANCH   7  19
ATOM     19  C   UNL     1       1.761   7.572  20.190  0.00  0.00    +0.000 A 
ATOM     20  N   UNL     1       1.663   8.506  19.265  0.00  0.00    +0.000 NA
ATOM     21  N   UNL     1       1.334   9.673  19.913  0.00  0.00    +0.000 NA
ATOM     22  N   UNL     1       1.226   9.474  21.217  0.00  0.00    +0.000 NA
ATOM     23  N   UNL     1       1.490   8.174  21.392  0.00  0.00    +0.000 N 
ATOM     24  H   UNL     1       1.465   7.790  22.324  0.00  0.00    +0.000 HD
ENDBRANCH   7  19
TORSDOF 3
ENDMDL
MODEL 8
REMARK VINA RESULT:      -7.8      3.242      4.751
REMARK  Name = 
REMARK  3 active torsions:
REMARK  status: ('A' for Active; 'I' for Inactive)
REMARK    1  A    between atoms: O_1  and  C_2
REMARK    2  A    between atoms: C_6  and  C_7
REMARK    3  A    between atoms: C_13  and  C_14
REMARK                            x       y       z     vdW  Elec       q    Type
REMARK                         _______ _______ _______ _____ _____    ______ ____
ROOT
ATOM      1  C   UNL     1       4.406   4.019  18.465  0.00  0.00    +0.000 A 
ATOM      2  N   UNL     1       4.367   2.792  19.012  0.00  0.00    +0.000 NA
ATOM      3  N   UNL     1       3.471   2.898  20.008  0.00  0.00    +0.000 N 
ATOM      4  C   UNL     1       2.897   4.134  20.123  0.00  0.00    +0.000 A 
ATOM      5  C   UNL     1       1.940   4.645  21.004  0.00  0.00    +0.000 A 
ATOM      6  C   UNL     1       1.562   5.987  20.832  0.00  0.00    +0.000 A 
ATOM      7  C   UNL     1       2.100   6.786  19.813  0.00  0.00    +0.000 A 
ATOM      8  C   UNL     1       3.047   6.225  18.944  0.00  0.00    +0.000 A 
ATOM      9  C   UNL     1       3.470   4.889  19.111  0.00  0.00    +0.000 A 
ATOM     10  H   UNL     1       3.289   2.079  20.577  0.00  0.00    +0.000 HD
ENDROOT
BRANCH   1  15
ATOM     11  C   UNL     1       6.983   5.755  16.331  0.00  0.00    +0.000 A 
ATOM     12  C   UNL     1       6.916   5.033  15.147  0.00  0.00    +0.000 A 
ATOM     13  C   UNL     1       6.051   3.942  15.064  0.00  0.00    +0.000 A 
ATOM     14  C   UNL     1       5.243   3.596  16.154  0.00  0.00    +0.000 A 
ATOM     15  C   UNL     1       5.296   4.336  17.343  0.00  0.00    +0.000 A 
ATOM     16  C   UNL     1       6.203   5.402  17.427  0.00  0.00    +0.000 A 
BRANCH  11  17
ATOM     17  O   UNL     1       7.800   6.838  16.467  0.00  0.00    +0.000 OA
ATOM     18  H   UNL     1       7.280   7.577  16.823  0.00  0.00    +0.000 HD
ENDBRANCH  11  17
ENDBRANCH   1  15
BRANCH   7  19
ATOM     19  C   UNL     1       1.678   8.180  19.668  0.00  0.00    +0.000 A 
ATOM     20  N   UNL     1       1.136   8.960  20.583  0.00  0.00    +0.000 NA
ATOM     21  N   UNL     1       0.921  10.180  19.986  0.00  0.00    +0.000 NA
ATOM     22  N   UNL     1       1.320  10.165  18.724  0.00  0.00    +0.000 NA
ATOM     23  N   UNL     1       1.790   8.928  18.523  0.00  0.00    +0.000 N 
ATOM     24  H   UNL     1       2.154   8.683  17.617  0.00  0.00    +0.000 HD
ENDBRANCH   7  19
TORSDOF 3
ENDMDL
MODEL 9
REMARK VINA RESULT:      -7.8      3.262      4.782
REMARK  Name = 
REMARK  3 active torsions:
REMARK  status: ('A' for Active; 'I' for Inactive)
REMARK    1  A    between atoms: O_1  and  C_2
REMARK    2  A    between atoms: C_6  and  C_7
REMARK    3  A    between atoms: C_13  and  C_14
REMARK                            x       y       z     vdW  Elec       q    Type
REMARK                         _______ _______ _______ _____ _____    ______ ____
ROOT
ATOM      1  C   UNL     1       4.212   3.668  18.095  0.00  0.00    +0.000 A 
ATOM      2  N   UNL     1       4.058   2.349  18.305  0.00  0.00    +0.000 NA
ATOM      3  N   UNL     1       3.125   2.271  19.268  0.00  0.00    +0.000 N 
ATOM      4  C   UNL     1       2.637   3.479  19.683  0.00  0.00    +0.000 A 
ATOM      5  C   UNL     1       1.677   3.823  20.639  0.00  0.00    +0.000 A 
ATOM      6  C   UNL     1       1.405   5.192  20.810  0.00  0.00    +0.000 A 
ATOM      7  C   UNL     1       2.048   6.178  20.048  0.00  0.00    +0.000 A 
ATOM      8  C   UNL     1       2.993   5.782  19.090  0.00  0.00    +0.000 A 
ATOM      9  C   UNL     1       3.311   4.418  18.918  0.00  0.00    +0.000 A 
ATOM     10  H   UNL     1       2.858   1.351  19.600  0.00  0.00    +0.000 HD
ENDROOT
BRANCH   1  15
ATOM     11  C   UNL     1       6.235   4.071  14.941  0.00  0.00    +0.000 A 
ATOM     12  C   UNL     1       7.111   5.092  15.284  0.00  0.00    +0.000 A 
ATOM     13  C   UNL     1       7.007   5.683  16.543  0.00  0.00    +0.000 A 
ATOM     14  C   UNL     1       6.048   5.232  17.458  0.00  0.00    +0.000 A 
ATOM     15  C   UNL     1       5.176   4.188  17.119  0.00  0.00    +0.000 A 
ATOM     16  C   UNL     1       5.263   3.636  15.834  0.00  0.00    +0.000 A 
BRANCH  11  17
ATOM     17  O   UNL     1       6.296   3.449  13.729  0.00  0.00    +0.000 OA
ATOM     18  H   UNL     1       5.686   2.694  13.736  0.00  0.00    +0.000 HD
ENDBRANCH  11  17
ENDBRANCH   1  15
BRANCH   7  19
ATOM     19  C   UNL     1       1.735   7.592  20.257  0.00  0.00    +0.000 A 
ATOM     20  N   UNL     1       1.600   8.535  19.345  0.00  0.00    +0.000 NA
ATOM     21  N   UNL     1       1.300   9.696  20.016  0.00  0.00    +0.000 NA
ATOM     22  N   UNL     1       1.248   9.486  21.322  0.00  0.00    +0.000 NA
ATOM     23  N   UNL     1       1.517   8.185  21.475  0.00  0.00    +0.000 N 
ATOM     24  H   UNL     1       1.532   7.792  22.403  0.00  0.00    +0.000 HD
ENDBRANCH   7  19
TORSDOF 3
ENDMDL
