MODEL 1
REMARK VINA RESULT:      -8.7      0.000      0.000
REMARK  Name = 
REMARK  5 active torsions:
REMARK  status: ('A' for Active; 'I' for Inactive)
REMARK    1  A    between atoms: C_1  and  C_2
REMARK    2  A    between atoms: C_5  and  C_6
REMARK    3  A    between atoms: C_10  and  C_11
REMARK    4  A    between atoms: N_18  and  N_19
REMARK    5  A    between atoms: C_20  and  C_21
REMARK                            x       y       z     vdW  Elec       q    Type
REMARK                         _______ _______ _______ _____ _____    ______ ____
ROOT
ATOM      1  C   UNL     1       4.240   2.181  20.267  0.00  0.00    +0.000 C 
ATOM      2  C   UNL     1       4.725   3.294  19.369  0.00  0.00    +0.000 C 
ATOM      3  O   UNL     1       5.921   3.604  19.389  0.00  0.00    +0.000 OA
ATOM      4  N   UNL     1       3.751   3.931  18.602  0.00  0.00    +0.000 N 
ATOM      5  C   UNL     1       2.438   4.138  19.011  0.00  0.00    +0.000 C 
ATOM      6  C   UNL     1       1.400   4.453  17.951  0.00  0.00    +0.000 C 
ATOM      7  O   UNL     1       2.060   4.017  20.180  0.00  0.00    +0.000 OA
ATOM      8  C   UNL     1       4.248   4.576  17.476  0.00  0.00    +0.000 A 
ATOM      9  N   UNL     1       4.934   3.991  16.514  0.00  0.00    +0.000 NA
ATOM     10  C   UNL     1       5.264   4.981  15.626  0.00  0.00    +0.000 A 
ATOM     11  C   UNL     1       4.787   6.194  16.068  0.00  0.00    +0.000 A 
ATOM     12  N   UNL     1       4.106   5.941  17.236  0.00  0.00    +0.000 N 
ENDROOT
BRANCH  10  13
ATOM     13  C   UNL     1       6.030   4.729  14.414  0.00  0.00    +0.000 A 
ATOM     14  C   UNL     1       5.564   3.778  13.492  0.00  0.00    +0.000 A 
ATOM     15  C   UNL     1       6.280   3.503  12.324  0.00  0.00    +0.000 A 
ATOM     16  C   UNL     1       7.470   4.175  12.062  0.00  0.00    +0.000 A 
ATOM     17  C   UNL     1       7.943   5.128  12.963  0.00  0.00    +0.000 A 
ATOM     18  C   UNL     1       7.226   5.404  14.132  0.00  0.00    +0.000 A 
ENDBRANCH  10  13
BRANCH  12  19
ATOM     19  N   UNL     1       3.481   6.810  18.084  0.00  0.00    +0.000 NA
ATOM     20  C   UNL     1       2.682   7.686  17.577  0.00  0.00    +0.000 C 
BRANCH  20  21
ATOM     21  C   UNL     1       2.015   8.690  18.431  0.00  0.00    +0.000 A 
ATOM     22  C   UNL     1       1.812   9.995  17.968  0.00  0.00    +0.000 A 
ATOM     23  C   UNL     1       1.192  10.935  18.792  0.00  0.00    +0.000 A 
ATOM     24  C   UNL     1       0.781  10.571  20.074  0.00  0.00    +0.000 A 
ATOM     25  C   UNL     1       0.974   9.267  20.531  0.00  0.00    +0.000 A 
ATOM     26  C   UNL     1       1.589   8.322  19.711  0.00  0.00    +0.000 A 
ENDBRANCH  20  21
ENDBRANCH  12  19
TORSDOF 3
ENDMDL
MODEL 2
REMARK VINA RESULT:      -8.6      0.069      1.342
REMARK  Name = 
REMARK  5 active torsions:
REMARK  status: ('A' for Active; 'I' for Inactive)
REMARK    1  A    between atoms: C_1  and  C_2
REMARK    2  A    between atoms: C_5  and  C_6
REMARK    3  A    between atoms: C_10  and  C_11
REMARK    4  A    between atoms: N_18  and  N_19
REMARK    5  A    between atoms: C_20  and  C_21
REMARK                            x       y       z     vdW  Elec       q    Type
REMARK                         _______ _______ _______ _____ _____    ______ ____
ROOT
ATOM      1  C   UNL     1       4.278   2.152  20.320  0.00  0.00    +0.000 C 
ATOM      2  C   UNL     1       4.747   3.263  19.411  0.00  0.00    +0.000 C 
ATOM      3  O   UNL     1       5.940   3.583  19.420  0.00  0.00    +0.000 OA
ATOM      4  N   UNL     1       3.761   3.889  18.649  0.00  0.00    +0.000 N 
ATOM      5  C   UNL     1       2.451   4.088  19.068  0.00  0.00    +0.000 C 
ATOM      6  C   UNL     1       1.401   4.388  18.015  0.00  0.00    +0.000 C 
ATOM      7  O   UNL     1       2.082   3.969  20.241  0.00  0.00    +0.000 OA
ATOM      8  C   UNL     1       4.244   4.531  17.515  0.00  0.00    +0.000 A 
ATOM      9  N   UNL     1       4.926   3.946  16.552  0.00  0.00    +0.000 NA
ATOM     10  C   UNL     1       5.241   4.934  15.655  0.00  0.00    +0.000 A 
ATOM     11  C   UNL     1       4.759   6.146  16.095  0.00  0.00    +0.000 A 
ATOM     12  N   UNL     1       4.089   5.894  17.270  0.00  0.00    +0.000 N 
ENDROOT
BRANCH  10  13
ATOM     13  C   UNL     1       5.999   4.681  14.439  0.00  0.00    +0.000 A 
ATOM     14  C   UNL     1       7.192   5.386  14.213  0.00  0.00    +0.000 A 
ATOM     15  C   UNL     1       7.938   5.177  13.051  0.00  0.00    +0.000 A 
ATOM     16  C   UNL     1       7.503   4.260  12.099  0.00  0.00    +0.000 A 
ATOM     17  C   UNL     1       6.324   3.547  12.310  0.00  0.00    +0.000 A 
ATOM     18  C   UNL     1       5.577   3.755  13.474  0.00  0.00    +0.000 A 
ENDBRANCH  10  13
BRANCH  12  19
ATOM     19  N   UNL     1       3.464   6.762  18.118  0.00  0.00    +0.000 NA
ATOM     20  C   UNL     1       2.667   7.640  17.611  0.00  0.00    +0.000 C 
BRANCH  20  21
ATOM     21  C   UNL     1       1.999   8.644  18.465  0.00  0.00    +0.000 A 
ATOM     22  C   UNL     1       1.597   8.316  19.765  0.00  0.00    +0.000 A 
ATOM     23  C   UNL     1       0.956   9.271  20.554  0.00  0.00    +0.000 A 
ATOM     24  C   UNL     1       0.716  10.547  20.045  0.00  0.00    +0.000 A 
ATOM     25  C   UNL     1       1.128  10.876  18.753  0.00  0.00    +0.000 A 
ATOM     26  C   UNL     1       1.772   9.927  17.960  0.00  0.00    +0.000 A 
ENDBRANCH  20  21
ENDBRANCH  12  19
TORSDOF 3
ENDMDL
MODEL 3
REMARK VINA RESULT:      -7.9      1.141      7.151
REMARK  Name = 
REMARK  5 active torsions:
REMARK  status: ('A' for Active; 'I' for Inactive)
REMARK    1  A    between atoms: C_1  and  C_2
REMARK    2  A    between atoms: C_5  and  C_6
REMARK    3  A    between atoms: C_10  and  C_11
REMARK    4  A    between atoms: N_18  and  N_19
REMARK    5  A    between atoms: C_20  and  C_21
REMARK                            x       y       z     vdW  Elec       q    Type
REMARK                         _______ _______ _______ _____ _____    ______ ____
ROOT
ATOM      1  C   UNL     1       2.637   2.724  21.067  0.00  0.00    +0.000 C 
ATOM      2  C   UNL     1       2.322   3.821  20.078  0.00  0.00    +0.000 C 
ATOM      3  O   UNL     1       1.166   3.941  19.661  0.00  0.00    +0.000 OA
ATOM      4  N   UNL     1       3.401   4.602  19.666  0.00  0.00    +0.000 N 
ATOM      5  C   UNL     1       4.701   4.132  19.515  0.00  0.00    +0.000 C 
ATOM      6  C   UNL     1       5.828   5.146  19.475  0.00  0.00    +0.000 C 
ATOM      7  O   UNL     1       4.994   2.933  19.477  0.00  0.00    +0.000 OA
ATOM      8  C   UNL     1       3.041   5.850  19.173  0.00  0.00    +0.000 A 
ATOM      9  N   UNL     1       2.359   6.757  19.843  0.00  0.00    +0.000 NA
ATOM     10  C   UNL     1       2.186   7.813  18.987  0.00  0.00    +0.000 A 
ATOM     11  C   UNL     1       2.756   7.532  17.766  0.00  0.00    +0.000 A 
ATOM     12  N   UNL     1       3.336   6.290  17.884  0.00  0.00    +0.000 N 
ENDROOT
BRANCH  10  13
ATOM     13  C   UNL     1       1.473   9.024  19.364  0.00  0.00    +0.000 A 
ATOM     14  C   UNL     1       1.019   9.173  20.684  0.00  0.00    +0.000 A 
ATOM     15  C   UNL     1       0.321  10.317  21.077  0.00  0.00    +0.000 A 
ATOM     16  C   UNL     1       0.069  11.330  20.156  0.00  0.00    +0.000 A 
ATOM     17  C   UNL     1       0.518  11.202  18.843  0.00  0.00    +0.000 A 
ATOM     18  C   UNL     1       1.218  10.056  18.449  0.00  0.00    +0.000 A 
ENDBRANCH  10  13
BRANCH  12  19
ATOM     19  N   UNL     1       3.994   5.545  16.949  0.00  0.00    +0.000 NA
ATOM     20  C   UNL     1       4.916   6.119  16.253  0.00  0.00    +0.000 C 
BRANCH  20  21
ATOM     21  C   UNL     1       5.631   5.386  15.187  0.00  0.00    +0.000 A 
ATOM     22  C   UNL     1       6.981   5.646  14.928  0.00  0.00    +0.000 A 
ATOM     23  C   UNL     1       7.637   4.955  13.909  0.00  0.00    +0.000 A 
ATOM     24  C   UNL     1       6.945   4.009  13.152  0.00  0.00    +0.000 A 
ATOM     25  C   UNL     1       5.602   3.743  13.419  0.00  0.00    +0.000 A 
ATOM     26  C   UNL     1       4.941   4.428  14.438  0.00  0.00    +0.000 A 
ENDBRANCH  20  21
ENDBRANCH  12  19
TORSDOF 3
ENDMDL
MODEL 4
REMARK VINA RESULT:      -7.8      3.787      6.544
REMARK  Name = 
REMARK  5 active torsions:
REMARK  status: ('A' for Active; 'I' for Inactive)
REMARK    1  A    between atoms: C_1  and  C_2
REMARK    2  A    between atoms: C_5  and  C_6
REMARK    3  A    between atoms: C_10  and  C_11
REMARK    4  A    between atoms: N_18  and  N_19
REMARK    5  A    between atoms: C_20  and  C_21
REMARK                            x       y       z     vdW  Elec       q    Type
REMARK                         _______ _______ _______ _____ _____    ______ ____
ROOT
ATOM      1  C   UNL     1      -0.589   9.899  23.005  0.00  0.00    +0.000 C 
ATOM      2  C   UNL     1       0.486   9.892  21.944  0.00  0.00    +0.000 C 
ATOM      3  O   UNL     1       1.662   9.720  22.282  0.00  0.00    +0.000 OA
ATOM      4  N   UNL     1       0.060  10.135  20.639  0.00  0.00    +0.000 N 
ATOM      5  C   UNL     1      -0.991  10.978  20.298  0.00  0.00    +0.000 C 
ATOM      6  C   UNL     1      -1.609  10.829  18.920  0.00  0.00    +0.000 C 
ATOM      7  O   UNL     1      -1.492  11.795  21.076  0.00  0.00    +0.000 OA
ATOM      8  C   UNL     1       0.927   9.658  19.663  0.00  0.00    +0.000 A 
ATOM      9  N   UNL     1       1.305   8.402  19.539  0.00  0.00    +0.000 NA
ATOM     10  C   UNL     1       2.183   8.370  18.488  0.00  0.00    +0.000 A 
ATOM     11  C   UNL     1       2.358   9.636  17.977  0.00  0.00    +0.000 A 
ATOM     12  N   UNL     1       1.533  10.464  18.701  0.00  0.00    +0.000 N 
ENDROOT
BRANCH  10  13
ATOM     13  C   UNL     1       2.826   7.145  18.034  0.00  0.00    +0.000 A 
ATOM     14  C   UNL     1       2.197   5.912  18.267  0.00  0.00    +0.000 A 
ATOM     15  C   UNL     1       2.790   4.716  17.856  0.00  0.00    +0.000 A 
ATOM     16  C   UNL     1       4.020   4.737  17.204  0.00  0.00    +0.000 A 
ATOM     17  C   UNL     1       4.655   5.953  16.958  0.00  0.00    +0.000 A 
ATOM     18  C   UNL     1       4.060   7.151  17.369  0.00  0.00    +0.000 A 
ENDBRANCH  10  13
BRANCH  12  19
ATOM     19  N   UNL     1       1.363  11.817  18.615  0.00  0.00    +0.000 NA
ATOM     20  C   UNL     1       2.402  12.546  18.381  0.00  0.00    +0.000 C 
BRANCH  20  21
ATOM     21  C   UNL     1       2.299  14.019  18.328  0.00  0.00    +0.000 A 
ATOM     22  C   UNL     1       1.177  14.672  18.850  0.00  0.00    +0.000 A 
ATOM     23  C   UNL     1       1.089  16.062  18.780  0.00  0.00    +0.000 A 
ATOM     24  C   UNL     1       2.118  16.795  18.189  0.00  0.00    +0.000 A 
ATOM     25  C   UNL     1       3.241  16.144  17.678  0.00  0.00    +0.000 A 
ATOM     26  C   UNL     1       3.336  14.754  17.748  0.00  0.00    +0.000 A 
ENDBRANCH  20  21
ENDBRANCH  12  19
TORSDOF 3
ENDMDL
MODEL 5
REMARK VINA RESULT:      -7.8      3.740      6.502
REMARK  Name = 
REMARK  5 active torsions:
REMARK  status: ('A' for Active; 'I' for Inactive)
REMARK    1  A    between atoms: C_1  and  C_2
REMARK    2  A    between atoms: C_5  and  C_6
REMARK    3  A    between atoms: C_10  and  C_11
REMARK    4  A    between atoms: N_18  and  N_19
REMARK    5  A    between atoms: C_20  and  C_21
REMARK                            x       y       z     vdW  Elec       q    Type
REMARK                         _______ _______ _______ _____ _____    ______ ____
ROOT
ATOM      1  C   UNL     1      -0.469   9.921  23.027  0.00  0.00    +0.000 C 
ATOM      2  C   UNL     1       0.577   9.892  21.938  0.00  0.00    +0.000 C 
ATOM      3  O   UNL     1       1.763   9.739  22.247  0.00  0.00    +0.000 OA
ATOM      4  N   UNL     1       0.114  10.094  20.638  0.00  0.00    +0.000 N 
ATOM      5  C   UNL     1      -0.953  10.918  20.302  0.00  0.00    +0.000 C 
ATOM      6  C   UNL     1      -1.607  10.726  18.946  0.00  0.00    +0.000 C 
ATOM      7  O   UNL     1      -1.440  11.754  21.070  0.00  0.00    +0.000 OA
ATOM      8  C   UNL     1       0.958   9.596  19.652  0.00  0.00    +0.000 A 
ATOM      9  N   UNL     1       1.343   8.339  19.555  0.00  0.00    +0.000 NA
ATOM     10  C   UNL     1       2.192   8.284  18.481  0.00  0.00    +0.000 A 
ATOM     11  C   UNL     1       2.343   9.536  17.930  0.00  0.00    +0.000 A 
ATOM     12  N   UNL     1       1.530  10.379  18.652  0.00  0.00    +0.000 N 
ENDROOT
BRANCH  10  13
ATOM     13  C   UNL     1       2.832   7.051  18.045  0.00  0.00    +0.000 A 
ATOM     14  C   UNL     1       4.063   7.116  17.374  0.00  0.00    +0.000 A 
ATOM     15  C   UNL     1       4.700   5.954  16.931  0.00  0.00    +0.000 A 
ATOM     16  C   UNL     1       4.115   4.711  17.155  0.00  0.00    +0.000 A 
ATOM     17  C   UNL     1       2.896   4.628  17.826  0.00  0.00    +0.000 A 
ATOM     18  C   UNL     1       2.259   5.791  18.271  0.00  0.00    +0.000 A 
ENDBRANCH  10  13
BRANCH  12  19
ATOM     19  N   UNL     1       1.347  11.726  18.531  0.00  0.00    +0.000 NA
ATOM     20  C   UNL     1       2.393  12.476  18.443  0.00  0.00    +0.000 C 
BRANCH  20  21
ATOM     21  C   UNL     1       2.269  13.947  18.364  0.00  0.00    +0.000 A 
ATOM     22  C   UNL     1       3.316  14.722  17.855  0.00  0.00    +0.000 A 
ATOM     23  C   UNL     1       3.188  16.110  17.801  0.00  0.00    +0.000 A 
ATOM     24  C   UNL     1       2.019  16.719  18.256  0.00  0.00    +0.000 A 
ATOM     25  C   UNL     1       0.971  15.944  18.753  0.00  0.00    +0.000 A 
ATOM     26  C   UNL     1       1.091  14.556  18.807  0.00  0.00    +0.000 A 
ENDBRANCH  20  21
ENDBRANCH  12  19
TORSDOF 3
ENDMDL
MODEL 6
REMARK VINA RESULT:      -7.7      1.203      7.191
REMARK  Name = 
REMARK  5 active torsions:
REMARK  status: ('A' for Active; 'I' for Inactive)
REMARK    1  A    between atoms: C_1  and  C_2
REMARK    2  A    between atoms: C_5  and  C_6
REMARK    3  A    between atoms: C_10  and  C_11
REMARK    4  A    between atoms: N_18  and  N_19
REMARK    5  A    between atoms: C_20  and  C_21
REMARK                            x       y       z     vdW  Elec       q    Type
REMARK                         _______ _______ _______ _____ _____    ______ ____
ROOT
ATOM      1  C   UNL     1       2.661   2.773  21.227  0.00  0.00    +0.000 C 
ATOM      2  C   UNL     1       2.295   3.854  20.238  0.00  0.00    +0.000 C 
ATOM      3  O   UNL     1       1.124   3.951  19.859  0.00  0.00    +0.000 OA
ATOM      4  N   UNL     1       3.347   4.648  19.782  0.00  0.00    +0.000 N 
ATOM      5  C   UNL     1       4.648   4.197  19.591  0.00  0.00    +0.000 C 
ATOM      6  C   UNL     1       5.757   5.229  19.502  0.00  0.00    +0.000 C 
ATOM      7  O   UNL     1       4.960   3.003  19.555  0.00  0.00    +0.000 OA
ATOM      8  C   UNL     1       2.950   5.885  19.288  0.00  0.00    +0.000 A 
ATOM      9  N   UNL     1       2.276   6.787  19.972  0.00  0.00    +0.000 NA
ATOM     10  C   UNL     1       2.057   7.831  19.111  0.00  0.00    +0.000 A 
ATOM     11  C   UNL     1       2.590   7.547  17.874  0.00  0.00    +0.000 A 
ATOM     12  N   UNL     1       3.194   6.316  17.986  0.00  0.00    +0.000 N 
ENDROOT
BRANCH  10  13
ATOM     13  C   UNL     1       1.337   9.035  19.500  0.00  0.00    +0.000 A 
ATOM     14  C   UNL     1       1.006   9.984  18.520  0.00  0.00    +0.000 A 
ATOM     15  C   UNL     1       0.326  11.156  18.859  0.00  0.00    +0.000 A 
ATOM     16  C   UNL     1      -0.034  11.395  20.182  0.00  0.00    +0.000 A 
ATOM     17  C   UNL     1       0.281  10.460  21.167  0.00  0.00    +0.000 A 
ATOM     18  C   UNL     1       0.961   9.285  20.828  0.00  0.00    +0.000 A 
ENDBRANCH  10  13
BRANCH  12  19
ATOM     19  N   UNL     1       3.833   5.571  17.036  0.00  0.00    +0.000 NA
ATOM     20  C   UNL     1       4.824   6.107  16.408  0.00  0.00    +0.000 C 
BRANCH  20  21
ATOM     21  C   UNL     1       5.525   5.376  15.332  0.00  0.00    +0.000 A 
ATOM     22  C   UNL     1       4.855   4.407  14.578  0.00  0.00    +0.000 A 
ATOM     23  C   UNL     1       5.534   3.717  13.574  0.00  0.00    +0.000 A 
ATOM     24  C   UNL     1       6.879   3.993  13.328  0.00  0.00    +0.000 A 
ATOM     25  C   UNL     1       7.544   4.968  14.074  0.00  0.00    +0.000 A 
ATOM     26  C   UNL     1       6.869   5.663  15.076  0.00  0.00    +0.000 A 
ENDBRANCH  20  21
ENDBRANCH  12  19
TORSDOF 3
ENDMDL
MODEL 7
REMARK VINA RESULT:      -7.5      1.230      7.200
REMARK  Name = 
REMARK  5 active torsions:
REMARK  status: ('A' for Active; 'I' for Inactive)
REMARK    1  A    between atoms: C_1  and  C_2
REMARK    2  A    between atoms: C_5  and  C_6
REMARK    3  A    between atoms: C_10  and  C_11
REMARK    4  A    between atoms: N_18  and  N_19
REMARK    5  A    between atoms: C_20  and  C_21
REMARK                            x       y       z     vdW  Elec       q    Type
REMARK                         _______ _______ _______ _____ _____    ______ ____
ROOT
ATOM      1  C   UNL     1       2.119   2.361  20.895  0.00  0.00    +0.000 C 
ATOM      2  C   UNL     1       1.901   3.573  20.021  0.00  0.00    +0.000 C 
ATOM      3  O   UNL     1       0.764   3.819  19.608  0.00  0.00    +0.000 OA
ATOM      4  N   UNL     1       3.040   4.311  19.702  0.00  0.00    +0.000 N 
ATOM      5  C   UNL     1       4.305   3.765  19.516  0.00  0.00    +0.000 C 
ATOM      6  C   UNL     1       5.503   4.694  19.591  0.00  0.00    +0.000 C 
ATOM      7  O   UNL     1       4.513   2.559  19.358  0.00  0.00    +0.000 OA
ATOM      8  C   UNL     1       2.779   5.626  19.336  0.00  0.00    +0.000 A 
ATOM      9  N   UNL     1       2.152   6.507  20.089  0.00  0.00    +0.000 NA
ATOM     10  C   UNL     1       2.069   7.654  19.344  0.00  0.00    +0.000 A 
ATOM     11  C   UNL     1       2.639   7.459  18.106  0.00  0.00    +0.000 A 
ATOM     12  N   UNL     1       3.126   6.172  18.102  0.00  0.00    +0.000 N 
ENDROOT
BRANCH  10  13
ATOM     13  C   UNL     1       1.438   8.870  19.836  0.00  0.00    +0.000 A 
ATOM     14  C   UNL     1       1.169   9.916  18.940  0.00  0.00    +0.000 A 
ATOM     15  C   UNL     1       0.575  11.101  19.380  0.00  0.00    +0.000 A 
ATOM     16  C   UNL     1       0.241  11.256  20.722  0.00  0.00    +0.000 A 
ATOM     17  C   UNL     1       0.494  10.225  21.624  0.00  0.00    +0.000 A 
ATOM     18  C   UNL     1       1.088   9.037  21.184  0.00  0.00    +0.000 A 
ENDBRANCH  10  13
BRANCH  12  19
ATOM     19  N   UNL     1       3.746   5.479  17.102  0.00  0.00    +0.000 NA
ATOM     20  C   UNL     1       4.829   5.971  16.602  0.00  0.00    +0.000 C 
BRANCH  20  21
ATOM     21  C   UNL     1       5.520   5.301  15.481  0.00  0.00    +0.000 A 
ATOM     22  C   UNL     1       6.891   5.490  15.277  0.00  0.00    +0.000 A 
ATOM     23  C   UNL     1       7.527   4.861  14.206  0.00  0.00    +0.000 A 
ATOM     24  C   UNL     1       6.792   4.050  13.341  0.00  0.00    +0.000 A 
ATOM     25  C   UNL     1       5.427   3.854  13.552  0.00  0.00    +0.000 A 
ATOM     26  C   UNL     1       4.787   4.477  14.622  0.00  0.00    +0.000 A 
ENDBRANCH  20  21
ENDBRANCH  12  19
TORSDOF 3
ENDMDL
MODEL 8
REMARK VINA RESULT:      -7.3      1.188      7.098
REMARK  Name = 
REMARK  5 active torsions:
REMARK  status: ('A' for Active; 'I' for Inactive)
REMARK    1  A    between atoms: C_1  and  C_2
REMARK    2  A    between atoms: C_5  and  C_6
REMARK    3  A    between atoms: C_10  and  C_11
REMARK    4  A    between atoms: N_18  and  N_19
REMARK    5  A    between atoms: C_20  and  C_21
REMARK                            x       y       z     vdW  Elec       q    Type
REMARK                         _______ _______ _______ _____ _____    ______ ____
ROOT
ATOM      1  C   UNL     1       1.352   1.987  18.891  0.00  0.00    +0.000 C 
ATOM      2  C   UNL     1       1.623   3.331  18.257  0.00  0.00    +0.000 C 
ATOM      3  O   UNL     1       0.756   3.845  17.543  0.00  0.00    +0.000 OA
ATOM      4  N   UNL     1       2.883   3.878  18.496  0.00  0.00    +0.000 N 
ATOM      5  C   UNL     1       4.049   3.135  18.640  0.00  0.00    +0.000 C 
ATOM      6  C   UNL     1       5.243   3.799  19.300  0.00  0.00    +0.000 C 
ATOM      7  O   UNL     1       4.146   1.946  18.322  0.00  0.00    +0.000 OA
ATOM      8  C   UNL     1       2.942   5.257  18.335  0.00  0.00    +0.000 A 
ATOM      9  N   UNL     1       2.200   6.124  18.995  0.00  0.00    +0.000 NA
ATOM     10  C   UNL     1       2.540   7.361  18.513  0.00  0.00    +0.000 A 
ATOM     11  C   UNL     1       3.493   7.240  17.526  0.00  0.00    +0.000 A 
ATOM     12  N   UNL     1       3.782   5.899  17.428  0.00  0.00    +0.000 N 
ENDROOT
BRANCH  10  13
ATOM     13  C   UNL     1       1.932   8.591  18.998  0.00  0.00    +0.000 A 
ATOM     14  C   UNL     1       1.445   8.645  20.313  0.00  0.00    +0.000 A 
ATOM     15  C   UNL     1       0.846   9.805  20.808  0.00  0.00    +0.000 A 
ATOM     16  C   UNL     1       0.725  10.928  19.995  0.00  0.00    +0.000 A 
ATOM     17  C   UNL     1       1.210  10.894  18.688  0.00  0.00    +0.000 A 
ATOM     18  C   UNL     1       1.812   9.733  18.193  0.00  0.00    +0.000 A 
ENDBRANCH  10  13
BRANCH  12  19
ATOM     19  N   UNL     1       4.631   5.251  16.576  0.00  0.00    +0.000 NA
ATOM     20  C   UNL     1       4.904   5.813  15.447  0.00  0.00    +0.000 C 
BRANCH  20  21
ATOM     21  C   UNL     1       5.773   5.143  14.457  0.00  0.00    +0.000 A 
ATOM     22  C   UNL     1       7.111   5.523  14.313  0.00  0.00    +0.000 A 
ATOM     23  C   UNL     1       7.914   4.890  13.364  0.00  0.00    +0.000 A 
ATOM     24  C   UNL     1       7.378   3.883  12.561  0.00  0.00    +0.000 A 
ATOM     25  C   UNL     1       6.046   3.497  12.713  0.00  0.00    +0.000 A 
ATOM     26  C   UNL     1       5.240   4.124  13.662  0.00  0.00    +0.000 A 
ENDBRANCH  20  21
ENDBRANCH  12  19
TORSDOF 3
ENDMDL
MODEL 9
REMARK VINA RESULT:      -7.3      1.251      7.225
REMARK  Name = 
REMARK  5 active torsions:
REMARK  status: ('A' for Active; 'I' for Inactive)
REMARK    1  A    between atoms: C_1  and  C_2
REMARK    2  A    between atoms: C_5  and  C_6
REMARK    3  A    between atoms: C_10  and  C_11
REMARK    4  A    between atoms: N_18  and  N_19
REMARK    5  A    between atoms: C_20  and  C_21
REMARK                            x       y       z     vdW  Elec       q    Type
REMARK                         _______ _______ _______ _____ _____    ______ ____
ROOT
ATOM      1  C   UNL     1       4.502   2.565  19.791  0.00  0.00    +0.000 C 
ATOM      2  C   UNL     1       3.885   3.704  19.015  0.00  0.00    +0.000 C 
ATOM      3  O   UNL     1       2.736   3.581  18.577  0.00  0.00    +0.000 OA
ATOM      4  N   UNL     1       4.700   4.817  18.810  0.00  0.00    +0.000 N 
ATOM      5  C   UNL     1       6.077   4.761  18.630  0.00  0.00    +0.000 C 
ATOM      6  C   UNL     1       6.877   6.034  18.836  0.00  0.00    +0.000 C 
ATOM      7  O   UNL     1       6.692   3.721  18.378  0.00  0.00    +0.000 OA
ATOM      8  C   UNL     1       4.001   5.990  18.547  0.00  0.00    +0.000 A 
ATOM      9  N   UNL     1       3.101   6.524  19.346  0.00  0.00    +0.000 NA
ATOM     10  C   UNL     1       2.632   7.638  18.701  0.00  0.00    +0.000 A 
ATOM     11  C   UNL     1       3.246   7.770  17.475  0.00  0.00    +0.000 A 
ATOM     12  N   UNL     1       4.150   6.737  17.381  0.00  0.00    +0.000 N 
ENDROOT
BRANCH  10  13
ATOM     13  C   UNL     1       1.614   8.509  19.269  0.00  0.00    +0.000 A 
ATOM     14  C   UNL     1       0.982   9.456  18.447  0.00  0.00    +0.000 A 
ATOM     15  C   UNL     1       0.009  10.315  18.962  0.00  0.00    +0.000 A 
ATOM     16  C   UNL     1      -0.347  10.240  20.305  0.00  0.00    +0.000 A 
ATOM     17  C   UNL     1       0.265   9.301  21.134  0.00  0.00    +0.000 A 
ATOM     18  C   UNL     1       1.239   8.439  20.618  0.00  0.00    +0.000 A 
ENDBRANCH  10  13
BRANCH  12  19
ATOM     19  N   UNL     1       4.980   6.399  16.351  0.00  0.00    +0.000 NA
ATOM     20  C   UNL     1       4.724   5.321  15.692  0.00  0.00    +0.000 C 
BRANCH  20  21
ATOM     21  C   UNL     1       5.612   4.868  14.601  0.00  0.00    +0.000 A 
ATOM     22  C   UNL     1       6.914   5.367  14.492  0.00  0.00    +0.000 A 
ATOM     23  C   UNL     1       7.736   4.939  13.449  0.00  0.00    +0.000 A 
ATOM     24  C   UNL     1       7.255   4.019  12.518  0.00  0.00    +0.000 A 
ATOM     25  C   UNL     1       5.959   3.514  12.634  0.00  0.00    +0.000 A 
ATOM     26  C   UNL     1       5.135   3.935  13.676  0.00  0.00    +0.000 A 
ENDBRANCH  20  21
ENDBRANCH  12  19
TORSDOF 3
ENDMDL
