MODEL 1
REMARK VINA RESULT:      -7.5      0.000      0.000
REMARK  Name = 
REMARK  8 active torsions:
REMARK  status: ('A' for Active; 'I' for Inactive)
REMARK    1  A    between atoms: C_1  and  C_2
REMARK    2  A    between atoms: C_2  and  C_3
REMARK    3  A    between atoms: C_2  and  C_4
REMARK    4  A    between atoms: C_4  and  N_5
REMARK    5  A    between atoms: N_5  and  C_22
REMARK    6  A    between atoms: C_6  and  C_8
REMARK    7  A    between atoms: C_8  and  N_9
REMARK    8  A    between atoms: C_10  and  C_11
REMARK                            x       y       z     vdW  Elec       q    Type
REMARK                         _______ _______ _______ _____ _____    ______ ____
ROOT
ATOM      1  N   UNL     1       1.536   8.876  19.274  0.00  0.00    +0.000 N 
ATOM      2  C   UNL     1       2.324   8.041  18.454  0.00  0.00    +0.000 C 
ATOM      3  O   UNL     1       2.594   8.369  17.293  0.00  0.00    +0.000 OA
ENDROOT
BRANCH   1   4
ATOM      4  C   UNL     1       1.518   8.708  20.749  0.00  0.00    +0.000 C 
ATOM      5  C   UNL     1       0.504   7.731  21.369  0.00  0.00    +0.000 C 
ATOM      6  C   UNL     1      -0.735   8.497  21.806  0.00  0.00    +0.000 C 
ATOM      7  S   UNL     1      -0.144  10.078  22.348  0.00  0.00    +0.000 S 
ATOM      8  O   UNL     1       0.146   9.999  23.765  0.00  0.00    +0.000 OA
ATOM      9  O   UNL     1      -0.987  11.111  21.785  0.00  0.00    +0.000 OA
ATOM     10  C   UNL     1       1.397  10.059  21.475  0.00  0.00    +0.000 C 
ENDBRANCH   1   4
BRANCH   1  11
ATOM     11  C   UNL     1       1.025  10.123  18.649  0.00  0.00    +0.000 C 
BRANCH  11  13
ATOM     12  C   UNL     1      -0.987  11.663  18.558  0.00  0.00    +0.000 C 
ATOM     13  C   UNL     1      -0.514  10.204  18.513  0.00  0.00    +0.000 C 
ATOM     14  C   UNL     1      -1.029   9.574  17.220  0.00  0.00    +0.000 C 
ENDBRANCH  11  13
ENDBRANCH   1  11
BRANCH   2  15
ATOM     15  C   UNL     1       2.929   6.749  19.013  0.00  0.00    +0.000 C 
BRANCH  15  16
ATOM     16  N   UNL     1       3.512   5.820  18.050  0.00  0.00    +0.000 N 
ATOM     17  C   UNL     1       2.943   4.637  17.573  0.00  0.00    +0.000 A 
ATOM     18  N   UNL     1       3.778   4.040  16.734  0.00  0.00    +0.000 NA
ATOM     19  C   UNL     1       4.927   4.770  16.736  0.00  0.00    +0.000 A 
ATOM     20  C   UNL     1       6.129   4.527  16.053  0.00  0.00    +0.000 A 
ATOM     21  C   UNL     1       7.190   5.422  16.214  0.00  0.00    +0.000 A 
ATOM     22  C   UNL     1       7.066   6.515  17.064  0.00  0.00    +0.000 A 
ATOM     23  C   UNL     1       5.887   6.747  17.778  0.00  0.00    +0.000 A 
ATOM     24  C   UNL     1       4.809   5.874  17.570  0.00  0.00    +0.000 A 
BRANCH  17  25
ATOM     25  C   UNL     1       1.596   4.074  17.938  0.00  0.00    +0.000 C 
ATOM     26  F   UNL     1       1.532   2.718  17.882  0.00  0.00    +0.000 F 
ATOM     27  F   UNL     1       1.241   4.408  19.205  0.00  0.00    +0.000 F 
ATOM     28  F   UNL     1       0.612   4.526  17.116  0.00  0.00    +0.000 F 
ENDBRANCH  17  25
ENDBRANCH  15  16
ENDBRANCH   2  15
TORSDOF 6
ENDMDL
MODEL 2
REMARK VINA RESULT:      -7.4      3.901      5.573
REMARK  Name = 
REMARK  8 active torsions:
REMARK  status: ('A' for Active; 'I' for Inactive)
REMARK    1  A    between atoms: C_1  and  C_2
REMARK    2  A    between atoms: C_2  and  C_3
REMARK    3  A    between atoms: C_2  and  C_4
REMARK    4  A    between atoms: C_4  and  N_5
REMARK    5  A    between atoms: N_5  and  C_22
REMARK    6  A    between atoms: C_6  and  C_8
REMARK    7  A    between atoms: C_8  and  N_9
REMARK    8  A    between atoms: C_10  and  C_11
REMARK                            x       y       z     vdW  Elec       q    Type
REMARK                         _______ _______ _______ _____ _____    ______ ____
ROOT
ATOM      1  N   UNL     1       2.901   4.471  17.871  0.00  0.00    +0.000 N 
ATOM      2  C   UNL     1       3.945   4.888  17.018  0.00  0.00    +0.000 C 
ATOM      3  O   UNL     1       3.997   6.052  16.606  0.00  0.00    +0.000 OA
ENDROOT
BRANCH   1   4
ATOM      4  C   UNL     1       3.017   3.230  18.676  0.00  0.00    +0.000 C 
ATOM      5  C   UNL     1       1.750   2.392  18.930  0.00  0.00    +0.000 C 
ATOM      6  C   UNL     1       1.151   2.774  20.274  0.00  0.00    +0.000 C 
ATOM      7  S   UNL     1       2.536   3.157  21.314  0.00  0.00    +0.000 S 
ATOM      8  O   UNL     1       2.949   1.945  21.991  0.00  0.00    +0.000 OA
ATOM      9  O   UNL     1       2.261   4.387  22.024  0.00  0.00    +0.000 OA
ATOM     10  C   UNL     1       3.706   3.488  20.027  0.00  0.00    +0.000 C 
ENDBRANCH   1   4
BRANCH   1  11
ATOM     11  C   UNL     1       1.866   5.488  18.194  0.00  0.00    +0.000 C 
BRANCH  11  13
ATOM     12  C   UNL     1       2.126   8.009  18.125  0.00  0.00    +0.000 C 
ATOM     13  C   UNL     1       2.388   6.738  18.943  0.00  0.00    +0.000 C 
ATOM     14  C   UNL     1       1.748   6.914  20.319  0.00  0.00    +0.000 C 
ENDBRANCH  11  13
ENDBRANCH   1  11
BRANCH   2  15
ATOM     15  C   UNL     1       5.081   3.927  16.652  0.00  0.00    +0.000 C 
BRANCH  15  16
ATOM     16  N   UNL     1       6.128   4.443  15.776  0.00  0.00    +0.000 N 
ATOM     17  C   UNL     1       7.118   5.370  16.105  0.00  0.00    +0.000 A 
ATOM     18  N   UNL     1       7.872   5.623  15.044  0.00  0.00    +0.000 NA
ATOM     19  C   UNL     1       7.322   4.944  14.000  0.00  0.00    +0.000 A 
ATOM     20  C   UNL     1       7.719   4.923  12.654  0.00  0.00    +0.000 A 
ATOM     21  C   UNL     1       6.990   4.149  11.747  0.00  0.00    +0.000 A 
ATOM     22  C   UNL     1       5.871   3.439  12.168  0.00  0.00    +0.000 A 
ATOM     23  C   UNL     1       5.444   3.482  13.499  0.00  0.00    +0.000 A 
ATOM     24  C   UNL     1       6.213   4.218  14.412  0.00  0.00    +0.000 A 
BRANCH  17  25
ATOM     25  C   UNL     1       7.329   6.027  17.443  0.00  0.00    +0.000 C 
ATOM     26  F   UNL     1       6.180   6.417  18.054  0.00  0.00    +0.000 F 
ATOM     27  F   UNL     1       7.947   5.192  18.318  0.00  0.00    +0.000 F 
ATOM     28  F   UNL     1       8.097   7.145  17.349  0.00  0.00    +0.000 F 
ENDBRANCH  17  25
ENDBRANCH  15  16
ENDBRANCH   2  15
TORSDOF 6
ENDMDL
MODEL 3
REMARK VINA RESULT:      -7.2      3.917      5.411
REMARK  Name = 
REMARK  8 active torsions:
REMARK  status: ('A' for Active; 'I' for Inactive)
REMARK    1  A    between atoms: C_1  and  C_2
REMARK    2  A    between atoms: C_2  and  C_3
REMARK    3  A    between atoms: C_2  and  C_4
REMARK    4  A    between atoms: C_4  and  N_5
REMARK    5  A    between atoms: N_5  and  C_22
REMARK    6  A    between atoms: C_6  and  C_8
REMARK    7  A    between atoms: C_8  and  N_9
REMARK    8  A    between atoms: C_10  and  C_11
REMARK                            x       y       z     vdW  Elec       q    Type
REMARK                         _______ _______ _______ _____ _____    ______ ____
ROOT
ATOM      1  N   UNL     1       3.132   5.387  18.397  0.00  0.00    +0.000 N 
ATOM      2  C   UNL     1       4.003   5.526  17.296  0.00  0.00    +0.000 C 
ATOM      3  O   UNL     1       3.848   6.441  16.479  0.00  0.00    +0.000 OA
ENDROOT
BRANCH   1   4
ATOM      4  C   UNL     1       3.508   4.566  19.575  0.00  0.00    +0.000 C 
ATOM      5  C   UNL     1       3.926   3.101  19.351  0.00  0.00    +0.000 C 
ATOM      6  C   UNL     1       2.723   2.194  19.559  0.00  0.00    +0.000 C 
ATOM      7  S   UNL     1       1.772   2.962  20.843  0.00  0.00    +0.000 S 
ATOM      8  O   UNL     1       2.219   2.443  22.119  0.00  0.00    +0.000 OA
ATOM      9  O   UNL     1       0.378   2.968  20.453  0.00  0.00    +0.000 OA
ATOM     10  C   UNL     1       2.422   4.600  20.664  0.00  0.00    +0.000 C 
ENDBRANCH   1   4
BRANCH   1  11
ATOM     11  C   UNL     1       2.014   6.362  18.481  0.00  0.00    +0.000 C 
BRANCH  11  13
ATOM     12  C   UNL     1       2.056   8.854  18.017  0.00  0.00    +0.000 C 
ATOM     13  C   UNL     1       2.401   7.756  19.031  0.00  0.00    +0.000 C 
ATOM     14  C   UNL     1       1.705   8.086  20.350  0.00  0.00    +0.000 C 
ENDBRANCH  11  13
ENDBRANCH   1  11
BRANCH   2  15
ATOM     15  C   UNL     1       5.209   4.593  17.135  0.00  0.00    +0.000 C 
BRANCH  15  16
ATOM     16  N   UNL     1       6.200   4.960  16.129  0.00  0.00    +0.000 N 
ATOM     17  C   UNL     1       7.198   5.929  16.247  0.00  0.00    +0.000 A 
ATOM     18  N   UNL     1       7.890   6.006  15.118  0.00  0.00    +0.000 NA
ATOM     19  C   UNL     1       7.289   5.166  14.231  0.00  0.00    +0.000 A 
ATOM     20  C   UNL     1       7.611   4.926  12.886  0.00  0.00    +0.000 A 
ATOM     21  C   UNL     1       6.840   4.014  12.160  0.00  0.00    +0.000 A 
ATOM     22  C   UNL     1       5.753   3.382  12.752  0.00  0.00    +0.000 A 
ATOM     23  C   UNL     1       5.400   3.641  14.080  0.00  0.00    +0.000 A 
ATOM     24  C   UNL     1       6.211   4.517  14.818  0.00  0.00    +0.000 A 
BRANCH  17  25
ATOM     25  C   UNL     1       7.477   6.795  17.446  0.00  0.00    +0.000 C 
ATOM     26  F   UNL     1       8.099   6.145  18.464  0.00  0.00    +0.000 F 
ATOM     27  F   UNL     1       8.283   7.841  17.130  0.00  0.00    +0.000 F 
ATOM     28  F   UNL     1       6.339   7.315  17.977  0.00  0.00    +0.000 F 
ENDBRANCH  17  25
ENDBRANCH  15  16
ENDBRANCH   2  15
TORSDOF 6
ENDMDL
MODEL 4
REMARK VINA RESULT:      -7.1      1.920      2.245
REMARK  Name = 
REMARK  8 active torsions:
REMARK  status: ('A' for Active; 'I' for Inactive)
REMARK    1  A    between atoms: C_1  and  C_2
REMARK    2  A    between atoms: C_2  and  C_3
REMARK    3  A    between atoms: C_2  and  C_4
REMARK    4  A    between atoms: C_4  and  N_5
REMARK    5  A    between atoms: N_5  and  C_22
REMARK    6  A    between atoms: C_6  and  C_8
REMARK    7  A    between atoms: C_8  and  N_9
REMARK    8  A    between atoms: C_10  and  C_11
REMARK                            x       y       z     vdW  Elec       q    Type
REMARK                         _______ _______ _______ _____ _____    ______ ____
ROOT
ATOM      1  N   UNL     1       0.660   9.864  18.956  0.00  0.00    +0.000 N 
ATOM      2  C   UNL     1       1.421   8.809  18.409  0.00  0.00    +0.000 C 
ATOM      3  O   UNL     1       1.390   8.570  17.197  0.00  0.00    +0.000 OA
ENDROOT
BRANCH   1   4
ATOM      4  C   UNL     1       0.964  10.413  20.301  0.00  0.00    +0.000 C 
ATOM      5  C   UNL     1      -0.005  10.111  21.458  0.00  0.00    +0.000 C 
ATOM      6  C   UNL     1      -0.987  11.262  21.610  0.00  0.00    +0.000 C 
ATOM      7  S   UNL     1      -0.069  12.722  21.196  0.00  0.00    +0.000 S 
ATOM      8  O   UNL     1       0.530  13.246  22.406  0.00  0.00    +0.000 OA
ATOM      9  O   UNL     1      -0.866  13.539  20.308  0.00  0.00    +0.000 OA
ATOM     10  C   UNL     1       1.207  11.932  20.255  0.00  0.00    +0.000 C 
ENDBRANCH   1   4
BRANCH   1  11
ATOM     11  C   UNL     1      -0.198  10.620  18.007  0.00  0.00    +0.000 C 
BRANCH  11  13
ATOM     12  C   UNL     1      -2.588  11.328  18.470  0.00  0.00    +0.000 C 
ATOM     13  C   UNL     1      -1.684  10.188  17.983  0.00  0.00    +0.000 C 
ATOM     14  C   UNL     1      -2.156   9.765  16.593  0.00  0.00    +0.000 C 
ENDBRANCH  11  13
ENDBRANCH   1  11
BRANCH   2  15
ATOM     15  C   UNL     1       2.366   7.991  19.296  0.00  0.00    +0.000 C 
BRANCH  15  16
ATOM     16  N   UNL     1       2.739   6.663  18.818  0.00  0.00    +0.000 N 
ATOM     17  C   UNL     1       2.389   5.437  19.385  0.00  0.00    +0.000 A 
ATOM     18  N   UNL     1       2.936   4.446  18.695  0.00  0.00    +0.000 NA
ATOM     19  C   UNL     1       3.722   5.019  17.740  0.00  0.00    +0.000 A 
ATOM     20  C   UNL     1       4.548   4.400  16.790  0.00  0.00    +0.000 A 
ATOM     21  C   UNL     1       5.276   5.200  15.905  0.00  0.00    +0.000 A 
ATOM     22  C   UNL     1       5.206   6.586  15.990  0.00  0.00    +0.000 A 
ATOM     23  C   UNL     1       4.415   7.214  16.956  0.00  0.00    +0.000 A 
ATOM     24  C   UNL     1       3.647   6.403  17.805  0.00  0.00    +0.000 A 
BRANCH  17  25
ATOM     25  C   UNL     1       1.537   5.219  20.606  0.00  0.00    +0.000 C 
ATOM     26  F   UNL     1       2.228   4.780  21.691  0.00  0.00    +0.000 F 
ATOM     27  F   UNL     1       0.923   6.365  20.999  0.00  0.00    +0.000 F 
ATOM     28  F   UNL     1       0.560   4.298  20.391  0.00  0.00    +0.000 F 
ENDBRANCH  17  25
ENDBRANCH  15  16
ENDBRANCH   2  15
TORSDOF 6
ENDMDL
MODEL 5
REMARK VINA RESULT:      -7.1      1.392      1.710
REMARK  Name = 
REMARK  8 active torsions:
REMARK  status: ('A' for Active; 'I' for Inactive)
REMARK    1  A    between atoms: C_1  and  C_2
REMARK    2  A    between atoms: C_2  and  C_3
REMARK    3  A    between atoms: C_2  and  C_4
REMARK    4  A    between atoms: C_4  and  N_5
REMARK    5  A    between atoms: N_5  and  C_22
REMARK    6  A    between atoms: C_6  and  C_8
REMARK    7  A    between atoms: C_8  and  N_9
REMARK    8  A    between atoms: C_10  and  C_11
REMARK                            x       y       z     vdW  Elec       q    Type
REMARK                         _______ _______ _______ _____ _____    ______ ____
ROOT
ATOM      1  N   UNL     1       1.137   9.434  19.191  0.00  0.00    +0.000 N 
ATOM      2  C   UNL     1       1.913   8.430  18.575  0.00  0.00    +0.000 C 
ATOM      3  O   UNL     1       2.087   8.428  17.351  0.00  0.00    +0.000 OA
ENDROOT
BRANCH   1   4
ATOM      4  C   UNL     1       1.228   9.685  20.652  0.00  0.00    +0.000 C 
ATOM      5  C   UNL     1       0.529   8.708  21.614  0.00  0.00    +0.000 C 
ATOM      6  C   UNL     1      -0.846   9.247  21.975  0.00  0.00    +0.000 C 
ATOM      7  S   UNL     1      -0.662  11.010  22.018  0.00  0.00    +0.000 S 
ATOM      8  O   UNL     1      -0.301  11.401  23.365  0.00  0.00    +0.000 OA
ATOM      9  O   UNL     1      -1.769  11.613  21.306  0.00  0.00    +0.000 OA
ATOM     10  C   UNL     1       0.791  11.116  21.012  0.00  0.00    +0.000 C 
ENDBRANCH   1   4
BRANCH   1  11
ATOM     11  C   UNL     1       0.518  10.438  18.288  0.00  0.00    +0.000 C 
BRANCH  11  13
ATOM     12  C   UNL     1      -1.622  11.781  18.077  0.00  0.00    +0.000 C 
ATOM     13  C   UNL     1      -1.025  10.372  18.197  0.00  0.00    +0.000 C 
ATOM     14  C   UNL     1      -1.514   9.544  17.009  0.00  0.00    +0.000 C 
ENDBRANCH  11  13
ENDBRANCH   1  11
BRANCH   2  15
ATOM     15  C   UNL     1       2.624   7.367  19.419  0.00  0.00    +0.000 C 
BRANCH  15  16
ATOM     16  N   UNL     1       2.914   6.091  18.772  0.00  0.00    +0.000 N 
ATOM     17  C   UNL     1       2.499   4.825  19.187  0.00  0.00    +0.000 A 
ATOM     18  N   UNL     1       2.981   3.900  18.368  0.00  0.00    +0.000 NA
ATOM     19  C   UNL     1       3.789   4.543  17.480  0.00  0.00    +0.000 A 
ATOM     20  C   UNL     1       4.569   4.003  16.446  0.00  0.00    +0.000 A 
ATOM     21  C   UNL     1       5.333   4.866  15.656  0.00  0.00    +0.000 A 
ATOM     22  C   UNL     1       5.345   6.232  15.915  0.00  0.00    +0.000 A 
ATOM     23  C   UNL     1       4.601   6.777  16.966  0.00  0.00    +0.000 A 
ATOM     24  C   UNL     1       3.795   5.910  17.720  0.00  0.00    +0.000 A 
BRANCH  17  25
ATOM     25  C   UNL     1       1.647   4.503  20.385  0.00  0.00    +0.000 C 
ATOM     26  F   UNL     1       0.502   5.232  20.460  0.00  0.00    +0.000 F 
ATOM     27  F   UNL     1       1.257   3.203  20.386  0.00  0.00    +0.000 F 
ATOM     28  F   UNL     1       2.304   4.723  21.554  0.00  0.00    +0.000 F 
ENDBRANCH  17  25
ENDBRANCH  15  16
ENDBRANCH   2  15
TORSDOF 6
ENDMDL
MODEL 6
REMARK VINA RESULT:      -7.1      2.030      3.356
REMARK  Name = 
REMARK  8 active torsions:
REMARK  status: ('A' for Active; 'I' for Inactive)
REMARK    1  A    between atoms: C_1  and  C_2
REMARK    2  A    between atoms: C_2  and  C_3
REMARK    3  A    between atoms: C_2  and  C_4
REMARK    4  A    between atoms: C_4  and  N_5
REMARK    5  A    between atoms: N_5  and  C_22
REMARK    6  A    between atoms: C_6  and  C_8
REMARK    7  A    between atoms: C_8  and  N_9
REMARK    8  A    between atoms: C_10  and  C_11
REMARK                            x       y       z     vdW  Elec       q    Type
REMARK                         _______ _______ _______ _____ _____    ______ ____
ROOT
ATOM      1  N   UNL     1       1.532   8.701  19.181  0.00  0.00    +0.000 N 
ATOM      2  C   UNL     1       2.511   8.098  18.365  0.00  0.00    +0.000 C 
ATOM      3  O   UNL     1       2.660   8.453  17.190  0.00  0.00    +0.000 OA
ENDROOT
BRANCH   1   4
ATOM      4  C   UNL     1       1.584   8.581  20.660  0.00  0.00    +0.000 C 
ATOM      5  C   UNL     1       0.641   7.582  21.354  0.00  0.00    +0.000 C 
ATOM      6  C   UNL     1      -0.610   8.307  21.821  0.00  0.00    +0.000 C 
ATOM      7  S   UNL     1      -0.067   9.929  22.288  0.00  0.00    +0.000 S 
ATOM      8  O   UNL     1       0.287   9.909  23.692  0.00  0.00    +0.000 OA
ATOM      9  O   UNL     1      -0.978  10.906  21.731  0.00  0.00    +0.000 OA
ATOM     10  C   UNL     1       1.435   9.948  21.349  0.00  0.00    +0.000 C 
ENDBRANCH   1   4
BRANCH   1  11
ATOM     11  C   UNL     1       0.679   9.733  18.536  0.00  0.00    +0.000 C 
BRANCH  11  13
ATOM     12  C   UNL     1       2.269  11.648  18.054  0.00  0.00    +0.000 C 
ATOM     13  C   UNL     1       1.054  11.196  18.875  0.00  0.00    +0.000 C 
ATOM     14  C   UNL     1      -0.090  12.176  18.616  0.00  0.00    +0.000 C 
ENDBRANCH  11  13
ENDBRANCH   1  11
BRANCH   2  15
ATOM     15  C   UNL     1       3.466   7.047  18.942  0.00  0.00    +0.000 C 
BRANCH  15  16
ATOM     16  N   UNL     1       3.458   5.729  18.315  0.00  0.00    +0.000 N 
ATOM     17  C   UNL     1       4.204   5.321  17.208  0.00  0.00    +0.000 A 
ATOM     18  N   UNL     1       3.912   4.064  16.903  0.00  0.00    +0.000 NA
ATOM     19  C   UNL     1       2.908   3.680  17.740  0.00  0.00    +0.000 A 
ATOM     20  C   UNL     1       2.217   2.460  17.785  0.00  0.00    +0.000 A 
ATOM     21  C   UNL     1       1.207   2.292  18.737  0.00  0.00    +0.000 A 
ATOM     22  C   UNL     1       0.873   3.330  19.599  0.00  0.00    +0.000 A 
ATOM     23  C   UNL     1       1.530   4.562  19.538  0.00  0.00    +0.000 A 
ATOM     24  C   UNL     1       2.577   4.704  18.616  0.00  0.00    +0.000 A 
BRANCH  17  25
ATOM     25  C   UNL     1       5.192   6.150  16.432  0.00  0.00    +0.000 C 
ATOM     26  F   UNL     1       6.036   6.876  17.210  0.00  0.00    +0.000 F 
ATOM     27  F   UNL     1       5.987   5.377  15.648  0.00  0.00    +0.000 F 
ATOM     28  F   UNL     1       4.578   7.046  15.614  0.00  0.00    +0.000 F 
ENDBRANCH  17  25
ENDBRANCH  15  16
ENDBRANCH   2  15
TORSDOF 6
ENDMDL
MODEL 7
REMARK VINA RESULT:      -7.0      2.015      3.249
REMARK  Name = 
REMARK  8 active torsions:
REMARK  status: ('A' for Active; 'I' for Inactive)
REMARK    1  A    between atoms: C_1  and  C_2
REMARK    2  A    between atoms: C_2  and  C_3
REMARK    3  A    between atoms: C_2  and  C_4
REMARK    4  A    between atoms: C_4  and  N_5
REMARK    5  A    between atoms: N_5  and  C_22
REMARK    6  A    between atoms: C_6  and  C_8
REMARK    7  A    between atoms: C_8  and  N_9
REMARK    8  A    between atoms: C_10  and  C_11
REMARK                            x       y       z     vdW  Elec       q    Type
REMARK                         _______ _______ _______ _____ _____    ______ ____
ROOT
ATOM      1  N   UNL     1       1.416   9.059  19.168  0.00  0.00    +0.000 N 
ATOM      2  C   UNL     1       2.337   8.304  18.411  0.00  0.00    +0.000 C 
ATOM      3  O   UNL     1       2.517   8.545  17.212  0.00  0.00    +0.000 OA
ENDROOT
BRANCH   1   4
ATOM      4  C   UNL     1       1.459   9.058  20.652  0.00  0.00    +0.000 C 
ATOM      5  C   UNL     1       0.610   8.026  21.415  0.00  0.00    +0.000 C 
ATOM      6  C   UNL     1      -0.714   8.657  21.817  0.00  0.00    +0.000 C 
ATOM      7  S   UNL     1      -0.341  10.356  22.159  0.00  0.00    +0.000 S 
ATOM      8  O   UNL     1      -0.007  10.479  23.563  0.00  0.00    +0.000 OA
ATOM      9  O   UNL     1      -1.336  11.191  21.522  0.00  0.00    +0.000 OA
ATOM     10  C   UNL     1       1.165  10.452  21.231  0.00  0.00    +0.000 C 
ENDBRANCH   1   4
BRANCH   1  11
ATOM     11  C   UNL     1       0.659  10.105  18.434  0.00  0.00    +0.000 C 
BRANCH  11  13
ATOM     12  C   UNL     1      -1.661  11.106  18.646  0.00  0.00    +0.000 C 
ATOM     13  C   UNL     1      -0.861   9.843  18.303  0.00  0.00    +0.000 C 
ATOM     14  C   UNL     1      -1.264   9.386  16.902  0.00  0.00    +0.000 C 
ENDBRANCH  11  13
ENDBRANCH   1  11
BRANCH   2  15
ATOM     15  C   UNL     1       3.194   7.224  19.081  0.00  0.00    +0.000 C 
BRANCH  15  16
ATOM     16  N   UNL     1       3.258   5.925  18.419  0.00  0.00    +0.000 N 
ATOM     17  C   UNL     1       4.058   5.575  17.330  0.00  0.00    +0.000 A 
ATOM     18  N   UNL     1       3.824   4.317  16.981  0.00  0.00    +0.000 NA
ATOM     19  C   UNL     1       2.806   3.874  17.771  0.00  0.00    +0.000 A 
ATOM     20  C   UNL     1       2.160   2.628  17.760  0.00  0.00    +0.000 A 
ATOM     21  C   UNL     1       1.125   2.397  18.670  0.00  0.00    +0.000 A 
ATOM     22  C   UNL     1       0.721   3.398  19.546  0.00  0.00    +0.000 A 
ATOM     23  C   UNL     1       1.333   4.655  19.541  0.00  0.00    +0.000 A 
ATOM     24  C   UNL     1       2.407   4.861  18.662  0.00  0.00    +0.000 A 
BRANCH  17  25
ATOM     25  C   UNL     1       5.040   6.461  16.612  0.00  0.00    +0.000 C 
ATOM     26  F   UNL     1       5.592   7.423  17.396  0.00  0.00    +0.000 F 
ATOM     27  F   UNL     1       6.083   5.749  16.112  0.00  0.00    +0.000 F 
ATOM     28  F   UNL     1       4.470   7.116  15.566  0.00  0.00    +0.000 F 
ENDBRANCH  17  25
ENDBRANCH  15  16
ENDBRANCH   2  15
TORSDOF 6
ENDMDL
MODEL 8
REMARK VINA RESULT:      -6.9      0.596      1.264
REMARK  Name = 
REMARK  8 active torsions:
REMARK  status: ('A' for Active; 'I' for Inactive)
REMARK    1  A    between atoms: C_1  and  C_2
REMARK    2  A    between atoms: C_2  and  C_3
REMARK    3  A    between atoms: C_2  and  C_4
REMARK    4  A    between atoms: C_4  and  N_5
REMARK    5  A    between atoms: N_5  and  C_22
REMARK    6  A    between atoms: C_6  and  C_8
REMARK    7  A    between atoms: C_8  and  N_9
REMARK    8  A    between atoms: C_10  and  C_11
REMARK                            x       y       z     vdW  Elec       q    Type
REMARK                         _______ _______ _______ _____ _____    ______ ____
ROOT
ATOM      1  N   UNL     1       1.470   8.794  19.154  0.00  0.00    +0.000 N 
ATOM      2  C   UNL     1       2.345   8.025  18.358  0.00  0.00    +0.000 C 
ATOM      3  O   UNL     1       2.554   8.327  17.177  0.00  0.00    +0.000 OA
ENDROOT
BRANCH   1   4
ATOM      4  C   UNL     1       1.496   8.699  20.635  0.00  0.00    +0.000 C 
ATOM      5  C   UNL     1       0.544   7.707  21.328  0.00  0.00    +0.000 C 
ATOM      6  C   UNL     1      -0.719   8.435  21.761  0.00  0.00    +0.000 C 
ATOM      7  S   UNL     1      -0.191  10.067  22.210  0.00  0.00    +0.000 S 
ATOM      8  O   UNL     1       0.137  10.071  23.621  0.00  0.00    +0.000 OA
ATOM      9  O   UNL     1      -1.096  11.030  21.620  0.00  0.00    +0.000 OA
ATOM     10  C   UNL     1       1.328  10.077  21.298  0.00  0.00    +0.000 C 
ENDBRANCH   1   4
BRANCH   1  11
ATOM     11  C   UNL     1       0.796   9.935  18.482  0.00  0.00    +0.000 C 
BRANCH  11  13
ATOM     12  C   UNL     1       2.519  11.701  17.901  0.00  0.00    +0.000 C 
ATOM     13  C   UNL     1       1.361  11.331  18.837  0.00  0.00    +0.000 C 
ATOM     14  C   UNL     1       0.309  12.435  18.755  0.00  0.00    +0.000 C 
ENDBRANCH  11  13
ENDBRANCH   1  11
BRANCH   2  15
ATOM     15  C   UNL     1       3.117   6.849  18.964  0.00  0.00    +0.000 C 
BRANCH  15  16
ATOM     16  N   UNL     1       3.647   5.855  18.036  0.00  0.00    +0.000 N 
ATOM     17  C   UNL     1       3.019   4.683  17.611  0.00  0.00    +0.000 A 
ATOM     18  N   UNL     1       3.818   4.014  16.791  0.00  0.00    +0.000 NA
ATOM     19  C   UNL     1       5.000   4.689  16.755  0.00  0.00    +0.000 A 
ATOM     20  C   UNL     1       6.183   4.362  16.073  0.00  0.00    +0.000 A 
ATOM     21  C   UNL     1       7.286   5.212  16.190  0.00  0.00    +0.000 A 
ATOM     22  C   UNL     1       7.221   6.343  16.996  0.00  0.00    +0.000 A 
ATOM     23  C   UNL     1       6.061   6.659  17.709  0.00  0.00    +0.000 A 
ATOM     24  C   UNL     1       4.941   5.830  17.544  0.00  0.00    +0.000 A 
BRANCH  17  25
ATOM     25  C   UNL     1       1.651   4.198  18.008  0.00  0.00    +0.000 C 
ATOM     26  F   UNL     1       1.289   4.542  19.272  0.00  0.00    +0.000 F 
ATOM     27  F   UNL     1       0.686   4.704  17.198  0.00  0.00    +0.000 F 
ATOM     28  F   UNL     1       1.551   2.844  17.949  0.00  0.00    +0.000 F 
ENDBRANCH  17  25
ENDBRANCH  15  16
ENDBRANCH   2  15
TORSDOF 6
ENDMDL
MODEL 9
REMARK VINA RESULT:      -6.8      3.417      7.446
REMARK  Name = 
REMARK  8 active torsions:
REMARK  status: ('A' for Active; 'I' for Inactive)
REMARK    1  A    between atoms: C_1  and  C_2
REMARK    2  A    between atoms: C_2  and  C_3
REMARK    3  A    between atoms: C_2  and  C_4
REMARK    4  A    between atoms: C_4  and  N_5
REMARK    5  A    between atoms: N_5  and  C_22
REMARK    6  A    between atoms: C_6  and  C_8
REMARK    7  A    between atoms: C_8  and  N_9
REMARK    8  A    between atoms: C_10  and  C_11
REMARK                            x       y       z     vdW  Elec       q    Type
REMARK                         _______ _______ _______ _____ _____    ______ ____
ROOT
ATOM      1  N   UNL     1       2.131   5.530  19.113  0.00  0.00    +0.000 N 
ATOM      2  C   UNL     1       1.508   6.248  20.156  0.00  0.00    +0.000 C 
ATOM      3  O   UNL     1       0.540   5.772  20.760  0.00  0.00    +0.000 OA
ENDROOT
BRANCH   1   4
ATOM      4  C   UNL     1       3.494   5.885  18.644  0.00  0.00    +0.000 C 
ATOM      5  C   UNL     1       3.913   5.482  17.219  0.00  0.00    +0.000 C 
ATOM      6  C   UNL     1       4.669   4.163  17.267  0.00  0.00    +0.000 C 
ATOM      7  S   UNL     1       5.571   4.194  18.794  0.00  0.00    +0.000 S 
ATOM      8  O   UNL     1       6.872   4.779  18.546  0.00  0.00    +0.000 OA
ATOM      9  O   UNL     1       5.407   2.919  19.459  0.00  0.00    +0.000 OA
ATOM     10  C   UNL     1       4.578   5.404  19.623  0.00  0.00    +0.000 C 
ENDBRANCH   1   4
BRANCH   1  11
ATOM     11  C   UNL     1       1.531   4.216  18.765  0.00  0.00    +0.000 C 
BRANCH  11  13
ATOM     12  C   UNL     1       1.222   2.649  20.734  0.00  0.00    +0.000 C 
ATOM     13  C   UNL     1       2.112   3.006  19.536  0.00  0.00    +0.000 C 
ATOM     14  C   UNL     1       2.260   1.762  18.662  0.00  0.00    +0.000 C 
ENDBRANCH  11  13
ENDBRANCH   1  11
BRANCH   2  15
ATOM     15  C   UNL     1       2.071   7.597  20.615  0.00  0.00    +0.000 C 
BRANCH  15  16
ATOM     16  N   UNL     1       1.236   8.773  20.393  0.00  0.00    +0.000 N 
ATOM     17  C   UNL     1       1.160   9.542  19.230  0.00  0.00    +0.000 A 
ATOM     18  N   UNL     1       0.317  10.550  19.409  0.00  0.00    +0.000 NA
ATOM     19  C   UNL     1      -0.081  10.504  20.711  0.00  0.00    +0.000 A 
ATOM     20  C   UNL     1      -0.929  11.380  21.405  0.00  0.00    +0.000 A 
ATOM     21  C   UNL     1      -1.194  11.135  22.755  0.00  0.00    +0.000 A 
ATOM     22  C   UNL     1      -0.598  10.060  23.405  0.00  0.00    +0.000 A 
ATOM     23  C   UNL     1       0.277   9.202  22.733  0.00  0.00    +0.000 A 
ATOM     24  C   UNL     1       0.495   9.424  21.365  0.00  0.00    +0.000 A 
BRANCH  17  25
ATOM     25  C   UNL     1       1.912   9.313  17.948  0.00  0.00    +0.000 C 
ATOM     26  F   UNL     1       3.191   8.889  18.126  0.00  0.00    +0.000 F 
ATOM     27  F   UNL     1       1.314   8.366  17.179  0.00  0.00    +0.000 F 
ATOM     28  F   UNL     1       1.996  10.441  17.195  0.00  0.00    +0.000 F 
ENDBRANCH  17  25
ENDBRANCH  15  16
ENDBRANCH   2  15
TORSDOF 6
ENDMDL
