MODEL 1
REMARK VINA RESULT:      -8.0      0.000      0.000
REMARK  Name = 
REMARK  10 active torsions:
REMARK  status: ('A' for Active; 'I' for Inactive)
REMARK    1  A    between atoms: C_1  and  C_2
REMARK    2  A    between atoms: C_2  and  C_3
REMARK    3  A    between atoms: C_3  and  C_4
REMARK    4  A    between atoms: C_5  and  C_6
REMARK    5  A    between atoms: C_8  and  C_9
REMARK    6  A    between atoms: C_12  and  C_13
REMARK    7  A    between atoms: C_13  and  O_14
REMARK    8  A    between atoms: C_13  and  C_15
REMARK    9  A    between atoms: C_15  and  N_16
REMARK   10  A    between atoms: C_23  and  C_24
REMARK                            x       y       z     vdW  Elec       q    Type
REMARK                         _______ _______ _______ _____ _____    ______ ____
ROOT
ATOM      1  C   UNL     1       1.572   7.742  20.550  0.00  0.00    +0.000 A 
ATOM      2  N   UNL     1       2.291   7.867  19.455  0.00  0.00    +0.000 NA
ATOM      3  C   UNL     1       2.619   6.564  19.150  0.00  0.00    +0.000 A 
ATOM      4  N   UNL     1       2.052   5.657  19.960  0.00  0.00    +0.000 NA
ATOM      5  O   UNL     1       1.387   6.430  20.897  0.00  0.00    +0.000 OA
ENDROOT
BRANCH   3   6
ATOM      6  C   UNL     1       3.546   6.212  18.086  0.00  0.00    +0.000 A 
ATOM      7  C   UNL     1       3.823   4.870  17.802  0.00  0.00    +0.000 A 
ATOM      8  C   UNL     1       4.685   4.529  16.757  0.00  0.00    +0.000 A 
ATOM      9  C   UNL     1       5.293   5.525  15.981  0.00  0.00    +0.000 A 
ATOM     10  C   UNL     1       5.006   6.868  16.260  0.00  0.00    +0.000 A 
ATOM     11  C   UNL     1       4.141   7.209  17.300  0.00  0.00    +0.000 A 
BRANCH   9  12
ATOM     12  C   UNL     1       6.222   5.148  14.850  0.00  0.00    +0.000 C 
BRANCH  12  13
ATOM     13  O   UNL     1       7.539   5.546  15.233  0.00  0.00    +0.000 OA
ATOM     14  H   UNL     1       8.139   4.823  14.984  0.00  0.00    +0.000 HD
ENDBRANCH  12  13
BRANCH  12  15
ATOM     15  C   UNL     1       6.141   3.639  14.500  0.00  0.00    +0.000 C 
BRANCH  15  16
ATOM     16  N   UNL     1       6.215   3.383  13.056  0.00  0.00    +0.000 NA
ATOM     17  H   UNL     1       5.330   2.984  12.736  0.00  0.00    +0.000 HD
ATOM     18  H   UNL     1       6.925   2.674  12.874  0.00  0.00    +0.000 HD
ENDBRANCH  15  16
ENDBRANCH  12  15
ENDBRANCH   9  12
ENDBRANCH   3   6
BRANCH   1  20
ATOM     19  C   UNL     1       0.078   9.837  20.935  0.00  0.00    +0.000 A 
ATOM     20  C   UNL     1       1.035   8.873  21.375  0.00  0.00    +0.000 A 
ATOM     21  N   UNL     1       1.371   9.054  22.655  0.00  0.00    +0.000 NA
ATOM     22  O   UNL     1       0.683  10.185  23.064  0.00  0.00    +0.000 OA
ATOM     23  C   UNL     1      -0.093  10.652  22.048  0.00  0.00    +0.000 A 
BRANCH  23  24
ATOM     24  C   UNL     1      -0.942  11.789  22.371  0.00  0.00    +0.000 A 
ATOM     25  C   UNL     1      -0.649  13.077  21.895  0.00  0.00    +0.000 A 
ATOM     26  C   UNL     1      -1.520  14.144  22.117  0.00  0.00    +0.000 A 
ATOM     27  C   UNL     1      -2.689  13.947  22.851  0.00  0.00    +0.000 A 
ATOM     28  C   UNL     1      -2.974  12.690  23.369  0.00  0.00    +0.000 A 
ATOM     29  C   UNL     1      -2.108  11.617  23.135  0.00  0.00    +0.000 A 
ENDBRANCH  23  24
BRANCH  19  30
ATOM     30  C   UNL     1      -0.683   9.859  19.653  0.00  0.00    +0.000 C 
BRANCH  30  32
ATOM     31  C   UNL     1      -1.389  11.957  18.432  0.00  0.00    +0.000 C 
ATOM     32  C   UNL     1      -0.237  11.025  18.764  0.00  0.00    +0.000 C 
ENDBRANCH  30  32
ENDBRANCH  19  30
ENDBRANCH   1  20
TORSDOF 9
ENDMDL
MODEL 2
REMARK VINA RESULT:      -7.9      0.227      1.270
REMARK  Name = 
REMARK  10 active torsions:
REMARK  status: ('A' for Active; 'I' for Inactive)
REMARK    1  A    between atoms: C_1  and  C_2
REMARK    2  A    between atoms: C_2  and  C_3
REMARK    3  A    between atoms: C_3  and  C_4
REMARK    4  A    between atoms: C_5  and  C_6
REMARK    5  A    between atoms: C_8  and  C_9
REMARK    6  A    between atoms: C_12  and  C_13
REMARK    7  A    between atoms: C_13  and  O_14
REMARK    8  A    between atoms: C_13  and  C_15
REMARK    9  A    between atoms: C_15  and  N_16
REMARK   10  A    between atoms: C_23  and  C_24
REMARK                            x       y       z     vdW  Elec       q    Type
REMARK                         _______ _______ _______ _____ _____    ______ ____
ROOT
ATOM      1  C   UNL     1       1.513   7.750  20.597  0.00  0.00    +0.000 A 
ATOM      2  N   UNL     1       2.218   7.865  19.491  0.00  0.00    +0.000 NA
ATOM      3  C   UNL     1       2.546   6.559  19.197  0.00  0.00    +0.000 A 
ATOM      4  N   UNL     1       1.993   5.660  20.023  0.00  0.00    +0.000 NA
ATOM      5  O   UNL     1       1.337   6.441  20.960  0.00  0.00    +0.000 OA
ENDROOT
BRANCH   3   6
ATOM      6  C   UNL     1       3.462   6.199  18.125  0.00  0.00    +0.000 A 
ATOM      7  C   UNL     1       3.977   7.184  17.274  0.00  0.00    +0.000 A 
ATOM      8  C   UNL     1       4.884   6.846  16.266  0.00  0.00    +0.000 A 
ATOM      9  C   UNL     1       5.287   5.516  16.086  0.00  0.00    +0.000 A 
ATOM     10  C   UNL     1       4.778   4.534  16.947  0.00  0.00    +0.000 A 
ATOM     11  C   UNL     1       3.876   4.872  17.957  0.00  0.00    +0.000 A 
BRANCH   9  12
ATOM     12  C   UNL     1       6.271   5.159  14.996  0.00  0.00    +0.000 C 
BRANCH  12  13
ATOM     13  O   UNL     1       7.576   5.474  15.483  0.00  0.00    +0.000 OA
ATOM     14  H   UNL     1       7.460   6.066  16.245  0.00  0.00    +0.000 HD
ENDBRANCH  12  13
BRANCH  12  15
ATOM     15  C   UNL     1       6.148   3.676  14.556  0.00  0.00    +0.000 C 
BRANCH  15  16
ATOM     16  N   UNL     1       6.263   3.500  13.103  0.00  0.00    +0.000 NA
ATOM     17  H   UNL     1       5.346   3.272  12.714  0.00  0.00    +0.000 HD
ATOM     18  H   UNL     1       6.861   2.697  12.906  0.00  0.00    +0.000 HD
ENDBRANCH  15  16
ENDBRANCH  12  15
ENDBRANCH   9  12
ENDBRANCH   3   6
BRANCH   1  20
ATOM     19  C   UNL     1       0.081   9.893  20.950  0.00  0.00    +0.000 A 
ATOM     20  C   UNL     1       0.983   8.889  21.416  0.00  0.00    +0.000 A 
ATOM     21  N   UNL     1       1.270   9.038  22.711  0.00  0.00    +0.000 NA
ATOM     22  O   UNL     1       0.606  10.189  23.108  0.00  0.00    +0.000 OA
ATOM     23  C   UNL     1      -0.107  10.699  22.067  0.00  0.00    +0.000 A 
BRANCH  23  24
ATOM     24  C   UNL     1      -0.928  11.862  22.371  0.00  0.00    +0.000 A 
ATOM     25  C   UNL     1      -2.240  11.723  22.849  0.00  0.00    +0.000 A 
ATOM     26  C   UNL     1      -2.987  12.835  23.240  0.00  0.00    +0.000 A 
ATOM     27  C   UNL     1      -2.442  14.113  23.128  0.00  0.00    +0.000 A 
ATOM     28  C   UNL     1      -1.161  14.275  22.615  0.00  0.00    +0.000 A 
ATOM     29  C   UNL     1      -0.408  13.160  22.236  0.00  0.00    +0.000 A 
ENDBRANCH  23  24
BRANCH  19  30
ATOM     30  C   UNL     1      -0.622   9.962  19.637  0.00  0.00    +0.000 C 
BRANCH  30  32
ATOM     31  C   UNL     1      -1.086  12.252  18.671  0.00  0.00    +0.000 C 
ATOM     32  C   UNL     1      -0.086  11.114  18.781  0.00  0.00    +0.000 C 
ENDBRANCH  30  32
ENDBRANCH  19  30
ENDBRANCH   1  20
TORSDOF 9
ENDMDL
MODEL 3
REMARK VINA RESULT:      -7.5      2.351      2.799
REMARK  Name = 
REMARK  10 active torsions:
REMARK  status: ('A' for Active; 'I' for Inactive)
REMARK    1  A    between atoms: C_1  and  C_2
REMARK    2  A    between atoms: C_2  and  C_3
REMARK    3  A    between atoms: C_3  and  C_4
REMARK    4  A    between atoms: C_5  and  C_6
REMARK    5  A    between atoms: C_8  and  C_9
REMARK    6  A    between atoms: C_12  and  C_13
REMARK    7  A    between atoms: C_13  and  O_14
REMARK    8  A    between atoms: C_13  and  C_15
REMARK    9  A    between atoms: C_15  and  N_16
REMARK   10  A    between atoms: C_23  and  C_24
REMARK                            x       y       z     vdW  Elec       q    Type
REMARK                         _______ _______ _______ _____ _____    ______ ____
ROOT
ATOM      1  C   UNL     1       1.178   9.926  19.419  0.00  0.00    +0.000 A 
ATOM      2  N   UNL     1       1.624   8.706  19.628  0.00  0.00    +0.000 NA
ATOM      3  C   UNL     1       2.177   8.366  18.413  0.00  0.00    +0.000 A 
ATOM      4  N   UNL     1       2.165   9.360  17.513  0.00  0.00    +0.000 NA
ATOM      5  O   UNL     1       1.484  10.376  18.162  0.00  0.00    +0.000 OA
ENDROOT
BRANCH   3   6
ATOM      6  C   UNL     1       2.670   7.029  18.117  0.00  0.00    +0.000 A 
ATOM      7  C   UNL     1       1.866   5.909  18.359  0.00  0.00    +0.000 A 
ATOM      8  C   UNL     1       2.323   4.627  18.043  0.00  0.00    +0.000 A 
ATOM      9  C   UNL     1       3.595   4.441  17.485  0.00  0.00    +0.000 A 
ATOM     10  C   UNL     1       4.394   5.565  17.235  0.00  0.00    +0.000 A 
ATOM     11  C   UNL     1       3.936   6.846  17.545  0.00  0.00    +0.000 A 
BRANCH   9  12
ATOM     12  C   UNL     1       4.081   3.051  17.143  0.00  0.00    +0.000 C 
BRANCH  12  13
ATOM     13  O   UNL     1       5.443   3.168  16.731  0.00  0.00    +0.000 OA
ATOM     14  H   UNL     1       5.760   2.270  16.538  0.00  0.00    +0.000 HD
ENDBRANCH  12  13
BRANCH  12  15
ATOM     15  C   UNL     1       3.904   2.059  18.323  0.00  0.00    +0.000 C 
BRANCH  15  16
ATOM     16  N   UNL     1       4.826   2.324  19.434  0.00  0.00    +0.000 NA
ATOM     17  H   UNL     1       4.699   3.284  19.760  0.00  0.00    +0.000 HD
ATOM     18  H   UNL     1       5.787   2.266  19.098  0.00  0.00    +0.000 HD
ENDBRANCH  15  16
ENDBRANCH  12  15
ENDBRANCH   9  12
ENDBRANCH   3   6
BRANCH   1  20
ATOM     19  C   UNL     1      -0.969  11.155  20.223  0.00  0.00    +0.000 A 
ATOM     20  C   UNL     1       0.388  10.746  20.394  0.00  0.00    +0.000 A 
ATOM     21  N   UNL     1       0.880  11.133  21.574  0.00  0.00    +0.000 NA
ATOM     22  O   UNL     1      -0.133  11.862  22.178  0.00  0.00    +0.000 OA
ATOM     23  C   UNL     1      -1.237  11.874  21.382  0.00  0.00    +0.000 A 
BRANCH  23  24
ATOM     24  C   UNL     1      -2.411  12.531  21.938  0.00  0.00    +0.000 A 
ATOM     25  C   UNL     1      -3.147  13.464  21.191  0.00  0.00    +0.000 A 
ATOM     26  C   UNL     1      -4.330  14.013  21.687  0.00  0.00    +0.000 A 
ATOM     27  C   UNL     1      -4.782  13.660  22.957  0.00  0.00    +0.000 A 
ATOM     28  C   UNL     1      -4.044  12.772  23.730  0.00  0.00    +0.000 A 
ATOM     29  C   UNL     1      -2.866  12.211  23.228  0.00  0.00    +0.000 A 
ENDBRANCH  23  24
BRANCH  19  30
ATOM     30  C   UNL     1      -1.921  10.760  19.145  0.00  0.00    +0.000 C 
BRANCH  30  32
ATOM     31  C   UNL     1      -2.467  11.145  16.706  0.00  0.00    +0.000 C 
ATOM     32  C   UNL     1      -1.858  11.738  17.965  0.00  0.00    +0.000 C 
ENDBRANCH  30  32
ENDBRANCH  19  30
ENDBRANCH   1  20
TORSDOF 9
ENDMDL
MODEL 4
REMARK VINA RESULT:      -7.4      2.149      2.831
REMARK  Name = 
REMARK  10 active torsions:
REMARK  status: ('A' for Active; 'I' for Inactive)
REMARK    1  A    between atoms: C_1  and  C_2
REMARK    2  A    between atoms: C_2  and  C_3
REMARK    3  A    between atoms: C_3  and  C_4
REMARK    4  A    between atoms: C_5  and  C_6
REMARK    5  A    between atoms: C_8  and  C_9
REMARK    6  A    between atoms: C_12  and  C_13
REMARK    7  A    between atoms: C_13  and  O_14
REMARK    8  A    between atoms: C_13  and  C_15
REMARK    9  A    between atoms: C_15  and  N_16
REMARK   10  A    between atoms: C_23  and  C_24
REMARK                            x       y       z     vdW  Elec       q    Type
REMARK                         _______ _______ _______ _____ _____    ______ ____
ROOT
ATOM      1  C   UNL     1       0.983   9.689  20.010  0.00  0.00    +0.000 A 
ATOM      2  N   UNL     1       1.637   8.548  20.051  0.00  0.00    +0.000 NA
ATOM      3  C   UNL     1       1.926   8.309  18.725  0.00  0.00    +0.000 A 
ATOM      4  N   UNL     1       1.556   9.301  17.902  0.00  0.00    +0.000 NA
ATOM      5  O   UNL     1       0.912  10.195  18.740  0.00  0.00    +0.000 OA
ENDROOT
BRANCH   3   6
ATOM      6  C   UNL     1       2.521   7.066  18.259  0.00  0.00    +0.000 A 
ATOM      7  C   UNL     1       3.808   7.059  17.709  0.00  0.00    +0.000 A 
ATOM      8  C   UNL     1       4.395   5.861  17.294  0.00  0.00    +0.000 A 
ATOM      9  C   UNL     1       3.703   4.649  17.415  0.00  0.00    +0.000 A 
ATOM     10  C   UNL     1       2.418   4.657  17.975  0.00  0.00    +0.000 A 
ATOM     11  C   UNL     1       1.834   5.853  18.395  0.00  0.00    +0.000 A 
BRANCH   9  12
ATOM     12  C   UNL     1       4.347   3.357  16.966  0.00  0.00    +0.000 C 
BRANCH  12  13
ATOM     13  O   UNL     1       5.742   3.612  16.806  0.00  0.00    +0.000 OA
ATOM     14  H   UNL     1       6.214   2.983  17.378  0.00  0.00    +0.000 HD
ENDBRANCH  12  13
BRANCH  12  15
ATOM     15  C   UNL     1       4.069   2.189  17.950  0.00  0.00    +0.000 C 
BRANCH  15  16
ATOM     16  N   UNL     1       4.807   2.318  19.212  0.00  0.00    +0.000 NA
ATOM     17  H   UNL     1       4.224   1.984  19.982  0.00  0.00    +0.000 HD
ATOM     18  H   UNL     1       4.984   3.305  19.401  0.00  0.00    +0.000 HD
ENDBRANCH  15  16
ENDBRANCH  12  15
ENDBRANCH   9  12
ENDBRANCH   3   6
BRANCH   1  20
ATOM     19  C   UNL     1      -0.613  11.429  21.102  0.00  0.00    +0.000 A 
ATOM     20  C   UNL     1       0.340  10.369  21.182  0.00  0.00    +0.000 A 
ATOM     21  N   UNL     1       0.564   9.995  22.444  0.00  0.00    +0.000 NA
ATOM     22  O   UNL     1      -0.196  10.850  23.226  0.00  0.00    +0.000 OA
ATOM     23  C   UNL     1      -0.903  11.702  22.434  0.00  0.00    +0.000 A 
BRANCH  23  24
ATOM     24  C   UNL     1      -1.817  12.599  23.126  0.00  0.00    +0.000 A 
ATOM     25  C   UNL     1      -3.108  12.187  23.488  0.00  0.00    +0.000 A 
ATOM     26  C   UNL     1      -3.944  13.010  24.244  0.00  0.00    +0.000 A 
ATOM     27  C   UNL     1      -3.511  14.280  24.623  0.00  0.00    +0.000 A 
ATOM     28  C   UNL     1      -2.253  14.724  24.235  0.00  0.00    +0.000 A 
ATOM     29  C   UNL     1      -1.410  13.894  23.490  0.00  0.00    +0.000 A 
ENDBRANCH  23  24
BRANCH  19  30
ATOM     30  C   UNL     1      -1.267  11.989  19.885  0.00  0.00    +0.000 C 
BRANCH  30  32
ATOM     31  C   UNL     1       0.607  13.667  19.627  0.00  0.00    +0.000 C 
ATOM     32  C   UNL     1      -0.897  13.463  19.685  0.00  0.00    +0.000 C 
ENDBRANCH  30  32
ENDBRANCH  19  30
ENDBRANCH   1  20
TORSDOF 9
ENDMDL
MODEL 5
REMARK VINA RESULT:      -7.4      2.401      3.000
REMARK  Name = 
REMARK  10 active torsions:
REMARK  status: ('A' for Active; 'I' for Inactive)
REMARK    1  A    between atoms: C_1  and  C_2
REMARK    2  A    between atoms: C_2  and  C_3
REMARK    3  A    between atoms: C_3  and  C_4
REMARK    4  A    between atoms: C_5  and  C_6
REMARK    5  A    between atoms: C_8  and  C_9
REMARK    6  A    between atoms: C_12  and  C_13
REMARK    7  A    between atoms: C_13  and  O_14
REMARK    8  A    between atoms: C_13  and  C_15
REMARK    9  A    between atoms: C_15  and  N_16
REMARK   10  A    between atoms: C_23  and  C_24
REMARK                            x       y       z     vdW  Elec       q    Type
REMARK                         _______ _______ _______ _____ _____    ______ ____
ROOT
ATOM      1  C   UNL     1       0.814   9.707  20.608  0.00  0.00    +0.000 A 
ATOM      2  N   UNL     1       1.454   8.567  20.760  0.00  0.00    +0.000 NA
ATOM      3  C   UNL     1       1.826   8.247  19.473  0.00  0.00    +0.000 A 
ATOM      4  N   UNL     1       1.519   9.188  18.568  0.00  0.00    +0.000 NA
ATOM      5  O   UNL     1       0.829  10.135  19.307  0.00  0.00    +0.000 OA
ENDROOT
BRANCH   3   6
ATOM      6  C   UNL     1       2.439   6.975  19.123  0.00  0.00    +0.000 A 
ATOM      7  C   UNL     1       3.270   6.874  18.000  0.00  0.00    +0.000 A 
ATOM      8  C   UNL     1       3.888   5.662  17.682  0.00  0.00    +0.000 A 
ATOM      9  C   UNL     1       3.681   4.527  18.477  0.00  0.00    +0.000 A 
ATOM     10  C   UNL     1       2.857   4.633  19.606  0.00  0.00    +0.000 A 
ATOM     11  C   UNL     1       2.244   5.845  19.927  0.00  0.00    +0.000 A 
BRANCH   9  12
ATOM     12  C   UNL     1       4.356   3.220  18.128  0.00  0.00    +0.000 C 
BRANCH  12  13
ATOM     13  O   UNL     1       5.455   3.058  19.026  0.00  0.00    +0.000 OA
ATOM     14  H   UNL     1       5.233   3.542  19.838  0.00  0.00    +0.000 HD
ENDBRANCH  12  13
BRANCH  12  15
ATOM     15  C   UNL     1       3.374   2.020  18.176  0.00  0.00    +0.000 C 
BRANCH  15  16
ATOM     16  N   UNL     1       4.053   0.733  18.372  0.00  0.00    +0.000 NA
ATOM     17  H   UNL     1       4.823   0.852  19.033  0.00  0.00    +0.000 HD
ATOM     18  H   UNL     1       4.478   0.438  17.494  0.00  0.00    +0.000 HD
ENDBRANCH  15  16
ENDBRANCH  12  15
ENDBRANCH   9  12
ENDBRANCH   3   6
BRANCH   1  20
ATOM     19  C   UNL     1      -0.731  11.603  21.494  0.00  0.00    +0.000 A 
ATOM     20  C   UNL     1       0.102  10.460  21.691  0.00  0.00    +0.000 A 
ATOM     21  N   UNL     1       0.137  10.085  22.972  0.00  0.00    +0.000 NA
ATOM     22  O   UNL     1      -0.627  11.018  23.655  0.00  0.00    +0.000 OA
ATOM     23  C   UNL     1      -1.151  11.921  22.781  0.00  0.00    +0.000 A 
BRANCH  23  24
ATOM     24  C   UNL     1      -2.053  12.908  23.355  0.00  0.00    +0.000 A 
ATOM     25  C   UNL     1      -1.603  14.192  23.703  0.00  0.00    +0.000 A 
ATOM     26  C   UNL     1      -2.489  15.170  24.155  0.00  0.00    +0.000 A 
ATOM     27  C   UNL     1      -3.843  14.869  24.297  0.00  0.00    +0.000 A 
ATOM     28  C   UNL     1      -4.300  13.591  24.002  0.00  0.00    +0.000 A 
ATOM     29  C   UNL     1      -3.414  12.615  23.536  0.00  0.00    +0.000 A 
ENDBRANCH  23  24
BRANCH  19  30
ATOM     30  C   UNL     1      -1.180  12.204  20.206  0.00  0.00    +0.000 C 
BRANCH  30  32
ATOM     31  C   UNL     1      -0.291  13.732  18.399  0.00  0.00    +0.000 C 
ATOM     32  C   UNL     1      -0.405  13.489  19.893  0.00  0.00    +0.000 C 
ENDBRANCH  30  32
ENDBRANCH  19  30
ENDBRANCH   1  20
TORSDOF 9
ENDMDL
MODEL 6
REMARK VINA RESULT:      -7.3      1.971      2.495
REMARK  Name = 
REMARK  10 active torsions:
REMARK  status: ('A' for Active; 'I' for Inactive)
REMARK    1  A    between atoms: C_1  and  C_2
REMARK    2  A    between atoms: C_2  and  C_3
REMARK    3  A    between atoms: C_3  and  C_4
REMARK    4  A    between atoms: C_5  and  C_6
REMARK    5  A    between atoms: C_8  and  C_9
REMARK    6  A    between atoms: C_12  and  C_13
REMARK    7  A    between atoms: C_13  and  O_14
REMARK    8  A    between atoms: C_13  and  C_15
REMARK    9  A    between atoms: C_15  and  N_16
REMARK   10  A    between atoms: C_23  and  C_24
REMARK                            x       y       z     vdW  Elec       q    Type
REMARK                         _______ _______ _______ _____ _____    ______ ____
ROOT
ATOM      1  C   UNL     1       0.786   9.693  19.839  0.00  0.00    +0.000 A 
ATOM      2  N   UNL     1       1.752   8.799  19.850  0.00  0.00    +0.000 NA
ATOM      3  C   UNL     1       1.915   8.503  18.514  0.00  0.00    +0.000 A 
ATOM      4  N   UNL     1       1.155   9.246  17.697  0.00  0.00    +0.000 NA
ATOM      5  O   UNL     1       0.393  10.008  18.566  0.00  0.00    +0.000 OA
ENDROOT
BRANCH   3   6
ATOM      6  C   UNL     1       2.785   7.436  18.044  0.00  0.00    +0.000 A 
ATOM      7  C   UNL     1       2.471   6.098  18.308  0.00  0.00    +0.000 A 
ATOM      8  C   UNL     1       3.286   5.070  17.826  0.00  0.00    +0.000 A 
ATOM      9  C   UNL     1       4.434   5.362  17.077  0.00  0.00    +0.000 A 
ATOM     10  C   UNL     1       4.740   6.703  16.806  0.00  0.00    +0.000 A 
ATOM     11  C   UNL     1       3.924   7.729  17.282  0.00  0.00    +0.000 A 
BRANCH   9  12
ATOM     12  C   UNL     1       5.309   4.245  16.557  0.00  0.00    +0.000 C 
BRANCH  12  13
ATOM     13  O   UNL     1       5.138   4.197  15.141  0.00  0.00    +0.000 OA
ATOM     14  H   UNL     1       5.943   3.799  14.770  0.00  0.00    +0.000 HD
ENDBRANCH  12  13
BRANCH  12  15
ATOM     15  C   UNL     1       6.795   4.422  16.967  0.00  0.00    +0.000 C 
BRANCH  15  16
ATOM     16  N   UNL     1       7.007   4.297  18.414  0.00  0.00    +0.000 NA
ATOM     17  H   UNL     1       7.734   4.952  18.709  0.00  0.00    +0.000 HD
ATOM     18  H   UNL     1       7.366   3.366  18.624  0.00  0.00    +0.000 HD
ENDBRANCH  15  16
ENDBRANCH  12  15
ENDBRANCH   9  12
ENDBRANCH   3   6
BRANCH   1  20
ATOM     19  C   UNL     1      -0.616  11.504  21.073  0.00  0.00    +0.000 A 
ATOM     20  C   UNL     1       0.136  10.290  21.051  0.00  0.00    +0.000 A 
ATOM     21  N   UNL     1       0.153   9.693  22.246  0.00  0.00    +0.000 NA
ATOM     22  O   UNL     1      -0.539  10.542  23.095  0.00  0.00    +0.000 OA
ATOM     23  C   UNL     1      -1.004  11.618  22.403  0.00  0.00    +0.000 A 
BRANCH  23  24
ATOM     24  C   UNL     1      -1.831  12.548  23.158  0.00  0.00    +0.000 A 
ATOM     25  C   UNL     1      -3.122  12.197  23.582  0.00  0.00    +0.000 A 
ATOM     26  C   UNL     1      -3.871  13.048  24.395  0.00  0.00    +0.000 A 
ATOM     27  C   UNL     1      -3.351  14.285  24.772  0.00  0.00    +0.000 A 
ATOM     28  C   UNL     1      -2.093  14.670  24.326  0.00  0.00    +0.000 A 
ATOM     29  C   UNL     1      -1.337  13.811  23.523  0.00  0.00    +0.000 A 
ENDBRANCH  23  24
BRANCH  19  30
ATOM     30  C   UNL     1      -1.029  12.351  19.918  0.00  0.00    +0.000 C 
BRANCH  30  32
ATOM     31  C   UNL     1      -3.537  12.671  19.965  0.00  0.00    +0.000 C 
ATOM     32  C   UNL     1      -2.381  11.898  19.354  0.00  0.00    +0.000 C 
ENDBRANCH  30  32
ENDBRANCH  19  30
ENDBRANCH   1  20
TORSDOF 9
ENDMDL
MODEL 7
REMARK VINA RESULT:      -7.3      0.960      1.427
REMARK  Name = 
REMARK  10 active torsions:
REMARK  status: ('A' for Active; 'I' for Inactive)
REMARK    1  A    between atoms: C_1  and  C_2
REMARK    2  A    between atoms: C_2  and  C_3
REMARK    3  A    between atoms: C_3  and  C_4
REMARK    4  A    between atoms: C_5  and  C_6
REMARK    5  A    between atoms: C_8  and  C_9
REMARK    6  A    between atoms: C_12  and  C_13
REMARK    7  A    between atoms: C_13  and  O_14
REMARK    8  A    between atoms: C_13  and  C_15
REMARK    9  A    between atoms: C_15  and  N_16
REMARK   10  A    between atoms: C_23  and  C_24
REMARK                            x       y       z     vdW  Elec       q    Type
REMARK                         _______ _______ _______ _____ _____    ______ ____
ROOT
ATOM      1  C   UNL     1       1.463   7.519  20.752  0.00  0.00    +0.000 A 
ATOM      2  N   UNL     1       2.200   7.514  19.662  0.00  0.00    +0.000 NA
ATOM      3  C   UNL     1       2.425   6.172  19.446  0.00  0.00    +0.000 A 
ATOM      4  N   UNL     1       1.781   5.368  20.304  0.00  0.00    +0.000 NA
ATOM      5  O   UNL     1       1.171   6.251  21.179  0.00  0.00    +0.000 OA
ENDROOT
BRANCH   3   6
ATOM      6  C   UNL     1       3.331   5.680  18.419  0.00  0.00    +0.000 A 
ATOM      7  C   UNL     1       3.394   4.313  18.127  0.00  0.00    +0.000 A 
ATOM      8  C   UNL     1       4.237   3.841  17.117  0.00  0.00    +0.000 A 
ATOM      9  C   UNL     1       5.038   4.728  16.386  0.00  0.00    +0.000 A 
ATOM     10  C   UNL     1       4.966   6.098  16.674  0.00  0.00    +0.000 A 
ATOM     11  C   UNL     1       4.120   6.570  17.678  0.00  0.00    +0.000 A 
BRANCH   9  12
ATOM     12  C   UNL     1       5.945   4.211  15.293  0.00  0.00    +0.000 C 
BRANCH  12  13
ATOM     13  O   UNL     1       5.241   4.346  14.059  0.00  0.00    +0.000 OA
ATOM     14  H   UNL     1       5.907   4.474  13.363  0.00  0.00    +0.000 HD
ENDBRANCH  12  13
BRANCH  12  15
ATOM     15  C   UNL     1       7.316   4.939  15.273  0.00  0.00    +0.000 C 
BRANCH  15  16
ATOM     16  N   UNL     1       7.675   5.444  13.942  0.00  0.00    +0.000 NA
ATOM     17  H   UNL     1       7.652   6.466  13.948  0.00  0.00    +0.000 HD
ATOM     18  H   UNL     1       6.968   5.151  13.267  0.00  0.00    +0.000 HD
ENDBRANCH  15  16
ENDBRANCH  12  15
ENDBRANCH   9  12
ENDBRANCH   3   6
BRANCH   1  20
ATOM     19  C   UNL     1       0.141   9.747  20.979  0.00  0.00    +0.000 A 
ATOM     20  C   UNL     1       1.011   8.740  21.495  0.00  0.00    +0.000 A 
ATOM     21  N   UNL     1       1.345   8.974  22.767  0.00  0.00    +0.000 NA
ATOM     22  O   UNL     1       0.747  10.182  23.092  0.00  0.00    +0.000 OA
ATOM     23  C   UNL     1       0.024  10.644  22.035  0.00  0.00    +0.000 A 
BRANCH  23  24
ATOM     24  C   UNL     1      -0.733  11.864  22.271  0.00  0.00    +0.000 A 
ATOM     25  C   UNL     1      -1.978  11.835  22.919  0.00  0.00    +0.000 A 
ATOM     26  C   UNL     1      -2.653  13.014  23.238  0.00  0.00    +0.000 A 
ATOM     27  C   UNL     1      -2.106  14.246  22.884  0.00  0.00    +0.000 A 
ATOM     28  C   UNL     1      -0.896  14.294  22.202  0.00  0.00    +0.000 A 
ATOM     29  C   UNL     1      -0.214  13.113  21.894  0.00  0.00    +0.000 A 
ENDBRANCH  23  24
BRANCH  19  30
ATOM     30  C   UNL     1      -0.601   9.748  19.685  0.00  0.00    +0.000 C 
BRANCH  30  32
ATOM     31  C   UNL     1       1.313  10.483  18.206  0.00  0.00    +0.000 C 
ATOM     32  C   UNL     1      -0.065  10.830  18.741  0.00  0.00    +0.000 C 
ENDBRANCH  30  32
ENDBRANCH  19  30
ENDBRANCH   1  20
TORSDOF 9
ENDMDL
MODEL 8
REMARK VINA RESULT:      -7.3      2.859      3.760
REMARK  Name = 
REMARK  10 active torsions:
REMARK  status: ('A' for Active; 'I' for Inactive)
REMARK    1  A    between atoms: C_1  and  C_2
REMARK    2  A    between atoms: C_2  and  C_3
REMARK    3  A    between atoms: C_3  and  C_4
REMARK    4  A    between atoms: C_5  and  C_6
REMARK    5  A    between atoms: C_8  and  C_9
REMARK    6  A    between atoms: C_12  and  C_13
REMARK    7  A    between atoms: C_13  and  O_14
REMARK    8  A    between atoms: C_13  and  C_15
REMARK    9  A    between atoms: C_15  and  N_16
REMARK   10  A    between atoms: C_23  and  C_24
REMARK                            x       y       z     vdW  Elec       q    Type
REMARK                         _______ _______ _______ _____ _____    ______ ____
ROOT
ATOM      1  C   UNL     1       0.638  10.178  19.307  0.00  0.00    +0.000 A 
ATOM      2  N   UNL     1       1.076   9.012  19.733  0.00  0.00    +0.000 NA
ATOM      3  C   UNL     1       1.960   8.635  18.745  0.00  0.00    +0.000 A 
ATOM      4  N   UNL     1       2.141   9.563  17.795  0.00  0.00    +0.000 NA
ATOM      5  O   UNL     1       1.254  10.565  18.146  0.00  0.00    +0.000 OA
ENDROOT
BRANCH   3   6
ATOM      6  C   UNL     1       2.587   7.322  18.709  0.00  0.00    +0.000 A 
ATOM      7  C   UNL     1       3.493   6.999  17.691  0.00  0.00    +0.000 A 
ATOM      8  C   UNL     1       4.124   5.752  17.674  0.00  0.00    +0.000 A 
ATOM      9  C   UNL     1       3.855   4.804  18.670  0.00  0.00    +0.000 A 
ATOM     10  C   UNL     1       2.956   5.134  19.693  0.00  0.00    +0.000 A 
ATOM     11  C   UNL     1       2.330   6.381  19.713  0.00  0.00    +0.000 A 
BRANCH   9  12
ATOM     12  C   UNL     1       4.544   3.459  18.646  0.00  0.00    +0.000 C 
BRANCH  12  13
ATOM     13  O   UNL     1       5.951   3.703  18.657  0.00  0.00    +0.000 OA
ATOM     14  H   UNL     1       6.105   4.451  19.257  0.00  0.00    +0.000 HD
ENDBRANCH  12  13
BRANCH  12  15
ATOM     15  C   UNL     1       4.095   2.547  19.818  0.00  0.00    +0.000 C 
BRANCH  15  16
ATOM     16  N   UNL     1       5.178   1.699  20.330  0.00  0.00    +0.000 NA
ATOM     17  H   UNL     1       6.079   2.106  20.074  0.00  0.00    +0.000 HD
ATOM     18  H   UNL     1       5.140   0.788  19.873  0.00  0.00    +0.000 HD
ENDBRANCH  15  16
ENDBRANCH  12  15
ENDBRANCH   9  12
ENDBRANCH   3   6
BRANCH   1  20
ATOM     19  C   UNL     1      -1.519  11.631  19.281  0.00  0.00    +0.000 A 
ATOM     20  C   UNL     1      -0.433  10.999  19.960  0.00  0.00    +0.000 A 
ATOM     21  N   UNL     1      -0.503  11.173  21.282  0.00  0.00    +0.000 NA
ATOM     22  O   UNL     1      -1.610  11.980  21.493  0.00  0.00    +0.000 OA
ATOM     23  C   UNL     1      -2.222  12.251  20.307  0.00  0.00    +0.000 A 
BRANCH  23  24
ATOM     24  C   UNL     1      -3.457  13.018  20.394  0.00  0.00    +0.000 A 
ATOM     25  C   UNL     1      -4.678  12.485  19.954  0.00  0.00    +0.000 A 
ATOM     26  C   UNL     1      -5.875  13.179  20.134  0.00  0.00    +0.000 A 
ATOM     27  C   UNL     1      -5.866  14.438  20.731  0.00  0.00    +0.000 A 
ATOM     28  C   UNL     1      -4.661  15.003  21.131  0.00  0.00    +0.000 A 
ATOM     29  C   UNL     1      -3.464  14.302  20.964  0.00  0.00    +0.000 A 
ENDBRANCH  23  24
BRANCH  19  30
ATOM     30  C   UNL     1      -1.904  11.510  17.846  0.00  0.00    +0.000 C 
BRANCH  30  32
ATOM     31  C   UNL     1      -2.743   9.915  16.073  0.00  0.00    +0.000 C 
ATOM     32  C   UNL     1      -2.570  10.159  17.562  0.00  0.00    +0.000 C 
ENDBRANCH  30  32
ENDBRANCH  19  30
ENDBRANCH   1  20
TORSDOF 9
ENDMDL
MODEL 9
REMARK VINA RESULT:      -7.3      1.031      1.172
REMARK  Name = 
REMARK  10 active torsions:
REMARK  status: ('A' for Active; 'I' for Inactive)
REMARK    1  A    between atoms: C_1  and  C_2
REMARK    2  A    between atoms: C_2  and  C_3
REMARK    3  A    between atoms: C_3  and  C_4
REMARK    4  A    between atoms: C_5  and  C_6
REMARK    5  A    between atoms: C_8  and  C_9
REMARK    6  A    between atoms: C_12  and  C_13
REMARK    7  A    between atoms: C_13  and  O_14
REMARK    8  A    between atoms: C_13  and  C_15
REMARK    9  A    between atoms: C_15  and  N_16
REMARK   10  A    between atoms: C_23  and  C_24
REMARK                            x       y       z     vdW  Elec       q    Type
REMARK                         _______ _______ _______ _____ _____    ______ ____
ROOT
ATOM      1  C   UNL     1       1.388   7.720  20.845  0.00  0.00    +0.000 A 
ATOM      2  N   UNL     1       2.244   7.718  19.845  0.00  0.00    +0.000 NA
ATOM      3  C   UNL     1       2.482   6.375  19.645  0.00  0.00    +0.000 A 
ATOM      4  N   UNL     1       1.739   5.570  20.418  0.00  0.00    +0.000 NA
ATOM      5  O   UNL     1       1.040   6.451  21.226  0.00  0.00    +0.000 OA
ENDROOT
BRANCH   3   6
ATOM      6  C   UNL     1       3.496   5.883  18.724  0.00  0.00    +0.000 A 
ATOM      7  C   UNL     1       4.144   4.667  18.969  0.00  0.00    +0.000 A 
ATOM      8  C   UNL     1       5.092   4.175  18.068  0.00  0.00    +0.000 A 
ATOM      9  C   UNL     1       5.413   4.893  16.909  0.00  0.00    +0.000 A 
ATOM     10  C   UNL     1       4.755   6.106  16.660  0.00  0.00    +0.000 A 
ATOM     11  C   UNL     1       3.804   6.595  17.557  0.00  0.00    +0.000 A 
BRANCH   9  12
ATOM     12  C   UNL     1       6.437   4.353  15.937  0.00  0.00    +0.000 C 
BRANCH  12  13
ATOM     13  O   UNL     1       6.127   2.977  15.717  0.00  0.00    +0.000 OA
ATOM     14  H   UNL     1       5.222   2.834  16.039  0.00  0.00    +0.000 HD
ENDBRANCH  12  13
BRANCH  12  15
ATOM     15  C   UNL     1       6.481   5.166  14.616  0.00  0.00    +0.000 C 
BRANCH  15  16
ATOM     16  N   UNL     1       7.847   5.505  14.199  0.00  0.00    +0.000 NA
ATOM     17  H   UNL     1       8.512   4.907  14.693  0.00  0.00    +0.000 HD
ATOM     18  H   UNL     1       8.061   6.460  14.485  0.00  0.00    +0.000 HD
ENDBRANCH  15  16
ENDBRANCH  12  15
ENDBRANCH   9  12
ENDBRANCH   3   6
BRANCH   1  20
ATOM     19  C   UNL     1      -0.001   9.916  20.961  0.00  0.00    +0.000 A 
ATOM     20  C   UNL     1       0.863   8.939  21.542  0.00  0.00    +0.000 A 
ATOM     21  N   UNL     1       1.118   9.200  22.826  0.00  0.00    +0.000 NA
ATOM     22  O   UNL     1       0.472  10.396  23.098  0.00  0.00    +0.000 OA
ATOM     23  C   UNL     1      -0.201  10.824  21.995  0.00  0.00    +0.000 A 
BRANCH  23  24
ATOM     24  C   UNL     1      -1.001  12.027  22.168  0.00  0.00    +0.000 A 
ATOM     25  C   UNL     1      -0.680  13.219  21.501  0.00  0.00    +0.000 A 
ATOM     26  C   UNL     1      -1.507  14.340  21.586  0.00  0.00    +0.000 A 
ATOM     27  C   UNL     1      -2.658  14.296  22.370  0.00  0.00    +0.000 A 
ATOM     28  C   UNL     1      -2.970  13.140  23.075  0.00  0.00    +0.000 A 
ATOM     29  C   UNL     1      -2.148  12.013  22.979  0.00  0.00    +0.000 A 
ENDBRANCH  23  24
BRANCH  19  30
ATOM     30  C   UNL     1      -0.668   9.880  19.628  0.00  0.00    +0.000 C 
BRANCH  30  32
ATOM     31  C   UNL     1       1.370  10.977  18.610  0.00  0.00    +0.000 C 
ATOM     32  C   UNL     1      -0.145  10.996  18.716  0.00  0.00    +0.000 C 
ENDBRANCH  30  32
ENDBRANCH  19  30
ENDBRANCH   1  20
TORSDOF 9
ENDMDL
