MODEL 1
REMARK VINA RESULT:      -8.9      0.000      0.000
REMARK  Name = 
REMARK  3 active torsions:
REMARK  status: ('A' for Active; 'I' for Inactive)
REMARK    1  A    between atoms: C_5  and  C_6
REMARK    2  A    between atoms: C_6  and  C_7
REMARK    3  A    between atoms: C_6  and  C_16
REMARK                            x       y       z     vdW  Elec       q    Type
REMARK                         _______ _______ _______ _____ _____    ______ ____
ROOT
ATOM      1  C   UNL     1       3.102   6.748  18.908  0.00  0.00    +0.000 C 
ENDROOT
BRANCH   1   2
ATOM      2  C   UNL     1       4.163   6.634  17.834  0.00  0.00    +0.000 A 
ATOM      3  C   UNL     1       4.158   7.195  16.565  0.00  0.00    +0.000 A 
ATOM      4  N   UNL     1       5.279   6.786  15.900  0.00  0.00    +0.000 N 
ATOM      5  C   UNL     1       6.050   5.989  16.710  0.00  0.00    +0.000 A 
ATOM      6  C   UNL     1       7.268   5.350  16.445  0.00  0.00    +0.000 A 
ATOM      7  C   UNL     1       7.840   4.594  17.472  0.00  0.00    +0.000 A 
ATOM      8  C   UNL     1       7.215   4.483  18.711  0.00  0.00    +0.000 A 
ATOM      9  C   UNL     1       5.992   5.120  18.955  0.00  0.00    +0.000 A 
ATOM     10  C   UNL     1       5.390   5.889  17.935  0.00  0.00    +0.000 A 
ATOM     11  H   UNL     1       5.509   7.025  14.946  0.00  0.00    +0.000 HD
ENDBRANCH   1   2
BRANCH   1  12
ATOM     12  C   UNL     1       2.180   7.952  18.796  0.00  0.00    +0.000 A 
ATOM     13  C   UNL     1       1.806   8.674  17.671  0.00  0.00    +0.000 A 
ATOM     14  N   UNL     1       0.903   9.635  18.031  0.00  0.00    +0.000 N 
ATOM     15  C   UNL     1       0.637   9.559  19.374  0.00  0.00    +0.000 A 
ATOM     16  C   UNL     1      -0.247  10.312  20.158  0.00  0.00    +0.000 A 
ATOM     17  C   UNL     1      -0.315  10.020  21.522  0.00  0.00    +0.000 A 
ATOM     18  C   UNL     1       0.476   9.021  22.077  0.00  0.00    +0.000 A 
ATOM     19  C   UNL     1       1.349   8.273  21.276  0.00  0.00    +0.000 A 
ATOM     20  C   UNL     1       1.433   8.535  19.891  0.00  0.00    +0.000 A 
ATOM     21  H   UNL     1       0.470  10.292  17.398  0.00  0.00    +0.000 HD
ENDBRANCH   1  12
BRANCH   1  26
ATOM     22  C   UNL     1       0.986   3.799  17.540  0.00  0.00    +0.000 A 
ATOM     23  C   UNL     1       0.850   2.998  18.670  0.00  0.00    +0.000 A 
ATOM     24  C   UNL     1       1.432   3.440  19.838  0.00  0.00    +0.000 A 
ATOM     25  C   UNL     1       2.130   4.629  19.914  0.00  0.00    +0.000 A 
ATOM     26  C   UNL     1       2.297   5.460  18.811  0.00  0.00    +0.000 A 
ATOM     27  C   UNL     1       1.700   5.008  17.610  0.00  0.00    +0.000 A 
ATOM     28  O   UNL     1       2.618   4.843  21.170  0.00  0.00    +0.000 OA
ATOM     29  C   UNL     1       2.172   3.656  21.853  0.00  0.00    +0.000 C 
ATOM     30  O   UNL     1       1.394   2.773  21.024  0.00  0.00    +0.000 OA
ENDBRANCH   1  26
TORSDOF 3
ENDMDL
MODEL 2
REMARK VINA RESULT:      -8.8      1.792      2.237
REMARK  Name = 
REMARK  3 active torsions:
REMARK  status: ('A' for Active; 'I' for Inactive)
REMARK    1  A    between atoms: C_5  and  C_6
REMARK    2  A    between atoms: C_6  and  C_7
REMARK    3  A    between atoms: C_6  and  C_16
REMARK                            x       y       z     vdW  Elec       q    Type
REMARK                         _______ _______ _______ _____ _____    ______ ____
ROOT
ATOM      1  C   UNL     1       4.002   5.786  19.230  0.00  0.00    +0.000 C 
ENDROOT
BRANCH   1   2
ATOM      2  C   UNL     1       5.343   5.558  18.563  0.00  0.00    +0.000 A 
ATOM      3  C   UNL     1       6.607   5.708  19.115  0.00  0.00    +0.000 A 
ATOM      4  N   UNL     1       7.540   5.463  18.146  0.00  0.00    +0.000 N 
ATOM      5  C   UNL     1       6.924   5.123  16.967  0.00  0.00    +0.000 A 
ATOM      6  C   UNL     1       7.482   4.800  15.723  0.00  0.00    +0.000 A 
ATOM      7  C   UNL     1       6.605   4.484  14.682  0.00  0.00    +0.000 A 
ATOM      8  C   UNL     1       5.226   4.492  14.881  0.00  0.00    +0.000 A 
ATOM      9  C   UNL     1       4.686   4.828  16.129  0.00  0.00    +0.000 A 
ATOM     10  C   UNL     1       5.549   5.153  17.198  0.00  0.00    +0.000 A 
ATOM     11  H   UNL     1       8.540   5.531  18.271  0.00  0.00    +0.000 HD
ENDBRANCH   1   2
BRANCH   1  12
ATOM     12  C   UNL     1       3.257   7.039  18.796  0.00  0.00    +0.000 A 
ATOM     13  C   UNL     1       3.320   7.730  17.595  0.00  0.00    +0.000 A 
ATOM     14  N   UNL     1       2.423   8.761  17.620  0.00  0.00    +0.000 N 
ATOM     15  C   UNL     1       1.734   8.763  18.804  0.00  0.00    +0.000 A 
ATOM     16  C   UNL     1       0.703   9.605  19.241  0.00  0.00    +0.000 A 
ATOM     17  C   UNL     1       0.176   9.382  20.515  0.00  0.00    +0.000 A 
ATOM     18  C   UNL     1       0.670   8.361  21.320  0.00  0.00    +0.000 A 
ATOM     19  C   UNL     1       1.697   7.524  20.863  0.00  0.00    +0.000 A 
ATOM     20  C   UNL     1       2.242   7.717  19.575  0.00  0.00    +0.000 A 
ATOM     21  H   UNL     1       2.268   9.414  16.865  0.00  0.00    +0.000 HD
ENDBRANCH   1  12
BRANCH   1  26
ATOM     22  C   UNL     1       1.208   3.436  17.918  0.00  0.00    +0.000 A 
ATOM     23  C   UNL     1       1.709   2.183  18.256  0.00  0.00    +0.000 A 
ATOM     24  C   UNL     1       2.922   2.135  18.907  0.00  0.00    +0.000 A 
ATOM     25  C   UNL     1       3.637   3.273  19.224  0.00  0.00    +0.000 A 
ATOM     26  C   UNL     1       3.180   4.547  18.903  0.00  0.00    +0.000 A 
ATOM     27  C   UNL     1       1.933   4.598  18.235  0.00  0.00    +0.000 A 
ATOM     28  O   UNL     1       4.807   2.968  19.857  0.00  0.00    +0.000 OA
ATOM     29  C   UNL     1       4.753   1.529  19.873  0.00  0.00    +0.000 C 
ATOM     30  O   UNL     1       3.548   0.991  19.299  0.00  0.00    +0.000 OA
ENDBRANCH   1  26
TORSDOF 3
ENDMDL
MODEL 3
REMARK VINA RESULT:      -8.5      1.839      6.056
REMARK  Name = 
REMARK  3 active torsions:
REMARK  status: ('A' for Active; 'I' for Inactive)
REMARK    1  A    between atoms: C_5  and  C_6
REMARK    2  A    between atoms: C_6  and  C_7
REMARK    3  A    between atoms: C_6  and  C_16
REMARK                            x       y       z     vdW  Elec       q    Type
REMARK                         _______ _______ _______ _____ _____    ______ ____
ROOT
ATOM      1  C   UNL     1       3.233   5.622  17.900  0.00  0.00    +0.000 C 
ENDROOT
BRANCH   1   2
ATOM      2  C   UNL     1       2.667   6.529  18.972  0.00  0.00    +0.000 A 
ATOM      3  C   UNL     1       2.508   6.259  20.323  0.00  0.00    +0.000 A 
ATOM      4  N   UNL     1       1.899   7.330  20.915  0.00  0.00    +0.000 N 
ATOM      5  C   UNL     1       1.677   8.323  19.993  0.00  0.00    +0.000 A 
ATOM      6  C   UNL     1       1.081   9.580  20.152  0.00  0.00    +0.000 A 
ATOM      7  C   UNL     1       0.989  10.402  19.025  0.00  0.00    +0.000 A 
ATOM      8  C   UNL     1       1.476   9.979  17.791  0.00  0.00    +0.000 A 
ATOM      9  C   UNL     1       2.061   8.714  17.648  0.00  0.00    +0.000 A 
ATOM     10  C   UNL     1       2.164   7.862  18.769  0.00  0.00    +0.000 A 
ATOM     11  H   UNL     1       1.639   7.385  21.890  0.00  0.00    +0.000 HD
ENDBRANCH   1   2
BRANCH   1  12
ATOM     12  C   UNL     1       4.551   6.069  17.288  0.00  0.00    +0.000 A 
ATOM     13  C   UNL     1       5.396   7.101  17.672  0.00  0.00    +0.000 A 
ATOM     14  N   UNL     1       6.506   7.096  16.875  0.00  0.00    +0.000 N 
ATOM     15  C   UNL     1       6.443   6.063  15.977  0.00  0.00    +0.000 A 
ATOM     16  C   UNL     1       7.370   5.658  15.008  0.00  0.00    +0.000 A 
ATOM     17  C   UNL     1       7.041   4.557  14.214  0.00  0.00    +0.000 A 
ATOM     18  C   UNL     1       5.830   3.895  14.381  0.00  0.00    +0.000 A 
ATOM     19  C   UNL     1       4.918   4.309  15.362  0.00  0.00    +0.000 A 
ATOM     20  C   UNL     1       5.226   5.412  16.188  0.00  0.00    +0.000 A 
ATOM     21  H   UNL     1       7.278   7.743  16.951  0.00  0.00    +0.000 HD
ENDBRANCH   1  12
BRANCH   1  26
ATOM     22  C   UNL     1       4.727   2.606  19.829  0.00  0.00    +0.000 A 
ATOM     23  C   UNL     1       3.642   1.736  19.882  0.00  0.00    +0.000 A 
ATOM     24  C   UNL     1       2.469   2.143  19.285  0.00  0.00    +0.000 A 
ATOM     25  C   UNL     1       2.347   3.363  18.649  0.00  0.00    +0.000 A 
ATOM     26  C   UNL     1       3.402   4.267  18.574  0.00  0.00    +0.000 A 
ATOM     27  C   UNL     1       4.607   3.850  19.187  0.00  0.00    +0.000 A 
ATOM     28  O   UNL     1       1.091   3.540  18.146  0.00  0.00    +0.000 OA
ATOM     29  C   UNL     1       0.446   2.320  18.558  0.00  0.00    +0.000 C 
ATOM     30  O   UNL     1       1.320   1.414  19.256  0.00  0.00    +0.000 OA
ENDBRANCH   1  26
TORSDOF 3
ENDMDL
MODEL 4
REMARK VINA RESULT:      -8.4      1.311      1.913
REMARK  Name = 
REMARK  3 active torsions:
REMARK  status: ('A' for Active; 'I' for Inactive)
REMARK    1  A    between atoms: C_5  and  C_6
REMARK    2  A    between atoms: C_6  and  C_7
REMARK    3  A    between atoms: C_6  and  C_16
REMARK                            x       y       z     vdW  Elec       q    Type
REMARK                         _______ _______ _______ _____ _____    ______ ____
ROOT
ATOM      1  C   UNL     1       3.800   5.775  19.383  0.00  0.00    +0.000 C 
ENDROOT
BRANCH   1   2
ATOM      2  C   UNL     1       5.153   5.410  18.808  0.00  0.00    +0.000 A 
ATOM      3  C   UNL     1       6.355   5.255  19.484  0.00  0.00    +0.000 A 
ATOM      4  N   UNL     1       7.338   4.988  18.574  0.00  0.00    +0.000 N 
ATOM      5  C   UNL     1       6.813   4.931  17.307  0.00  0.00    +0.000 A 
ATOM      6  C   UNL     1       7.447   4.692  16.081  0.00  0.00    +0.000 A 
ATOM      7  C   UNL     1       6.653   4.685  14.931  0.00  0.00    +0.000 A 
ATOM      8  C   UNL     1       5.281   4.908  15.008  0.00  0.00    +0.000 A 
ATOM      9  C   UNL     1       4.665   5.155  16.241  0.00  0.00    +0.000 A 
ATOM     10  C   UNL     1       5.443   5.171  17.419  0.00  0.00    +0.000 A 
ATOM     11  H   UNL     1       8.316   4.861  18.795  0.00  0.00    +0.000 HD
ENDBRANCH   1   2
BRANCH   1  12
ATOM     12  C   UNL     1       3.159   7.028  18.809  0.00  0.00    +0.000 A 
ATOM     13  C   UNL     1       3.317   7.606  17.558  0.00  0.00    +0.000 A 
ATOM     14  N   UNL     1       2.491   8.689  17.452  0.00  0.00    +0.000 N 
ATOM     15  C   UNL     1       1.756   8.840  18.599  0.00  0.00    +0.000 A 
ATOM     16  C   UNL     1       0.766   9.781  18.913  0.00  0.00    +0.000 A 
ATOM     17  C   UNL     1       0.175   9.705  20.176  0.00  0.00    +0.000 A 
ATOM     18  C   UNL     1       0.566   8.730  21.088  0.00  0.00    +0.000 A 
ATOM     19  C   UNL     1       1.552   7.792  20.753  0.00  0.00    +0.000 A 
ATOM     20  C   UNL     1       2.161   7.836  19.480  0.00  0.00    +0.000 A 
ATOM     21  H   UNL     1       2.411   9.282  16.638  0.00  0.00    +0.000 HD
ENDBRANCH   1  12
BRANCH   1  26
ATOM     22  C   UNL     1       1.802   2.969  17.598  0.00  0.00    +0.000 A 
ATOM     23  C   UNL     1       1.301   2.247  18.676  0.00  0.00    +0.000 A 
ATOM     24  C   UNL     1       1.611   2.693  19.942  0.00  0.00    +0.000 A 
ATOM     25  C   UNL     1       2.388   3.813  20.163  0.00  0.00    +0.000 A 
ATOM     26  C   UNL     1       2.916   4.565  19.117  0.00  0.00    +0.000 A 
ATOM     27  C   UNL     1       2.597   4.108  17.816  0.00  0.00    +0.000 A 
ATOM     28  O   UNL     1       2.561   4.047  21.496  0.00  0.00    +0.000 OA
ATOM     29  C   UNL     1       1.836   2.945  22.073  0.00  0.00    +0.000 C 
ATOM     30  O   UNL     1       1.205   2.097  21.096  0.00  0.00    +0.000 OA
ENDBRANCH   1  26
TORSDOF 3
ENDMDL
MODEL 5
REMARK VINA RESULT:      -8.1      1.936      5.891
REMARK  Name = 
REMARK  3 active torsions:
REMARK  status: ('A' for Active; 'I' for Inactive)
REMARK    1  A    between atoms: C_5  and  C_6
REMARK    2  A    between atoms: C_6  and  C_7
REMARK    3  A    between atoms: C_6  and  C_16
REMARK                            x       y       z     vdW  Elec       q    Type
REMARK                         _______ _______ _______ _____ _____    ______ ____
ROOT
ATOM      1  C   UNL     1       3.266   6.456  18.920  0.00  0.00    +0.000 C 
ENDROOT
BRANCH   1   2
ATOM      2  C   UNL     1       2.557   7.762  18.625  0.00  0.00    +0.000 A 
ATOM      3  C   UNL     1       2.625   8.529  17.471  0.00  0.00    +0.000 A 
ATOM      4  N   UNL     1       1.881   9.660  17.653  0.00  0.00    +0.000 N 
ATOM      5  C   UNL     1       1.292   9.650  18.893  0.00  0.00    +0.000 A 
ATOM      6  C   UNL     1       0.459  10.599  19.500  0.00  0.00    +0.000 A 
ATOM      7  C   UNL     1      -0.007  10.322  20.788  0.00  0.00    +0.000 A 
ATOM      8  C   UNL     1       0.348   9.144  21.440  0.00  0.00    +0.000 A 
ATOM      9  C   UNL     1       1.191   8.212  20.821  0.00  0.00    +0.000 A 
ATOM     10  C   UNL     1       1.678   8.466  19.521  0.00  0.00    +0.000 A 
ATOM     11  H   UNL     1       1.783  10.406  16.978  0.00  0.00    +0.000 HD
ENDBRANCH   1   2
BRANCH   1  12
ATOM     12  C   UNL     1       2.401   5.207  18.843  0.00  0.00    +0.000 A 
ATOM     13  C   UNL     1       1.771   4.637  17.746  0.00  0.00    +0.000 A 
ATOM     14  N   UNL     1       1.156   3.479  18.129  0.00  0.00    +0.000 N 
ATOM     15  C   UNL     1       1.381   3.239  19.460  0.00  0.00    +0.000 A 
ATOM     16  C   UNL     1       0.980   2.159  20.258  0.00  0.00    +0.000 A 
ATOM     17  C   UNL     1       1.350   2.173  21.605  0.00  0.00    +0.000 A 
ATOM     18  C   UNL     1       2.084   3.231  22.130  0.00  0.00    +0.000 A 
ATOM     19  C   UNL     1       2.483   4.298  21.315  0.00  0.00    +0.000 A 
ATOM     20  C   UNL     1       2.135   4.308  19.947  0.00  0.00    +0.000 A 
ATOM     21  H   UNL     1       0.632   2.869  17.518  0.00  0.00    +0.000 HD
ENDBRANCH   1  12
BRANCH   1  26
ATOM     22  C   UNL     1       5.288   6.630  15.614  0.00  0.00    +0.000 A 
ATOM     23  C   UNL     1       6.563   6.271  16.042  0.00  0.00    +0.000 A 
ATOM     24  C   UNL     1       6.727   5.972  17.376  0.00  0.00    +0.000 A 
ATOM     25  C   UNL     1       5.683   6.018  18.279  0.00  0.00    +0.000 A 
ATOM     26  C   UNL     1       4.393   6.376  17.901  0.00  0.00    +0.000 A 
ATOM     27  C   UNL     1       4.223   6.683  16.530  0.00  0.00    +0.000 A 
ATOM     28  O   UNL     1       6.096   5.690  19.538  0.00  0.00    +0.000 OA
ATOM     29  C   UNL     1       7.502   5.463  19.324  0.00  0.00    +0.000 C 
ATOM     30  O   UNL     1       7.907   5.611  17.950  0.00  0.00    +0.000 OA
ENDBRANCH   1  26
TORSDOF 3
ENDMDL
MODEL 6
REMARK VINA RESULT:      -7.9      1.782      5.960
REMARK  Name = 
REMARK  3 active torsions:
REMARK  status: ('A' for Active; 'I' for Inactive)
REMARK    1  A    between atoms: C_5  and  C_6
REMARK    2  A    between atoms: C_6  and  C_7
REMARK    3  A    between atoms: C_6  and  C_16
REMARK                            x       y       z     vdW  Elec       q    Type
REMARK                         _______ _______ _______ _____ _____    ______ ____
ROOT
ATOM      1  C   UNL     1       2.833   6.005  17.823  0.00  0.00    +0.000 C 
ENDROOT
BRANCH   1   2
ATOM      2  C   UNL     1       2.346   6.856  18.978  0.00  0.00    +0.000 A 
ATOM      3  C   UNL     1       2.184   6.484  20.304  0.00  0.00    +0.000 A 
ATOM      4  N   UNL     1       1.661   7.539  20.996  0.00  0.00    +0.000 N 
ATOM      5  C   UNL     1       1.499   8.620  20.164  0.00  0.00    +0.000 A 
ATOM      6  C   UNL     1       0.995   9.898  20.439  0.00  0.00    +0.000 A 
ATOM      7  C   UNL     1       0.948  10.817  19.387  0.00  0.00    +0.000 A 
ATOM      8  C   UNL     1       1.389  10.468  18.113  0.00  0.00    +0.000 A 
ATOM      9  C   UNL     1       1.881   9.182  17.854  0.00  0.00    +0.000 A 
ATOM     10  C   UNL     1       1.937   8.233  18.897  0.00  0.00    +0.000 A 
ATOM     11  H   UNL     1       1.416   7.530  21.976  0.00  0.00    +0.000 HD
ENDBRANCH   1   2
BRANCH   1  12
ATOM     12  C   UNL     1       4.301   6.169  17.460  0.00  0.00    +0.000 A 
ATOM     13  C   UNL     1       5.280   6.939  18.072  0.00  0.00    +0.000 A 
ATOM     14  N   UNL     1       6.477   6.727  17.447  0.00  0.00    +0.000 N 
ATOM     15  C   UNL     1       6.332   5.808  16.441  0.00  0.00    +0.000 A 
ATOM     16  C   UNL     1       7.292   5.266  15.575  0.00  0.00    +0.000 A 
ATOM     17  C   UNL     1       6.860   4.336  14.626  0.00  0.00    +0.000 A 
ATOM     18  C   UNL     1       5.520   3.973  14.544  0.00  0.00    +0.000 A 
ATOM     19  C   UNL     1       4.576   4.519  15.424  0.00  0.00    +0.000 A 
ATOM     20  C   UNL     1       4.982   5.453  16.402  0.00  0.00    +0.000 A 
ATOM     21  H   UNL     1       7.351   7.163  17.703  0.00  0.00    +0.000 HD
ENDBRANCH   1  12
BRANCH   1  26
ATOM     22  C   UNL     1       1.144   2.543  18.283  0.00  0.00    +0.000 A 
ATOM     23  C   UNL     1       2.112   1.848  19.002  0.00  0.00    +0.000 A 
ATOM     24  C   UNL     1       3.270   2.519  19.326  0.00  0.00    +0.000 A 
ATOM     25  C   UNL     1       3.490   3.834  18.965  0.00  0.00    +0.000 A 
ATOM     26  C   UNL     1       2.555   4.569  18.242  0.00  0.00    +0.000 A 
ATOM     27  C   UNL     1       1.364   3.880  17.909  0.00  0.00    +0.000 A 
ATOM     28  O   UNL     1       4.709   4.273  19.392  0.00  0.00    +0.000 OA
ATOM     29  C   UNL     1       5.229   3.090  20.029  0.00  0.00    +0.000 C 
ATOM     30  O   UNL     1       4.311   1.980  20.018  0.00  0.00    +0.000 OA
ENDBRANCH   1  26
TORSDOF 3
ENDMDL
MODEL 7
REMARK VINA RESULT:      -7.6      4.214      7.597
REMARK  Name = 
REMARK  3 active torsions:
REMARK  status: ('A' for Active; 'I' for Inactive)
REMARK    1  A    between atoms: C_5  and  C_6
REMARK    2  A    between atoms: C_6  and  C_7
REMARK    3  A    between atoms: C_6  and  C_16
REMARK                            x       y       z     vdW  Elec       q    Type
REMARK                         _______ _______ _______ _____ _____    ______ ____
ROOT
ATOM      1  C   UNL     1       0.046  11.466  19.036  0.00  0.00    +0.000 C 
ENDROOT
BRANCH   1   2
ATOM      2  C   UNL     1       0.461  10.203  19.760  0.00  0.00    +0.000 A 
ATOM      3  C   UNL     1       0.160   9.826  21.061  0.00  0.00    +0.000 A 
ATOM      4  N   UNL     1       0.788   8.643  21.331  0.00  0.00    +0.000 N 
ATOM      5  C   UNL     1       1.477   8.206  20.226  0.00  0.00    +0.000 A 
ATOM      6  C   UNL     1       2.260   7.057  20.052  0.00  0.00    +0.000 A 
ATOM      7  C   UNL     1       2.849   6.858  18.801  0.00  0.00    +0.000 A 
ATOM      8  C   UNL     1       2.660   7.773  17.768  0.00  0.00    +0.000 A 
ATOM      9  C   UNL     1       1.883   8.921  17.963  0.00  0.00    +0.000 A 
ATOM     10  C   UNL     1       1.277   9.149  19.218  0.00  0.00    +0.000 A 
ATOM     11  H   UNL     1       0.761   8.159  22.217  0.00  0.00    +0.000 HD
ENDBRANCH   1   2
BRANCH   1  12
ATOM     12  C   UNL     1      -1.452  11.662  18.861  0.00  0.00    +0.000 A 
ATOM     13  C   UNL     1      -2.338  12.407  19.625  0.00  0.00    +0.000 A 
ATOM     14  N   UNL     1      -3.581  12.352  19.058  0.00  0.00    +0.000 N 
ATOM     15  C   UNL     1      -3.546  11.606  17.908  0.00  0.00    +0.000 A 
ATOM     16  C   UNL     1      -4.567  11.321  16.993  0.00  0.00    +0.000 A 
ATOM     17  C   UNL     1      -4.249  10.519  15.894  0.00  0.00    +0.000 A 
ATOM     18  C   UNL     1      -2.963  10.019  15.726  0.00  0.00    +0.000 A 
ATOM     19  C   UNL     1      -1.952  10.322  16.648  0.00  0.00    +0.000 A 
ATOM     20  C   UNL     1      -2.238  11.139  17.764  0.00  0.00    +0.000 A 
ATOM     21  H   UNL     1      -4.404  12.814  19.416  0.00  0.00    +0.000 HD
ENDBRANCH   1  12
BRANCH   1  26
ATOM     22  C   UNL     1       0.674  14.057  21.854  0.00  0.00    +0.000 A 
ATOM     23  C   UNL     1       1.810  14.712  21.390  0.00  0.00    +0.000 A 
ATOM     24  C   UNL     1       2.330  14.308  20.180  0.00  0.00    +0.000 A 
ATOM     25  C   UNL     1       1.765  13.293  19.434  0.00  0.00    +0.000 A 
ATOM     26  C   UNL     1       0.631  12.606  19.858  0.00  0.00    +0.000 A 
ATOM     27  C   UNL     1       0.096  13.021  21.100  0.00  0.00    +0.000 A 
ATOM     28  O   UNL     1       2.463  13.071  18.283  0.00  0.00    +0.000 OA
ATOM     29  C   UNL     1       3.529  14.031  18.408  0.00  0.00    +0.000 C 
ATOM     30  O   UNL     1       3.437  14.841  19.595  0.00  0.00    +0.000 OA
ENDBRANCH   1  26
TORSDOF 3
ENDMDL
MODEL 8
REMARK VINA RESULT:      -7.6      4.618      8.304
REMARK  Name = 
REMARK  3 active torsions:
REMARK  status: ('A' for Active; 'I' for Inactive)
REMARK    1  A    between atoms: C_5  and  C_6
REMARK    2  A    between atoms: C_6  and  C_7
REMARK    3  A    between atoms: C_6  and  C_16
REMARK                            x       y       z     vdW  Elec       q    Type
REMARK                         _______ _______ _______ _____ _____    ______ ____
ROOT
ATOM      1  C   UNL     1      -0.442  11.834  18.583  0.00  0.00    +0.000 C 
ENDROOT
BRANCH   1   2
ATOM      2  C   UNL     1      -0.012  13.261  18.852  0.00  0.00    +0.000 A 
ATOM      3  C   UNL     1      -0.790  14.317  19.306  0.00  0.00    +0.000 A 
ATOM      4  N   UNL     1      -0.018  15.444  19.347  0.00  0.00    +0.000 N 
ATOM      5  C   UNL     1       1.267  15.156  18.959  0.00  0.00    +0.000 A 
ATOM      6  C   UNL     1       2.382  15.997  18.846  0.00  0.00    +0.000 A 
ATOM      7  C   UNL     1       3.586  15.425  18.426  0.00  0.00    +0.000 A 
ATOM      8  C   UNL     1       3.668  14.067  18.133  0.00  0.00    +0.000 A 
ATOM      9  C   UNL     1       2.541  13.242  18.242  0.00  0.00    +0.000 A 
ATOM     10  C   UNL     1       1.311  13.793  18.661  0.00  0.00    +0.000 A 
ATOM     11  H   UNL     1      -0.344  16.362  19.613  0.00  0.00    +0.000 HD
ENDBRANCH   1   2
BRANCH   1  12
ATOM     12  C   UNL     1       0.083  10.794  19.561  0.00  0.00    +0.000 A 
ATOM     13  C   UNL     1      -0.165  10.657  20.919  0.00  0.00    +0.000 A 
ATOM     14  N   UNL     1       0.465   9.536  21.382  0.00  0.00    +0.000 N 
ATOM     15  C   UNL     1       1.112   8.896  20.357  0.00  0.00    +0.000 A 
ATOM     16  C   UNL     1       1.843   7.701  20.364  0.00  0.00    +0.000 A 
ATOM     17  C   UNL     1       2.407   7.277  19.158  0.00  0.00    +0.000 A 
ATOM     18  C   UNL     1       2.250   8.025  17.997  0.00  0.00    +0.000 A 
ATOM     19  C   UNL     1       1.509   9.214  18.007  0.00  0.00    +0.000 A 
ATOM     20  C   UNL     1       0.916   9.664  19.207  0.00  0.00    +0.000 A 
ATOM     21  H   UNL     1       0.439   9.207  22.337  0.00  0.00    +0.000 HD
ENDBRANCH   1  12
BRANCH   1  26
ATOM     22  C   UNL     1      -4.111  12.344  19.738  0.00  0.00    +0.000 A 
ATOM     23  C   UNL     1      -4.821  11.960  18.605  0.00  0.00    +0.000 A 
ATOM     24  C   UNL     1      -4.098  11.537  17.512  0.00  0.00    +0.000 A 
ATOM     25  C   UNL     1      -2.718  11.486  17.512  0.00  0.00    +0.000 A 
ATOM     26  C   UNL     1      -1.964  11.864  18.618  0.00  0.00    +0.000 A 
ATOM     27  C   UNL     1      -2.706  12.298  19.743  0.00  0.00    +0.000 A 
ATOM     28  O   UNL     1      -2.234  11.044  16.315  0.00  0.00    +0.000 OA
ATOM     29  C   UNL     1      -3.452  10.854  15.570  0.00  0.00    +0.000 C 
ATOM     30  O   UNL     1      -4.642  11.136  16.330  0.00  0.00    +0.000 OA
ENDBRANCH   1  26
TORSDOF 3
ENDMDL
MODEL 9
REMARK VINA RESULT:      -7.6      1.011      1.028
REMARK  Name = 
REMARK  3 active torsions:
REMARK  status: ('A' for Active; 'I' for Inactive)
REMARK    1  A    between atoms: C_5  and  C_6
REMARK    2  A    between atoms: C_6  and  C_7
REMARK    3  A    between atoms: C_6  and  C_16
REMARK                            x       y       z     vdW  Elec       q    Type
REMARK                         _______ _______ _______ _____ _____    ______ ____
ROOT
ATOM      1  C   UNL     1       3.102   6.722  18.734  0.00  0.00    +0.000 C 
ENDROOT
BRANCH   1   2
ATOM      2  C   UNL     1       4.049   6.617  17.556  0.00  0.00    +0.000 A 
ATOM      3  C   UNL     1       4.496   7.635  16.726  0.00  0.00    +0.000 A 
ATOM      4  N   UNL     1       5.285   7.092  15.752  0.00  0.00    +0.000 N 
ATOM      5  C   UNL     1       5.400   5.735  15.933  0.00  0.00    +0.000 A 
ATOM      6  C   UNL     1       6.098   4.784  15.178  0.00  0.00    +0.000 A 
ATOM      7  C   UNL     1       6.045   3.453  15.602  0.00  0.00    +0.000 A 
ATOM      8  C   UNL     1       5.320   3.093  16.735  0.00  0.00    +0.000 A 
ATOM      9  C   UNL     1       4.619   4.056  17.472  0.00  0.00    +0.000 A 
ATOM     10  C   UNL     1       4.654   5.407  17.065  0.00  0.00    +0.000 A 
ATOM     11  H   UNL     1       5.717   7.607  14.998  0.00  0.00    +0.000 HD
ENDBRANCH   1   2
BRANCH   1  12
ATOM     12  C   UNL     1       2.189   7.938  18.736  0.00  0.00    +0.000 A 
ATOM     13  C   UNL     1       1.762   8.723  17.674  0.00  0.00    +0.000 A 
ATOM     14  N   UNL     1       0.891   9.671  18.134  0.00  0.00    +0.000 N 
ATOM     15  C   UNL     1       0.699   9.525  19.483  0.00  0.00    +0.000 A 
ATOM     16  C   UNL     1      -0.133  10.242  20.353  0.00  0.00    +0.000 A 
ATOM     17  C   UNL     1      -0.130   9.879  21.702  0.00  0.00    +0.000 A 
ATOM     18  C   UNL     1       0.679   8.844  22.158  0.00  0.00    +0.000 A 
ATOM     19  C   UNL     1       1.498   8.132  21.271  0.00  0.00    +0.000 A 
ATOM     20  C   UNL     1       1.509   8.468  19.900  0.00  0.00    +0.000 A 
ATOM     21  H   UNL     1       0.433  10.364  17.561  0.00  0.00    +0.000 HD
ENDBRANCH   1  12
BRANCH   1  26
ATOM     22  C   UNL     1       0.875   3.789  17.514  0.00  0.00    +0.000 A 
ATOM     23  C   UNL     1       0.786   3.005  18.659  0.00  0.00    +0.000 A 
ATOM     24  C   UNL     1       1.434   3.451  19.790  0.00  0.00    +0.000 A 
ATOM     25  C   UNL     1       2.152   4.630  19.815  0.00  0.00    +0.000 A 
ATOM     26  C   UNL     1       2.274   5.445  18.694  0.00  0.00    +0.000 A 
ATOM     27  C   UNL     1       1.609   4.988  17.531  0.00  0.00    +0.000 A 
ATOM     28  O   UNL     1       2.707   4.851  21.041  0.00  0.00    +0.000 OA
ATOM     29  C   UNL     1       2.281   3.679  21.761  0.00  0.00    +0.000 C 
ATOM     30  O   UNL     1       1.448   2.798  20.984  0.00  0.00    +0.000 OA
ENDBRANCH   1  26
TORSDOF 3
ENDMDL
