MODEL 1
REMARK VINA RESULT:      -6.4      0.000      0.000
REMARK  Name = 
REMARK  4 active torsions:
REMARK  status: ('A' for Active; 'I' for Inactive)
REMARK    1  A    between atoms: N_1  and  C_2
REMARK    2  A    between atoms: C_2  and  C_3
REMARK    3  A    between atoms: C_3  and  C_4
REMARK    4  A    between atoms: C_6  and  C_7
REMARK                            x       y       z     vdW  Elec       q    Type
REMARK                         _______ _______ _______ _____ _____    ______ ____
ROOT
ATOM      1  C   UNL     1       4.897   4.616  16.095  0.00  0.00    +0.000 A 
ATOM      2  N   UNL     1       4.306   3.777  16.921  0.00  0.00    +0.000 NA
ATOM      3  C   UNL     1       3.740   4.559  17.910  0.00  0.00    +0.000 A 
ATOM      4  C   UNL     1       4.005   5.890  17.673  0.00  0.00    +0.000 A 
ATOM      5  N   UNL     1       4.752   5.908  16.534  0.00  0.00    +0.000 N 
ATOM      6  H   UNL     1       5.124   6.714  16.043  0.00  0.00    +0.000 HD
ENDROOT
BRANCH   3   7
ATOM      7  C   UNL     1       2.975   4.020  19.025  0.00  0.00    +0.000 A 
ATOM      8  C   UNL     1       3.610   3.198  19.970  0.00  0.00    +0.000 A 
ATOM      9  C   UNL     1       2.896   2.669  21.048  0.00  0.00    +0.000 A 
ATOM     10  C   UNL     1       1.544   2.961  21.184  0.00  0.00    +0.000 A 
ATOM     11  F   UNL     1       0.859   2.454  22.217  0.00  0.00    +0.000 F 
ATOM     12  C   UNL     1       0.895   3.770  20.263  0.00  0.00    +0.000 A 
ATOM     13  C   UNL     1       1.608   4.298  19.186  0.00  0.00    +0.000 A 
ENDBRANCH   3   7
BRANCH   1  14
ATOM     14  C   UNL     1       5.658   4.291  14.851  0.00  0.00    +0.000 C 
BRANCH  14  15
ATOM     15  C   UNL     1       7.130   4.735  14.906  0.00  0.00    +0.000 C 
BRANCH  15  16
ATOM     16  N   UNL     1       7.721   4.612  16.251  0.00  0.00    +0.000 NA
ATOM     17  H   UNL     1       7.033   4.923  16.938  0.00  0.00    +0.000 HD
ATOM     18  H   UNL     1       8.501   5.268  16.330  0.00  0.00    +0.000 HD
ENDBRANCH  15  16
ENDBRANCH  14  15
ENDBRANCH   1  14
TORSDOF 4
ENDMDL
MODEL 2
REMARK VINA RESULT:      -6.4      3.644      6.159
REMARK  Name = 
REMARK  4 active torsions:
REMARK  status: ('A' for Active; 'I' for Inactive)
REMARK    1  A    between atoms: N_1  and  C_2
REMARK    2  A    between atoms: C_2  and  C_3
REMARK    3  A    between atoms: C_3  and  C_4
REMARK    4  A    between atoms: C_6  and  C_7
REMARK                            x       y       z     vdW  Elec       q    Type
REMARK                         _______ _______ _______ _____ _____    ______ ____
ROOT
ATOM      1  C   UNL     1       2.321   3.532  19.450  0.00  0.00    +0.000 A 
ATOM      2  N   UNL     1       3.081   4.607  19.427  0.00  0.00    +0.000 NA
ATOM      3  C   UNL     1       4.133   4.308  18.581  0.00  0.00    +0.000 A 
ATOM      4  C   UNL     1       4.001   3.024  18.097  0.00  0.00    +0.000 A 
ATOM      5  N   UNL     1       2.863   2.542  18.669  0.00  0.00    +0.000 N 
ATOM      6  H   UNL     1       2.436   1.630  18.540  0.00  0.00    +0.000 HD
ENDROOT
BRANCH   3   7
ATOM      7  C   UNL     1       5.205   5.240  18.267  0.00  0.00    +0.000 A 
ATOM      8  C   UNL     1       4.994   6.243  17.308  0.00  0.00    +0.000 A 
ATOM      9  C   UNL     1       6.009   7.149  16.990  0.00  0.00    +0.000 A 
ATOM     10  C   UNL     1       7.238   7.054  17.631  0.00  0.00    +0.000 A 
ATOM     11  F   UNL     1       8.212   7.922  17.327  0.00  0.00    +0.000 F 
ATOM     12  C   UNL     1       7.471   6.071  18.582  0.00  0.00    +0.000 A 
ATOM     13  C   UNL     1       6.457   5.166  18.900  0.00  0.00    +0.000 A 
ENDBRANCH   3   7
BRANCH   1  14
ATOM     14  C   UNL     1       1.051   3.325  20.209  0.00  0.00    +0.000 C 
BRANCH  14  15
ATOM     15  C   UNL     1       1.270   2.724  21.608  0.00  0.00    +0.000 C 
BRANCH  15  16
ATOM     16  N   UNL     1       2.695   2.578  21.958  0.00  0.00    +0.000 NA
ATOM     17  H   UNL     1       3.218   3.337  21.517  0.00  0.00    +0.000 HD
ATOM     18  H   UNL     1       3.053   1.719  21.533  0.00  0.00    +0.000 HD
ENDBRANCH  15  16
ENDBRANCH  14  15
ENDBRANCH   1  14
TORSDOF 4
ENDMDL
MODEL 3
REMARK VINA RESULT:      -6.3      0.364      1.284
REMARK  Name = 
REMARK  4 active torsions:
REMARK  status: ('A' for Active; 'I' for Inactive)
REMARK    1  A    between atoms: N_1  and  C_2
REMARK    2  A    between atoms: C_2  and  C_3
REMARK    3  A    between atoms: C_3  and  C_4
REMARK    4  A    between atoms: C_6  and  C_7
REMARK                            x       y       z     vdW  Elec       q    Type
REMARK                         _______ _______ _______ _____ _____    ______ ____
ROOT
ATOM      1  C   UNL     1       4.910   5.105  16.092  0.00  0.00    +0.000 A 
ATOM      2  N   UNL     1       4.395   4.196  16.893  0.00  0.00    +0.000 NA
ATOM      3  C   UNL     1       3.776   4.898  17.910  0.00  0.00    +0.000 A 
ATOM      4  C   UNL     1       3.933   6.253  17.715  0.00  0.00    +0.000 A 
ATOM      5  N   UNL     1       4.666   6.367  16.573  0.00  0.00    +0.000 N 
ATOM      6  H   UNL     1       4.970   7.215  16.106  0.00  0.00    +0.000 HD
ENDROOT
BRANCH   3   7
ATOM      7  C   UNL     1       3.066   4.265  19.011  0.00  0.00    +0.000 A 
ATOM      8  C   UNL     1       1.773   4.699  19.346  0.00  0.00    +0.000 A 
ATOM      9  C   UNL     1       1.072   4.106  20.399  0.00  0.00    +0.000 A 
ATOM     10  C   UNL     1       1.663   3.075  21.120  0.00  0.00    +0.000 A 
ATOM     11  F   UNL     1       0.993   2.505  22.130  0.00  0.00    +0.000 F 
ATOM     12  C   UNL     1       2.939   2.628  20.808  0.00  0.00    +0.000 A 
ATOM     13  C   UNL     1       3.639   3.221  19.757  0.00  0.00    +0.000 A 
ENDBRANCH   3   7
BRANCH   1  14
ATOM     14  C   UNL     1       5.685   4.882  14.834  0.00  0.00    +0.000 C 
BRANCH  14  15
ATOM     15  C   UNL     1       7.204   4.797  15.062  0.00  0.00    +0.000 C 
BRANCH  15  16
ATOM     16  N   UNL     1       7.570   4.721  16.489  0.00  0.00    +0.000 NA
ATOM     17  H   UNL     1       7.934   5.629  16.780  0.00  0.00    +0.000 HD
ATOM     18  H   UNL     1       8.350   4.068  16.594  0.00  0.00    +0.000 HD
ENDBRANCH  15  16
ENDBRANCH  14  15
ENDBRANCH   1  14
TORSDOF 4
ENDMDL
MODEL 4
REMARK VINA RESULT:      -6.3      3.580      5.987
REMARK  Name = 
REMARK  4 active torsions:
REMARK  status: ('A' for Active; 'I' for Inactive)
REMARK    1  A    between atoms: N_1  and  C_2
REMARK    2  A    between atoms: C_2  and  C_3
REMARK    3  A    between atoms: C_3  and  C_4
REMARK    4  A    between atoms: C_6  and  C_7
REMARK                            x       y       z     vdW  Elec       q    Type
REMARK                         _______ _______ _______ _____ _____    ______ ____
ROOT
ATOM      1  C   UNL     1       2.258   3.317  19.300  0.00  0.00    +0.000 A 
ATOM      2  N   UNL     1       2.999   4.406  19.296  0.00  0.00    +0.000 NA
ATOM      3  C   UNL     1       4.028   4.158  18.407  0.00  0.00    +0.000 A 
ATOM      4  C   UNL     1       3.902   2.892  17.877  0.00  0.00    +0.000 A 
ATOM      5  N   UNL     1       2.791   2.368  18.464  0.00  0.00    +0.000 N 
ATOM      6  H   UNL     1       2.375   1.455  18.313  0.00  0.00    +0.000 HD
ENDROOT
BRANCH   3   7
ATOM      7  C   UNL     1       5.074   5.120  18.097  0.00  0.00    +0.000 A 
ATOM      8  C   UNL     1       6.290   5.075  18.798  0.00  0.00    +0.000 A 
ATOM      9  C   UNL     1       7.309   5.989  18.517  0.00  0.00    +0.000 A 
ATOM     10  C   UNL     1       7.114   6.951  17.533  0.00  0.00    +0.000 A 
ATOM     11  F   UNL     1       8.089   7.828  17.263  0.00  0.00    +0.000 F 
ATOM     12  C   UNL     1       5.921   7.017  16.827  0.00  0.00    +0.000 A 
ATOM     13  C   UNL     1       4.903   6.103  17.108  0.00  0.00    +0.000 A 
ENDBRANCH   3   7
BRANCH   1  14
ATOM     14  C   UNL     1       1.016   3.058  20.090  0.00  0.00    +0.000 C 
BRANCH  14  15
ATOM     15  C   UNL     1       1.286   2.807  21.583  0.00  0.00    +0.000 C 
BRANCH  15  16
ATOM     16  N   UNL     1       2.709   2.558  21.879  0.00  0.00    +0.000 NA
ATOM     17  H   UNL     1       2.910   2.899  22.820  0.00  0.00    +0.000 HD
ATOM     18  H   UNL     1       3.281   3.131  21.254  0.00  0.00    +0.000 HD
ENDBRANCH  15  16
ENDBRANCH  14  15
ENDBRANCH   1  14
TORSDOF 4
ENDMDL
MODEL 5
REMARK VINA RESULT:      -6.3      2.601      3.089
REMARK  Name = 
REMARK  4 active torsions:
REMARK  status: ('A' for Active; 'I' for Inactive)
REMARK    1  A    between atoms: N_1  and  C_2
REMARK    2  A    between atoms: C_2  and  C_3
REMARK    3  A    between atoms: C_3  and  C_4
REMARK    4  A    between atoms: C_6  and  C_7
REMARK                            x       y       z     vdW  Elec       q    Type
REMARK                         _______ _______ _______ _____ _____    ______ ____
ROOT
ATOM      1  C   UNL     1       7.110   5.612  18.235  0.00  0.00    +0.000 A 
ATOM      2  N   UNL     1       5.915   5.341  18.719  0.00  0.00    +0.000 NA
ATOM      3  C   UNL     1       5.338   4.458  17.826  0.00  0.00    +0.000 A 
ATOM      4  C   UNL     1       6.203   4.204  16.784  0.00  0.00    +0.000 A 
ATOM      5  N   UNL     1       7.309   4.953  17.047  0.00  0.00    +0.000 N 
ATOM      6  H   UNL     1       8.166   5.016  16.506  0.00  0.00    +0.000 HD
ENDROOT
BRANCH   3   7
ATOM      7  C   UNL     1       4.007   3.894  17.996  0.00  0.00    +0.000 A 
ATOM      8  C   UNL     1       3.865   2.547  18.363  0.00  0.00    +0.000 A 
ATOM      9  C   UNL     1       2.598   1.984  18.533  0.00  0.00    +0.000 A 
ATOM     10  C   UNL     1       1.468   2.769  18.335  0.00  0.00    +0.000 A 
ATOM     11  F   UNL     1       0.252   2.230  18.496  0.00  0.00    +0.000 F 
ATOM     12  C   UNL     1       1.582   4.103  17.971  0.00  0.00    +0.000 A 
ATOM     13  C   UNL     1       2.849   4.665  17.802  0.00  0.00    +0.000 A 
ENDBRANCH   3   7
BRANCH   1  14
ATOM     14  C   UNL     1       8.150   6.514  18.816  0.00  0.00    +0.000 C 
BRANCH  14  15
ATOM     15  C   UNL     1       8.172   7.910  18.172  0.00  0.00    +0.000 C 
BRANCH  15  16
ATOM     16  N   UNL     1       7.161   8.073  17.110  0.00  0.00    +0.000 NA
ATOM     17  H   UNL     1       7.370   8.927  16.591  0.00  0.00    +0.000 HD
ATOM     18  H   UNL     1       6.250   8.234  17.544  0.00  0.00    +0.000 HD
ENDBRANCH  15  16
ENDBRANCH  14  15
ENDBRANCH   1  14
TORSDOF 4
ENDMDL
MODEL 6
REMARK VINA RESULT:      -6.3      2.371      3.109
REMARK  Name = 
REMARK  4 active torsions:
REMARK  status: ('A' for Active; 'I' for Inactive)
REMARK    1  A    between atoms: N_1  and  C_2
REMARK    2  A    between atoms: C_2  and  C_3
REMARK    3  A    between atoms: C_3  and  C_4
REMARK    4  A    between atoms: C_6  and  C_7
REMARK                            x       y       z     vdW  Elec       q    Type
REMARK                         _______ _______ _______ _____ _____    ______ ____
ROOT
ATOM      1  C   UNL     1       6.593   6.256  17.085  0.00  0.00    +0.000 A 
ATOM      2  N   UNL     1       5.571   5.837  17.802  0.00  0.00    +0.000 NA
ATOM      3  C   UNL     1       4.941   4.876  17.036  0.00  0.00    +0.000 A 
ATOM      4  C   UNL     1       5.595   4.724  15.833  0.00  0.00    +0.000 A 
ATOM      5  N   UNL     1       6.625   5.615  15.871  0.00  0.00    +0.000 N 
ATOM      6  H   UNL     1       7.335   5.782  15.166  0.00  0.00    +0.000 HD
ENDROOT
BRANCH   3   7
ATOM      7  C   UNL     1       3.760   4.145  17.470  0.00  0.00    +0.000 A 
ATOM      8  C   UNL     1       2.576   4.845  17.755  0.00  0.00    +0.000 A 
ATOM      9  C   UNL     1       1.430   4.164  18.174  0.00  0.00    +0.000 A 
ATOM     10  C   UNL     1       1.465   2.781  18.309  0.00  0.00    +0.000 A 
ATOM     11  F   UNL     1       0.367   2.128  18.711  0.00  0.00    +0.000 F 
ATOM     12  C   UNL     1       2.623   2.068  18.034  0.00  0.00    +0.000 A 
ATOM     13  C   UNL     1       3.768   2.748  17.615  0.00  0.00    +0.000 A 
ENDBRANCH   3   7
BRANCH   1  14
ATOM     14  C   UNL     1       7.605   7.293  17.450  0.00  0.00    +0.000 C 
BRANCH  14  15
ATOM     15  C   UNL     1       8.234   7.067  18.836  0.00  0.00    +0.000 C 
BRANCH  15  16
ATOM     16  N   UNL     1       8.028   5.699  19.347  0.00  0.00    +0.000 NA
ATOM     17  H   UNL     1       7.682   5.759  20.306  0.00  0.00    +0.000 HD
ATOM     18  H   UNL     1       8.935   5.232  19.413  0.00  0.00    +0.000 HD
ENDBRANCH  15  16
ENDBRANCH  14  15
ENDBRANCH   1  14
TORSDOF 4
ENDMDL
MODEL 7
REMARK VINA RESULT:      -6.2      3.437      6.079
REMARK  Name = 
REMARK  4 active torsions:
REMARK  status: ('A' for Active; 'I' for Inactive)
REMARK    1  A    between atoms: N_1  and  C_2
REMARK    2  A    between atoms: C_2  and  C_3
REMARK    3  A    between atoms: C_3  and  C_4
REMARK    4  A    between atoms: C_6  and  C_7
REMARK                            x       y       z     vdW  Elec       q    Type
REMARK                         _______ _______ _______ _____ _____    ______ ____
ROOT
ATOM      1  C   UNL     1       2.061   4.391  19.810  0.00  0.00    +0.000 A 
ATOM      2  N   UNL     1       2.772   4.031  18.762  0.00  0.00    +0.000 NA
ATOM      3  C   UNL     1       3.722   5.021  18.592  0.00  0.00    +0.000 A 
ATOM      4  C   UNL     1       3.568   5.995  19.555  0.00  0.00    +0.000 A 
ATOM      5  N   UNL     1       2.505   5.592  20.305  0.00  0.00    +0.000 N 
ATOM      6  H   UNL     1       2.102   6.049  21.116  0.00  0.00    +0.000 HD
ENDROOT
BRANCH   3   7
ATOM      7  C   UNL     1       4.726   5.002  17.540  0.00  0.00    +0.000 A 
ATOM      8  C   UNL     1       4.629   4.062  16.502  0.00  0.00    +0.000 A 
ATOM      9  C   UNL     1       5.582   4.025  15.481  0.00  0.00    +0.000 A 
ATOM     10  C   UNL     1       6.636   4.931  15.496  0.00  0.00    +0.000 A 
ATOM     11  F   UNL     1       7.551   4.896  14.518  0.00  0.00    +0.000 F 
ATOM     12  C   UNL     1       6.755   5.869  16.511  0.00  0.00    +0.000 A 
ATOM     13  C   UNL     1       5.803   5.905  17.531  0.00  0.00    +0.000 A 
ENDBRANCH   3   7
BRANCH   1  14
ATOM     14  C   UNL     1       0.906   3.669  20.424  0.00  0.00    +0.000 C 
BRANCH  14  15
ATOM     15  C   UNL     1       1.331   2.597  21.443  0.00  0.00    +0.000 C 
BRANCH  15  16
ATOM     16  N   UNL     1       2.741   2.719  21.855  0.00  0.00    +0.000 NA
ATOM     17  H   UNL     1       3.104   3.610  21.514  0.00  0.00    +0.000 HD
ATOM     18  H   UNL     1       3.288   2.001  21.374  0.00  0.00    +0.000 HD
ENDBRANCH  15  16
ENDBRANCH  14  15
ENDBRANCH   1  14
TORSDOF 4
ENDMDL
MODEL 8
REMARK VINA RESULT:      -6.2      3.428      6.073
REMARK  Name = 
REMARK  4 active torsions:
REMARK  status: ('A' for Active; 'I' for Inactive)
REMARK    1  A    between atoms: N_1  and  C_2
REMARK    2  A    between atoms: C_2  and  C_3
REMARK    3  A    between atoms: C_3  and  C_4
REMARK    4  A    between atoms: C_6  and  C_7
REMARK                            x       y       z     vdW  Elec       q    Type
REMARK                         _______ _______ _______ _____ _____    ______ ____
ROOT
ATOM      1  C   UNL     1       2.074   4.128  19.674  0.00  0.00    +0.000 A 
ATOM      2  N   UNL     1       2.824   3.807  18.639  0.00  0.00    +0.000 NA
ATOM      3  C   UNL     1       3.707   4.857  18.473  0.00  0.00    +0.000 A 
ATOM      4  C   UNL     1       3.473   5.828  19.423  0.00  0.00    +0.000 A 
ATOM      5  N   UNL     1       2.428   5.361  20.161  0.00  0.00    +0.000 N 
ATOM      6  H   UNL     1       1.982   5.798  20.962  0.00  0.00    +0.000 HD
ENDROOT
BRANCH   3   7
ATOM      7  C   UNL     1       4.726   4.896  17.436  0.00  0.00    +0.000 A 
ATOM      8  C   UNL     1       5.788   5.810  17.539  0.00  0.00    +0.000 A 
ATOM      9  C   UNL     1       6.778   5.865  16.555  0.00  0.00    +0.000 A 
ATOM     10  C   UNL     1       6.710   5.006  15.465  0.00  0.00    +0.000 A 
ATOM     11  F   UNL     1       7.659   5.058  14.521  0.00  0.00    +0.000 F 
ATOM     12  C   UNL     1       5.671   4.095  15.341  0.00  0.00    +0.000 A 
ATOM     13  C   UNL     1       4.681   4.040  16.323  0.00  0.00    +0.000 A 
ENDBRANCH   3   7
BRANCH   1  14
ATOM     14  C   UNL     1       0.961   3.335  20.279  0.00  0.00    +0.000 C 
BRANCH  14  15
ATOM     15  C   UNL     1       1.344   2.668  21.611  0.00  0.00    +0.000 C 
BRANCH  15  16
ATOM     16  N   UNL     1       2.802   2.600  21.825  0.00  0.00    +0.000 NA
ATOM     17  H   UNL     1       3.035   3.150  22.653  0.00  0.00    +0.000 HD
ATOM     18  H   UNL     1       3.271   3.068  21.046  0.00  0.00    +0.000 HD
ENDBRANCH  15  16
ENDBRANCH  14  15
ENDBRANCH   1  14
TORSDOF 4
ENDMDL
MODEL 9
REMARK VINA RESULT:      -6.1      0.924      1.018
REMARK  Name = 
REMARK  4 active torsions:
REMARK  status: ('A' for Active; 'I' for Inactive)
REMARK    1  A    between atoms: N_1  and  C_2
REMARK    2  A    between atoms: C_2  and  C_3
REMARK    3  A    between atoms: C_3  and  C_4
REMARK    4  A    between atoms: C_6  and  C_7
REMARK                            x       y       z     vdW  Elec       q    Type
REMARK                         _______ _______ _______ _____ _____    ______ ____
ROOT
ATOM      1  C   UNL     1       4.953   5.477  16.216  0.00  0.00    +0.000 A 
ATOM      2  N   UNL     1       4.422   4.523  16.953  0.00  0.00    +0.000 NA
ATOM      3  C   UNL     1       3.745   5.167  17.972  0.00  0.00    +0.000 A 
ATOM      4  C   UNL     1       3.881   6.532  17.844  0.00  0.00    +0.000 A 
ATOM      5  N   UNL     1       4.661   6.711  16.742  0.00  0.00    +0.000 N 
ATOM      6  H   UNL     1       4.966   7.586  16.326  0.00  0.00    +0.000 HD
ENDROOT
BRANCH   3   7
ATOM      7  C   UNL     1       3.001   4.471  19.011  0.00  0.00    +0.000 A 
ATOM      8  C   UNL     1       2.539   3.165  18.779  0.00  0.00    +0.000 A 
ATOM      9  C   UNL     1       1.823   2.477  19.762  0.00  0.00    +0.000 A 
ATOM     10  C   UNL     1       1.568   3.094  20.980  0.00  0.00    +0.000 A 
ATOM     11  F   UNL     1       0.881   2.436  21.923  0.00  0.00    +0.000 F 
ATOM     12  C   UNL     1       2.013   4.384  21.234  0.00  0.00    +0.000 A 
ATOM     13  C   UNL     1       2.728   5.071  20.251  0.00  0.00    +0.000 A 
ENDBRANCH   3   7
BRANCH   1  14
ATOM     14  C   UNL     1       5.786   5.326  14.985  0.00  0.00    +0.000 C 
BRANCH  14  15
ATOM     15  C   UNL     1       6.980   4.375  15.173  0.00  0.00    +0.000 C 
BRANCH  15  16
ATOM     16  N   UNL     1       7.672   4.563  16.461  0.00  0.00    +0.000 NA
ATOM     17  H   UNL     1       8.679   4.585  16.290  0.00  0.00    +0.000 HD
ATOM     18  H   UNL     1       7.513   3.739  17.044  0.00  0.00    +0.000 HD
ENDBRANCH  15  16
ENDBRANCH  14  15
ENDBRANCH   1  14
TORSDOF 4
ENDMDL
