MODEL 1
REMARK VINA RESULT:      -9.0      0.000      0.000
REMARK  Name = 
REMARK  9 active torsions:
REMARK  status: ('A' for Active; 'I' for Inactive)
REMARK    1  A    between atoms: C_1  and  C_2
REMARK    2  A    between atoms: C_2  and  C_4
REMARK    3  A    between atoms: C_8  and  N_9
REMARK    4  A    between atoms: C_10  and  C_12
REMARK    5  A    between atoms: C_12  and  O_13
REMARK    6  A    between atoms: C_12  and  C_27
REMARK    7  A    between atoms: O_13  and  C_14
REMARK    8  A    between atoms: C_14  and  C_16
REMARK    9  A    between atoms: C_17  and  C_18
REMARK                            x       y       z     vdW  Elec       q    Type
REMARK                         _______ _______ _______ _____ _____    ______ ____
ROOT
ATOM      1  C   UNL     1       6.204   5.400  17.880  0.00  0.00    +0.000 C 
ENDROOT
BRANCH   1   2
ATOM      2  C   UNL     1       4.711   5.124  17.794  0.00  0.00    +0.000 A 
ATOM      3  C   UNL     1       3.806   6.190  17.940  0.00  0.00    +0.000 A 
ATOM      4  C   UNL     1       2.434   5.951  18.025  0.00  0.00    +0.000 A 
ATOM      5  C   UNL     1       1.951   4.647  17.967  0.00  0.00    +0.000 A 
ATOM      6  C   UNL     1       2.835   3.583  17.797  0.00  0.00    +0.000 A 
ATOM      7  C   UNL     1       4.208   3.818  17.703  0.00  0.00    +0.000 A 
ENDBRANCH   1   2
BRANCH   1   9
ATOM      8  N   UNL     1       6.217   5.260  15.418  0.00  0.00    +0.000 N 
ATOM      9  C   UNL     1       6.892   4.894  16.587  0.00  0.00    +0.000 C 
ATOM     10  O   UNL     1       7.881   4.169  16.668  0.00  0.00    +0.000 OA
ATOM     11  H   UNL     1       5.334   5.739  15.537  0.00  0.00    +0.000 HD
BRANCH   8  16
ATOM     12  C   UNL     1       6.212   3.467  12.171  0.00  0.00    +0.000 A 
ATOM     13  C   UNL     1       7.300   4.061  11.521  0.00  0.00    +0.000 A 
ATOM     14  C   UNL     1       8.009   5.079  12.150  0.00  0.00    +0.000 A 
ATOM     15  C   UNL     1       7.651   5.495  13.430  0.00  0.00    +0.000 A 
ATOM     16  C   UNL     1       6.583   4.900  14.105  0.00  0.00    +0.000 A 
ATOM     17  C   UNL     1       5.845   3.901  13.457  0.00  0.00    +0.000 A 
BRANCH  12  19
ATOM     18  C   UNL     1       6.142   1.054  11.241  0.00  0.00    +0.000 C 
ATOM     19  C   UNL     1       5.440   2.360  11.529  0.00  0.00    +0.000 C 
ATOM     20  O   UNL     1       4.251   2.519  11.256  0.00  0.00    +0.000 OA
ENDBRANCH  12  19
ENDBRANCH   8  16
ENDBRANCH   1   9
BRANCH   1  21
ATOM     21  O   UNL     1       6.454   6.785  18.134  0.00  0.00    +0.000 OA
BRANCH  21  22
ATOM     22  C   UNL     1       7.734   7.020  18.524  0.00  0.00    +0.000 C 
ATOM     23  O   UNL     1       8.365   6.391  19.357  0.00  0.00    +0.000 OA
BRANCH  22  24
ATOM     24  C   UNL     1       8.226   8.218  17.823  0.00  0.00    +0.000 C 
ATOM     25  C   UNL     1       8.831   9.182  18.536  0.00  0.00    +0.000 C 
BRANCH  25  26
ATOM     26  C   UNL     1       8.964  10.553  18.024  0.00  0.00    +0.000 A 
ATOM     27  C   UNL     1       7.863  11.321  17.577  0.00  0.00    +0.000 A 
ATOM     28  C   UNL     1       7.955  12.714  17.492  0.00  0.00    +0.000 A 
ATOM     29  C   UNL     1       9.144  13.288  17.878  0.00  0.00    +0.000 A 
ATOM     30  C   UNL     1      10.251  12.531  18.189  0.00  0.00    +0.000 A 
ATOM     31  C   UNL     1      10.213  11.159  18.217  0.00  0.00    +0.000 A 
ATOM     32  O   UNL     1      11.287  13.295  18.639  0.00  0.00    +0.000 OA
ATOM     33  C   UNL     1      10.552  14.497  18.939  0.00  0.00    +0.000 C 
ATOM     34  O   UNL     1       9.354  14.610  18.139  0.00  0.00    +0.000 OA
ENDBRANCH  25  26
ENDBRANCH  22  24
ENDBRANCH  21  22
ENDBRANCH   1  21
TORSDOF 8
ENDMDL
MODEL 2
REMARK VINA RESULT:      -8.8      1.332      1.415
REMARK  Name = 
REMARK  9 active torsions:
REMARK  status: ('A' for Active; 'I' for Inactive)
REMARK    1  A    between atoms: C_1  and  C_2
REMARK    2  A    between atoms: C_2  and  C_4
REMARK    3  A    between atoms: C_8  and  N_9
REMARK    4  A    between atoms: C_10  and  C_12
REMARK    5  A    between atoms: C_12  and  O_13
REMARK    6  A    between atoms: C_12  and  C_27
REMARK    7  A    between atoms: O_13  and  C_14
REMARK    8  A    between atoms: C_14  and  C_16
REMARK    9  A    between atoms: C_17  and  C_18
REMARK                            x       y       z     vdW  Elec       q    Type
REMARK                         _______ _______ _______ _____ _____    ______ ____
ROOT
ATOM      1  C   UNL     1       6.310   5.845  17.640  0.00  0.00    +0.000 C 
ENDROOT
BRANCH   1   2
ATOM      2  C   UNL     1       4.814   5.567  17.661  0.00  0.00    +0.000 A 
ATOM      3  C   UNL     1       3.924   6.623  17.922  0.00  0.00    +0.000 A 
ATOM      4  C   UNL     1       2.563   6.376  18.105  0.00  0.00    +0.000 A 
ATOM      5  C   UNL     1       2.077   5.073  18.031  0.00  0.00    +0.000 A 
ATOM      6  C   UNL     1       2.946   4.021  17.746  0.00  0.00    +0.000 A 
ATOM      7  C   UNL     1       4.306   4.264  17.555  0.00  0.00    +0.000 A 
ENDBRANCH   1   2
BRANCH   1   9
ATOM      8  N   UNL     1       6.301   5.511  15.197  0.00  0.00    +0.000 N 
ATOM      9  C   UNL     1       6.937   5.169  16.394  0.00  0.00    +0.000 C 
ATOM     10  O   UNL     1       7.846   4.353  16.538  0.00  0.00    +0.000 OA
ATOM     11  H   UNL     1       5.474   6.087  15.273  0.00  0.00    +0.000 HD
BRANCH   8  16
ATOM     12  C   UNL     1       6.073   3.512  12.081  0.00  0.00    +0.000 A 
ATOM     13  C   UNL     1       7.238   3.902  11.411  0.00  0.00    +0.000 A 
ATOM     14  C   UNL     1       8.077   4.854  11.981  0.00  0.00    +0.000 A 
ATOM     15  C   UNL     1       7.770   5.404  13.223  0.00  0.00    +0.000 A 
ATOM     16  C   UNL     1       6.624   5.012  13.918  0.00  0.00    +0.000 A 
ATOM     17  C   UNL     1       5.760   4.081  13.327  0.00  0.00    +0.000 A 
BRANCH  12  19
ATOM     18  C   UNL     1       3.780   2.898  11.052  0.00  0.00    +0.000 C 
ATOM     19  C   UNL     1       5.160   2.479  11.502  0.00  0.00    +0.000 C 
ATOM     20  O   UNL     1       5.542   1.316  11.390  0.00  0.00    +0.000 OA
ENDBRANCH  12  19
ENDBRANCH   8  16
ENDBRANCH   1   9
BRANCH   1  21
ATOM     21  O   UNL     1       6.570   7.250  17.697  0.00  0.00    +0.000 OA
BRANCH  21  22
ATOM     22  C   UNL     1       7.748   7.537  18.310  0.00  0.00    +0.000 C 
ATOM     23  O   UNL     1       8.421   6.772  18.979  0.00  0.00    +0.000 OA
BRANCH  22  24
ATOM     24  C   UNL     1       8.053   8.962  18.097  0.00  0.00    +0.000 C 
ATOM     25  C   UNL     1       9.156   9.478  18.661  0.00  0.00    +0.000 C 
BRANCH  25  26
ATOM     26  C   UNL     1       9.316  10.925  18.862  0.00  0.00    +0.000 A 
ATOM     27  C   UNL     1       9.138  11.873  17.827  0.00  0.00    +0.000 A 
ATOM     28  C   UNL     1       8.892  13.217  18.127  0.00  0.00    +0.000 A 
ATOM     29  C   UNL     1       8.812  13.558  19.458  0.00  0.00    +0.000 A 
ATOM     30  C   UNL     1       9.112  12.660  20.458  0.00  0.00    +0.000 A 
ATOM     31  C   UNL     1       9.423  11.349  20.194  0.00  0.00    +0.000 A 
ATOM     32  O   UNL     1       8.873  13.174  21.698  0.00  0.00    +0.000 OA
ATOM     33  C   UNL     1       8.040  14.284  21.313  0.00  0.00    +0.000 C 
ATOM     34  O   UNL     1       8.314  14.721  19.964  0.00  0.00    +0.000 OA
ENDBRANCH  25  26
ENDBRANCH  22  24
ENDBRANCH  21  22
ENDBRANCH   1  21
TORSDOF 8
ENDMDL
MODEL 3
REMARK VINA RESULT:      -8.7      2.515      9.178
REMARK  Name = 
REMARK  9 active torsions:
REMARK  status: ('A' for Active; 'I' for Inactive)
REMARK    1  A    between atoms: C_1  and  C_2
REMARK    2  A    between atoms: C_2  and  C_4
REMARK    3  A    between atoms: C_8  and  N_9
REMARK    4  A    between atoms: C_10  and  C_12
REMARK    5  A    between atoms: C_12  and  O_13
REMARK    6  A    between atoms: C_12  and  C_27
REMARK    7  A    between atoms: O_13  and  C_14
REMARK    8  A    between atoms: C_14  and  C_16
REMARK    9  A    between atoms: C_17  and  C_18
REMARK                            x       y       z     vdW  Elec       q    Type
REMARK                         _______ _______ _______ _____ _____    ______ ____
ROOT
ATOM      1  C   UNL     1       6.803   6.786  16.984  0.00  0.00    +0.000 C 
ENDROOT
BRANCH   1   2
ATOM      2  C   UNL     1       5.484   6.517  17.691  0.00  0.00    +0.000 A 
ATOM      3  C   UNL     1       4.327   7.192  17.263  0.00  0.00    +0.000 A 
ATOM      4  C   UNL     1       3.138   7.091  17.985  0.00  0.00    +0.000 A 
ATOM      5  C   UNL     1       3.090   6.317  19.142  0.00  0.00    +0.000 A 
ATOM      6  C   UNL     1       4.223   5.622  19.561  0.00  0.00    +0.000 A 
ATOM      7  C   UNL     1       5.413   5.714  18.838  0.00  0.00    +0.000 A 
ENDBRANCH   1   2
BRANCH   1   9
ATOM      8  N   UNL     1       7.666   9.026  17.547  0.00  0.00    +0.000 N 
ATOM      9  C   UNL     1       7.697   7.671  17.890  0.00  0.00    +0.000 C 
ATOM     10  O   UNL     1       8.405   7.145  18.746  0.00  0.00    +0.000 OA
ATOM     11  H   UNL     1       7.139   9.271  16.721  0.00  0.00    +0.000 HD
BRANCH   8  16
ATOM     12  C   UNL     1       8.920  12.427  18.335  0.00  0.00    +0.000 A 
ATOM     13  C   UNL     1       9.916  12.148  19.277  0.00  0.00    +0.000 A 
ATOM     14  C   UNL     1      10.143  10.834  19.674  0.00  0.00    +0.000 A 
ATOM     15  C   UNL     1       9.396   9.796  19.123  0.00  0.00    +0.000 A 
ATOM     16  C   UNL     1       8.413  10.051  18.164  0.00  0.00    +0.000 A 
ATOM     17  C   UNL     1       8.158  11.378  17.792  0.00  0.00    +0.000 A 
BRANCH  12  19
ATOM     18  C   UNL     1       9.811  14.808  17.851  0.00  0.00    +0.000 C 
ATOM     19  C   UNL     1       8.663  13.826  17.876  0.00  0.00    +0.000 C 
ATOM     20  O   UNL     1       7.534  14.155  17.515  0.00  0.00    +0.000 OA
ENDBRANCH  12  19
ENDBRANCH   8  16
ENDBRANCH   1   9
BRANCH   1  21
ATOM     21  O   UNL     1       7.440   5.562  16.604  0.00  0.00    +0.000 OA
BRANCH  21  22
ATOM     22  C   UNL     1       6.812   4.949  15.567  0.00  0.00    +0.000 C 
ATOM     23  O   UNL     1       6.843   5.292  14.398  0.00  0.00    +0.000 OA
BRANCH  22  24
ATOM     24  C   UNL     1       6.018   3.828  16.096  0.00  0.00    +0.000 C 
ATOM     25  C   UNL     1       4.679   3.891  16.019  0.00  0.00    +0.000 C 
BRANCH  25  26
ATOM     26  C   UNL     1       3.817   3.060  16.871  0.00  0.00    +0.000 A 
ATOM     27  C   UNL     1       4.308   1.995  17.662  0.00  0.00    +0.000 A 
ATOM     28  C   UNL     1       3.564   1.509  18.742  0.00  0.00    +0.000 A 
ATOM     29  C   UNL     1       2.361   2.124  19.002  0.00  0.00    +0.000 A 
ATOM     30  C   UNL     1       1.830   3.072  18.155  0.00  0.00    +0.000 A 
ATOM     31  C   UNL     1       2.505   3.523  17.049  0.00  0.00    +0.000 A 
ATOM     32  O   UNL     1       0.685   3.620  18.652  0.00  0.00    +0.000 OA
ATOM     33  C   UNL     1       0.823   3.202  20.023  0.00  0.00    +0.000 C 
ATOM     34  O   UNL     1       1.625   2.006  20.143  0.00  0.00    +0.000 OA
ENDBRANCH  25  26
ENDBRANCH  22  24
ENDBRANCH  21  22
ENDBRANCH   1  21
TORSDOF 8
ENDMDL
MODEL 4
REMARK VINA RESULT:      -8.7      1.360      1.691
REMARK  Name = 
REMARK  9 active torsions:
REMARK  status: ('A' for Active; 'I' for Inactive)
REMARK    1  A    between atoms: C_1  and  C_2
REMARK    2  A    between atoms: C_2  and  C_4
REMARK    3  A    between atoms: C_8  and  N_9
REMARK    4  A    between atoms: C_10  and  C_12
REMARK    5  A    between atoms: C_12  and  O_13
REMARK    6  A    between atoms: C_12  and  C_27
REMARK    7  A    between atoms: O_13  and  C_14
REMARK    8  A    between atoms: C_14  and  C_16
REMARK    9  A    between atoms: C_17  and  C_18
REMARK                            x       y       z     vdW  Elec       q    Type
REMARK                         _______ _______ _______ _____ _____    ______ ____
ROOT
ATOM      1  C   UNL     1       5.846   6.010  17.567  0.00  0.00    +0.000 C 
ENDROOT
BRANCH   1   2
ATOM      2  C   UNL     1       4.493   5.619  18.141  0.00  0.00    +0.000 A 
ATOM      3  C   UNL     1       3.869   4.444  17.687  0.00  0.00    +0.000 A 
ATOM      4  C   UNL     1       2.563   4.139  18.071  0.00  0.00    +0.000 A 
ATOM      5  C   UNL     1       1.865   5.003  18.910  0.00  0.00    +0.000 A 
ATOM      6  C   UNL     1       2.482   6.158  19.388  0.00  0.00    +0.000 A 
ATOM      7  C   UNL     1       3.791   6.464  19.013  0.00  0.00    +0.000 A 
ENDBRANCH   1   2
BRANCH   1   9
ATOM      8  N   UNL     1       6.604   4.965  15.467  0.00  0.00    +0.000 N 
ATOM      9  C   UNL     1       5.782   5.950  16.020  0.00  0.00    +0.000 C 
ATOM     10  O   UNL     1       5.118   6.784  15.406  0.00  0.00    +0.000 OA
ATOM     11  H   UNL     1       7.196   4.457  16.109  0.00  0.00    +0.000 HD
BRANCH   8  16
ATOM     12  C   UNL     1       6.109   3.474  12.106  0.00  0.00    +0.000 A 
ATOM     13  C   UNL     1       7.127   4.092  11.372  0.00  0.00    +0.000 A 
ATOM     14  C   UNL     1       7.951   5.028  11.987  0.00  0.00    +0.000 A 
ATOM     15  C   UNL     1       7.779   5.337  13.334  0.00  0.00    +0.000 A 
ATOM     16  C   UNL     1       6.783   4.715  14.090  0.00  0.00    +0.000 A 
ATOM     17  C   UNL     1       5.928   3.800  13.461  0.00  0.00    +0.000 A 
BRANCH  12  19
ATOM     18  C   UNL     1       3.833   2.866  11.036  0.00  0.00    +0.000 C 
ATOM     19  C   UNL     1       5.216   2.452  11.479  0.00  0.00    +0.000 C 
ATOM     20  O   UNL     1       5.619   1.301  11.320  0.00  0.00    +0.000 OA
ENDBRANCH  12  19
ENDBRANCH   8  16
ENDBRANCH   1   9
BRANCH   1  21
ATOM     21  O   UNL     1       6.260   7.289  18.055  0.00  0.00    +0.000 OA
BRANCH  21  22
ATOM     22  C   UNL     1       7.591   7.340  18.321  0.00  0.00    +0.000 C 
ATOM     23  O   UNL     1       8.268   6.447  18.802  0.00  0.00    +0.000 OA
BRANCH  22  24
ATOM     24  C   UNL     1       8.083   8.689  17.998  0.00  0.00    +0.000 C 
ATOM     25  C   UNL     1       8.988   9.259  18.809  0.00  0.00    +0.000 C 
BRANCH  25  26
ATOM     26  C   UNL     1       9.211  10.712  18.818  0.00  0.00    +0.000 A 
ATOM     27  C   UNL     1       8.762  11.568  17.786  0.00  0.00    +0.000 A 
ATOM     28  C   UNL     1       8.621  12.941  18.010  0.00  0.00    +0.000 A 
ATOM     29  C   UNL     1       8.917  13.403  19.273  0.00  0.00    +0.000 A 
ATOM     30  C   UNL     1       9.473  12.589  20.234  0.00  0.00    +0.000 A 
ATOM     31  C   UNL     1       9.687  11.250  20.022  0.00  0.00    +0.000 A 
ATOM     32  O   UNL     1       9.592  13.221  21.436  0.00  0.00    +0.000 OA
ATOM     33  C   UNL     1       8.696  14.321  21.190  0.00  0.00    +0.000 C 
ATOM     34  O   UNL     1       8.589  14.625  19.782  0.00  0.00    +0.000 OA
ENDBRANCH  25  26
ENDBRANCH  22  24
ENDBRANCH  21  22
ENDBRANCH   1  21
TORSDOF 8
ENDMDL
MODEL 5
REMARK VINA RESULT:      -8.4      4.945      9.365
REMARK  Name = 
REMARK  9 active torsions:
REMARK  status: ('A' for Active; 'I' for Inactive)
REMARK    1  A    between atoms: C_1  and  C_2
REMARK    2  A    between atoms: C_2  and  C_4
REMARK    3  A    between atoms: C_8  and  N_9
REMARK    4  A    between atoms: C_10  and  C_12
REMARK    5  A    between atoms: C_12  and  O_13
REMARK    6  A    between atoms: C_12  and  C_27
REMARK    7  A    between atoms: O_13  and  C_14
REMARK    8  A    between atoms: C_14  and  C_16
REMARK    9  A    between atoms: C_17  and  C_18
REMARK                            x       y       z     vdW  Elec       q    Type
REMARK                         _______ _______ _______ _____ _____    ______ ____
ROOT
ATOM      1  C   UNL     1       3.157   5.767  18.647  0.00  0.00    +0.000 C 
ENDROOT
BRANCH   1   2
ATOM      2  C   UNL     1       2.362   4.756  19.460  0.00  0.00    +0.000 A 
ATOM      3  C   UNL     1       2.638   4.610  20.831  0.00  0.00    +0.000 A 
ATOM      4  C   UNL     1       2.044   3.589  21.570  0.00  0.00    +0.000 A 
ATOM      5  C   UNL     1       1.168   2.700  20.950  0.00  0.00    +0.000 A 
ATOM      6  C   UNL     1       0.866   2.851  19.598  0.00  0.00    +0.000 A 
ATOM      7  C   UNL     1       1.453   3.876  18.856  0.00  0.00    +0.000 A 
ENDBRANCH   1   2
BRANCH   1   9
ATOM      8  N   UNL     1       2.130   7.692  19.795  0.00  0.00    +0.000 N 
ATOM      9  C   UNL     1       2.356   7.090  18.553  0.00  0.00    +0.000 C 
ATOM     10  O   UNL     1       1.917   7.461  17.466  0.00  0.00    +0.000 OA
ATOM     11  H   UNL     1       2.438   7.178  20.609  0.00  0.00    +0.000 HD
BRANCH   8  16
ATOM     12  C   UNL     1       0.098  10.245  21.560  0.00  0.00    +0.000 A 
ATOM     13  C   UNL     1      -0.162  11.156  20.531  0.00  0.00    +0.000 A 
ATOM     14  C   UNL     1       0.367  10.939  19.264  0.00  0.00    +0.000 A 
ATOM     15  C   UNL     1       1.139   9.807  19.012  0.00  0.00    +0.000 A 
ATOM     16  C   UNL     1       1.392   8.873  20.019  0.00  0.00    +0.000 A 
ATOM     17  C   UNL     1       0.890   9.112  21.305  0.00  0.00    +0.000 A 
BRANCH  12  19
ATOM     18  C   UNL     1      -1.631  11.392  23.105  0.00  0.00    +0.000 C 
ATOM     19  C   UNL     1      -0.470  10.442  22.928  0.00  0.00    +0.000 C 
ATOM     20  O   UNL     1       0.001   9.826  23.882  0.00  0.00    +0.000 OA
ENDBRANCH  12  19
ENDBRANCH   8  16
ENDBRANCH   1   9
BRANCH   1  21
ATOM     21  O   UNL     1       4.465   5.949  19.194  0.00  0.00    +0.000 OA
BRANCH  21  22
ATOM     22  C   UNL     1       5.327   4.966  18.824  0.00  0.00    +0.000 C 
ATOM     23  O   UNL     1       6.097   4.366  19.554  0.00  0.00    +0.000 OA
BRANCH  22  24
ATOM     24  C   UNL     1       5.234   4.785  17.366  0.00  0.00    +0.000 C 
ATOM     25  C   UNL     1       6.331   4.407  16.690  0.00  0.00    +0.000 C 
BRANCH  25  26
ATOM     26  C   UNL     1       6.453   4.610  15.240  0.00  0.00    +0.000 A 
ATOM     27  C   UNL     1       7.516   5.330  14.648  0.00  0.00    +0.000 A 
ATOM     28  C   UNL     1       7.826   5.159  13.295  0.00  0.00    +0.000 A 
ATOM     29  C   UNL     1       7.067   4.254  12.588  0.00  0.00    +0.000 A 
ATOM     30  C   UNL     1       5.955   3.653  13.134  0.00  0.00    +0.000 A 
ATOM     31  C   UNL     1       5.586   3.851  14.441  0.00  0.00    +0.000 A 
ATOM     32  O   UNL     1       5.413   2.721  12.300  0.00  0.00    +0.000 OA
ATOM     33  C   UNL     1       6.531   2.555  11.407  0.00  0.00    +0.000 C 
ATOM     34  O   UNL     1       7.365   3.734  11.364  0.00  0.00    +0.000 OA
ENDBRANCH  25  26
ENDBRANCH  22  24
ENDBRANCH  21  22
ENDBRANCH   1  21
TORSDOF 8
ENDMDL
MODEL 6
REMARK VINA RESULT:      -8.3      4.830      6.187
REMARK  Name = 
REMARK  9 active torsions:
REMARK  status: ('A' for Active; 'I' for Inactive)
REMARK    1  A    between atoms: C_1  and  C_2
REMARK    2  A    between atoms: C_2  and  C_4
REMARK    3  A    between atoms: C_8  and  N_9
REMARK    4  A    between atoms: C_10  and  C_12
REMARK    5  A    between atoms: C_12  and  O_13
REMARK    6  A    between atoms: C_12  and  C_27
REMARK    7  A    between atoms: O_13  and  C_14
REMARK    8  A    between atoms: C_14  and  C_16
REMARK    9  A    between atoms: C_17  and  C_18
REMARK                            x       y       z     vdW  Elec       q    Type
REMARK                         _______ _______ _______ _____ _____    ______ ____
ROOT
ATOM      1  C   UNL     1       3.909   5.623  18.301  0.00  0.00    +0.000 C 
ENDROOT
BRANCH   1   2
ATOM      2  C   UNL     1       3.604   4.143  18.473  0.00  0.00    +0.000 A 
ATOM      3  C   UNL     1       4.401   3.374  19.338  0.00  0.00    +0.000 A 
ATOM      4  C   UNL     1       4.252   1.988  19.398  0.00  0.00    +0.000 A 
ATOM      5  C   UNL     1       3.306   1.355  18.596  0.00  0.00    +0.000 A 
ATOM      6  C   UNL     1       2.491   2.110  17.754  0.00  0.00    +0.000 A 
ATOM      7  C   UNL     1       2.631   3.497  17.696  0.00  0.00    +0.000 A 
ENDBRANCH   1   2
BRANCH   1   9
ATOM      8  N   UNL     1       5.078   4.693  16.340  0.00  0.00    +0.000 N 
ATOM      9  C   UNL     1       4.548   5.855  16.909  0.00  0.00    +0.000 C 
ATOM     10  O   UNL     1       4.625   6.995  16.456  0.00  0.00    +0.000 OA
ATOM     11  H   UNL     1       5.058   3.860  16.913  0.00  0.00    +0.000 HD
BRANCH   8  16
ATOM     12  C   UNL     1       5.844   3.721  12.843  0.00  0.00    +0.000 A 
ATOM     13  C   UNL     1       7.090   4.327  12.650  0.00  0.00    +0.000 A 
ATOM     14  C   UNL     1       7.656   5.085  13.670  0.00  0.00    +0.000 A 
ATOM     15  C   UNL     1       6.994   5.227  14.887  0.00  0.00    +0.000 A 
ATOM     16  C   UNL     1       5.760   4.612  15.108  0.00  0.00    +0.000 A 
ATOM     17  C   UNL     1       5.173   3.879  14.068  0.00  0.00    +0.000 A 
BRANCH  12  19
ATOM     18  C   UNL     1       5.930   1.635  11.314  0.00  0.00    +0.000 C 
ATOM     19  C   UNL     1       5.218   2.886  11.773  0.00  0.00    +0.000 C 
ATOM     20  O   UNL     1       4.136   3.217  11.292  0.00  0.00    +0.000 OA
ENDBRANCH  12  19
ENDBRANCH   8  16
ENDBRANCH   1   9
BRANCH   1  21
ATOM     21  O   UNL     1       2.737   6.415  18.511  0.00  0.00    +0.000 OA
BRANCH  21  22
ATOM     22  C   UNL     1       2.355   6.446  19.814  0.00  0.00    +0.000 C 
ATOM     23  O   UNL     1       2.333   5.501  20.585  0.00  0.00    +0.000 OA
BRANCH  22  24
ATOM     24  C   UNL     1       1.895   7.807  20.137  0.00  0.00    +0.000 C 
ATOM     25  C   UNL     1       1.201   8.004  21.269  0.00  0.00    +0.000 C 
BRANCH  25  26
ATOM     26  C   UNL     1       0.357   9.192  21.461  0.00  0.00    +0.000 A 
ATOM     27  C   UNL     1      -0.442   9.394  22.610  0.00  0.00    +0.000 A 
ATOM     28  C   UNL     1      -0.892  10.674  22.949  0.00  0.00    +0.000 A 
ATOM     29  C   UNL     1      -0.505  11.711  22.131  0.00  0.00    +0.000 A 
ATOM     30  C   UNL     1       0.164  11.493  20.947  0.00  0.00    +0.000 A 
ATOM     31  C   UNL     1       0.561  10.240  20.553  0.00  0.00    +0.000 A 
ATOM     32  O   UNL     1       0.536  12.659  20.346  0.00  0.00    +0.000 OA
ATOM     33  C   UNL     1       0.380  13.541  21.473  0.00  0.00    +0.000 C 
ATOM     34  O   UNL     1      -0.589  13.040  22.419  0.00  0.00    +0.000 OA
ENDBRANCH  25  26
ENDBRANCH  22  24
ENDBRANCH  21  22
ENDBRANCH   1  21
TORSDOF 8
ENDMDL
MODEL 7
REMARK VINA RESULT:      -8.3      4.536      6.597
REMARK  Name = 
REMARK  9 active torsions:
REMARK  status: ('A' for Active; 'I' for Inactive)
REMARK    1  A    between atoms: C_1  and  C_2
REMARK    2  A    between atoms: C_2  and  C_4
REMARK    3  A    between atoms: C_8  and  N_9
REMARK    4  A    between atoms: C_10  and  C_12
REMARK    5  A    between atoms: C_12  and  O_13
REMARK    6  A    between atoms: C_12  and  C_27
REMARK    7  A    between atoms: O_13  and  C_14
REMARK    8  A    between atoms: C_14  and  C_16
REMARK    9  A    between atoms: C_17  and  C_18
REMARK                            x       y       z     vdW  Elec       q    Type
REMARK                         _______ _______ _______ _____ _____    ______ ____
ROOT
ATOM      1  C   UNL     1       4.172   5.892  17.904  0.00  0.00    +0.000 C 
ENDROOT
BRANCH   1   2
ATOM      2  C   UNL     1       3.721   4.476  18.227  0.00  0.00    +0.000 A 
ATOM      3  C   UNL     1       4.505   3.686  19.085  0.00  0.00    +0.000 A 
ATOM      4  C   UNL     1       4.209   2.336  19.278  0.00  0.00    +0.000 A 
ATOM      5  C   UNL     1       3.128   1.761  18.615  0.00  0.00    +0.000 A 
ATOM      6  C   UNL     1       2.327   2.541  17.782  0.00  0.00    +0.000 A 
ATOM      7  C   UNL     1       2.615   3.893  17.593  0.00  0.00    +0.000 A 
ENDBRANCH   1   2
BRANCH   1   9
ATOM      8  N   UNL     1       4.903   4.986  15.731  0.00  0.00    +0.000 N 
ATOM      9  C   UNL     1       5.239   5.845  16.781  0.00  0.00    +0.000 C 
ATOM     10  O   UNL     1       6.294   6.461  16.918  0.00  0.00    +0.000 OA
ATOM     11  H   UNL     1       4.058   4.442  15.845  0.00  0.00    +0.000 HD
BRANCH   8  16
ATOM     12  C   UNL     1       5.995   3.464  12.529  0.00  0.00    +0.000 A 
ATOM     13  C   UNL     1       7.265   4.030  12.369  0.00  0.00    +0.000 A 
ATOM     14  C   UNL     1       7.739   4.941  13.306  0.00  0.00    +0.000 A 
ATOM     15  C   UNL     1       6.963   5.277  14.412  0.00  0.00    +0.000 A 
ATOM     16  C   UNL     1       5.702   4.707  14.603  0.00  0.00    +0.000 A 
ATOM     17  C   UNL     1       5.208   3.818  13.639  0.00  0.00    +0.000 A 
BRANCH  12  19
ATOM     18  C   UNL     1       6.351   1.327  11.115  0.00  0.00    +0.000 C 
ATOM     19  C   UNL     1       5.463   2.470  11.548  0.00  0.00    +0.000 C 
ATOM     20  O   UNL     1       4.317   2.585  11.118  0.00  0.00    +0.000 OA
ENDBRANCH  12  19
ENDBRANCH   8  16
ENDBRANCH   1   9
BRANCH   1  21
ATOM     21  O   UNL     1       3.056   6.722  17.572  0.00  0.00    +0.000 OA
BRANCH  21  22
ATOM     22  C   UNL     1       2.560   7.384  18.650  0.00  0.00    +0.000 C 
ATOM     23  O   UNL     1       2.664   7.047  19.817  0.00  0.00    +0.000 OA
BRANCH  22  24
ATOM     24  C   UNL     1       1.802   8.554  18.175  0.00  0.00    +0.000 C 
ATOM     25  C   UNL     1       1.101   9.275  19.064  0.00  0.00    +0.000 C 
BRANCH  25  26
ATOM     26  C   UNL     1       0.009  10.165  18.646  0.00  0.00    +0.000 A 
ATOM     27  C   UNL     1      -0.966   9.795  17.691  0.00  0.00    +0.000 A 
ATOM     28  C   UNL     1      -2.189  10.470  17.622  0.00  0.00    +0.000 A 
ATOM     29  C   UNL     1      -2.397  11.482  18.532  0.00  0.00    +0.000 A 
ATOM     30  C   UNL     1      -1.399  11.922  19.372  0.00  0.00    +0.000 A 
ATOM     31  C   UNL     1      -0.165  11.323  19.417  0.00  0.00    +0.000 A 
ATOM     32  O   UNL     1      -1.847  12.859  20.255  0.00  0.00    +0.000 OA
ATOM     33  C   UNL     1      -3.262  12.627  20.116  0.00  0.00    +0.000 C 
ATOM     34  O   UNL     1      -3.592  12.070  18.824  0.00  0.00    +0.000 OA
ENDBRANCH  25  26
ENDBRANCH  22  24
ENDBRANCH  21  22
ENDBRANCH   1  21
TORSDOF 8
ENDMDL
MODEL 8
REMARK VINA RESULT:      -8.3      1.140      1.443
REMARK  Name = 
REMARK  9 active torsions:
REMARK  status: ('A' for Active; 'I' for Inactive)
REMARK    1  A    between atoms: C_1  and  C_2
REMARK    2  A    between atoms: C_2  and  C_4
REMARK    3  A    between atoms: C_8  and  N_9
REMARK    4  A    between atoms: C_10  and  C_12
REMARK    5  A    between atoms: C_12  and  O_13
REMARK    6  A    between atoms: C_12  and  C_27
REMARK    7  A    between atoms: O_13  and  C_14
REMARK    8  A    between atoms: C_14  and  C_16
REMARK    9  A    between atoms: C_17  and  C_18
REMARK                            x       y       z     vdW  Elec       q    Type
REMARK                         _______ _______ _______ _____ _____    ______ ____
ROOT
ATOM      1  C   UNL     1       5.812   5.398  17.870  0.00  0.00    +0.000 C 
ENDROOT
BRANCH   1   2
ATOM      2  C   UNL     1       4.428   4.970  18.333  0.00  0.00    +0.000 A 
ATOM      3  C   UNL     1       3.301   5.665  17.860  0.00  0.00    +0.000 A 
ATOM      4  C   UNL     1       2.034   5.404  18.382  0.00  0.00    +0.000 A 
ATOM      5  C   UNL     1       1.878   4.448  19.383  0.00  0.00    +0.000 A 
ATOM      6  C   UNL     1       2.984   3.734  19.841  0.00  0.00    +0.000 A 
ATOM      7  C   UNL     1       4.251   3.986  19.316  0.00  0.00    +0.000 A 
ENDBRANCH   1   2
BRANCH   1   9
ATOM      8  N   UNL     1       6.507   4.549  15.662  0.00  0.00    +0.000 N 
ATOM      9  C   UNL     1       5.808   5.559  16.329  0.00  0.00    +0.000 C 
ATOM     10  O   UNL     1       5.296   6.556  15.822  0.00  0.00    +0.000 OA
ATOM     11  H   UNL     1       6.993   3.878  16.242  0.00  0.00    +0.000 HD
BRANCH   8  16
ATOM     12  C   UNL     1       6.194   3.351  12.166  0.00  0.00    +0.000 A 
ATOM     13  C   UNL     1       7.117   4.169  11.505  0.00  0.00    +0.000 A 
ATOM     14  C   UNL     1       7.813   5.140  12.217  0.00  0.00    +0.000 A 
ATOM     15  C   UNL     1       7.609   5.286  13.587  0.00  0.00    +0.000 A 
ATOM     16  C   UNL     1       6.710   4.464  14.270  0.00  0.00    +0.000 A 
ATOM     17  C   UNL     1       5.980   3.512  13.546  0.00  0.00    +0.000 A 
BRANCH  12  19
ATOM     18  C   UNL     1       6.150   0.998  11.090  0.00  0.00    +0.000 C 
ATOM     19  C   UNL     1       5.442   2.287  11.432  0.00  0.00    +0.000 C 
ATOM     20  O   UNL     1       4.264   2.468  11.130  0.00  0.00    +0.000 OA
ENDBRANCH  12  19
ENDBRANCH   8  16
ENDBRANCH   1   9
BRANCH   1  21
ATOM     21  O   UNL     1       6.235   6.584  18.549  0.00  0.00    +0.000 OA
BRANCH  21  22
ATOM     22  C   UNL     1       7.585   6.729  18.553  0.00  0.00    +0.000 C 
ATOM     23  O   UNL     1       8.407   5.854  18.770  0.00  0.00    +0.000 OA
BRANCH  22  24
ATOM     24  C   UNL     1       7.906   8.146  18.319  0.00  0.00    +0.000 C 
ATOM     25  C   UNL     1       8.992   8.670  18.910  0.00  0.00    +0.000 C 
BRANCH  25  26
ATOM     26  C   UNL     1       9.152  10.120  19.084  0.00  0.00    +0.000 A 
ATOM     27  C   UNL     1       9.300  10.734  20.350  0.00  0.00    +0.000 A 
ATOM     28  C   UNL     1       9.851  12.015  20.461  0.00  0.00    +0.000 A 
ATOM     29  C   UNL     1      10.252  12.627  19.296  0.00  0.00    +0.000 A 
ATOM     30  C   UNL     1       9.990  12.081  18.059  0.00  0.00    +0.000 A 
ATOM     31  C   UNL     1       9.391  10.855  17.914  0.00  0.00    +0.000 A 
ATOM     32  O   UNL     1      10.560  12.798  17.050  0.00  0.00    +0.000 OA
ATOM     33  C   UNL     1      11.496  13.563  17.832  0.00  0.00    +0.000 C 
ATOM     34  O   UNL     1      11.051  13.727  19.197  0.00  0.00    +0.000 OA
ENDBRANCH  25  26
ENDBRANCH  22  24
ENDBRANCH  21  22
ENDBRANCH   1  21
TORSDOF 8
ENDMDL
MODEL 9
REMARK VINA RESULT:      -8.3      2.037      5.371
REMARK  Name = 
REMARK  9 active torsions:
REMARK  status: ('A' for Active; 'I' for Inactive)
REMARK    1  A    between atoms: C_1  and  C_2
REMARK    2  A    between atoms: C_2  and  C_4
REMARK    3  A    between atoms: C_8  and  N_9
REMARK    4  A    between atoms: C_10  and  C_12
REMARK    5  A    between atoms: C_12  and  O_13
REMARK    6  A    between atoms: C_12  and  C_27
REMARK    7  A    between atoms: O_13  and  C_14
REMARK    8  A    between atoms: C_14  and  C_16
REMARK    9  A    between atoms: C_17  and  C_18
REMARK                            x       y       z     vdW  Elec       q    Type
REMARK                         _______ _______ _______ _____ _____    ______ ____
ROOT
ATOM      1  C   UNL     1       6.257   6.041  16.161  0.00  0.00    +0.000 C 
ENDROOT
BRANCH   1   2
ATOM      2  C   UNL     1       6.300   5.150  14.928  0.00  0.00    +0.000 A 
ATOM      3  C   UNL     1       7.403   5.232  14.061  0.00  0.00    +0.000 A 
ATOM      4  C   UNL     1       7.403   4.549  12.845  0.00  0.00    +0.000 A 
ATOM      5  C   UNL     1       6.301   3.779  12.480  0.00  0.00    +0.000 A 
ATOM      6  C   UNL     1       5.212   3.669  13.343  0.00  0.00    +0.000 A 
ATOM      7  C   UNL     1       5.212   4.344  14.564  0.00  0.00    +0.000 A 
ENDBRANCH   1   2
BRANCH   1   9
ATOM      8  N   UNL     1       4.303   6.250  17.649  0.00  0.00    +0.000 N 
ATOM      9  C   UNL     1       5.327   5.400  17.222  0.00  0.00    +0.000 C 
ATOM     10  O   UNL     1       5.586   4.281  17.662  0.00  0.00    +0.000 OA
ATOM     11  H   UNL     1       4.318   7.194  17.288  0.00  0.00    +0.000 HD
BRANCH   8  16
ATOM     12  C   UNL     1       1.961   4.283  19.749  0.00  0.00    +0.000 A 
ATOM     13  C   UNL     1       1.369   5.286  20.524  0.00  0.00    +0.000 A 
ATOM     14  C   UNL     1       1.774   6.608  20.371  0.00  0.00    +0.000 A 
ATOM     15  C   UNL     1       2.753   6.937  19.437  0.00  0.00    +0.000 A 
ATOM     16  C   UNL     1       3.341   5.954  18.638  0.00  0.00    +0.000 A 
ATOM     17  C   UNL     1       2.960   4.617  18.818  0.00  0.00    +0.000 A 
BRANCH  12  19
ATOM     18  C   UNL     1       0.843   2.193  18.712  0.00  0.00    +0.000 C 
ATOM     19  C   UNL     1       1.536   2.856  19.879  0.00  0.00    +0.000 C 
ATOM     20  O   UNL     1       1.765   2.240  20.918  0.00  0.00    +0.000 OA
ENDBRANCH  12  19
ENDBRANCH   8  16
ENDBRANCH   1   9
BRANCH   1  21
ATOM     21  O   UNL     1       7.574   6.291  16.658  0.00  0.00    +0.000 OA
BRANCH  21  22
ATOM     22  C   UNL     1       7.567   6.815  17.911  0.00  0.00    +0.000 C 
ATOM     23  O   UNL     1       7.201   6.253  18.929  0.00  0.00    +0.000 OA
BRANCH  22  24
ATOM     24  C   UNL     1       8.011   8.217  17.836  0.00  0.00    +0.000 C 
ATOM     25  C   UNL     1       8.840   8.684  18.783  0.00  0.00    +0.000 C 
BRANCH  25  26
ATOM     26  C   UNL     1       8.992  10.124  19.035  0.00  0.00    +0.000 A 
ATOM     27  C   UNL     1       9.303  10.657  20.308  0.00  0.00    +0.000 A 
ATOM     28  C   UNL     1       9.834  11.945  20.430  0.00  0.00    +0.000 A 
ATOM     29  C   UNL     1      10.054  12.645  19.266  0.00  0.00    +0.000 A 
ATOM     30  C   UNL     1       9.633  12.174  18.043  0.00  0.00    +0.000 A 
ATOM     31  C   UNL     1       9.046  10.941  17.897  0.00  0.00    +0.000 A 
ATOM     32  O   UNL     1      10.039  12.974  17.017  0.00  0.00    +0.000 OA
ATOM     33  C   UNL     1      11.059  13.715  17.713  0.00  0.00    +0.000 C 
ATOM     34  O   UNL     1      10.807  13.774  19.134  0.00  0.00    +0.000 OA
ENDBRANCH  25  26
ENDBRANCH  22  24
ENDBRANCH  21  22
ENDBRANCH   1  21
TORSDOF 8
ENDMDL
