MODEL 1
REMARK VINA RESULT:      -7.1      0.000      0.000
REMARK  Name = 
REMARK  5 active torsions:
REMARK  status: ('A' for Active; 'I' for Inactive)
REMARK    1  A    between atoms: C_1  and  N_2
REMARK    2  A    between atoms: C_3  and  C_5
REMARK    3  A    between atoms: C_8  and  O_9
REMARK    4  A    between atoms: O_9  and  C_10
REMARK    5  A    between atoms: C_13  and  C_14
REMARK                            x       y       z     vdW  Elec       q    Type
REMARK                         _______ _______ _______ _____ _____    ______ ____
ROOT
ATOM      1  C   UNL     1       4.399   5.077  16.981  0.00  0.00    +0.000 A 
ATOM      2  C   UNL     1       3.966   5.991  17.926  0.00  0.00    +0.000 A 
ATOM      3  C   UNL     1       2.994   5.450  18.845  0.00  0.00    +0.000 A 
ATOM      4  C   UNL     1       2.295   6.037  19.926  0.00  0.00    +0.000 A 
ATOM      5  C   UNL     1       1.347   5.233  20.561  0.00  0.00    +0.000 A 
ATOM      6  N   UNL     1       1.135   3.927  20.297  0.00  0.00    +0.000 NA
ATOM      7  C   UNL     1       1.841   3.349  19.305  0.00  0.00    +0.000 A 
ATOM      8  C   UNL     1       2.746   4.105  18.560  0.00  0.00    +0.000 A 
ATOM      9  S   UNL     1       3.669   3.553  17.227  0.00  0.00    +0.000 S 
ENDROOT
BRANCH   1  12
ATOM     10  C   UNL     1       6.495   4.217  13.986  0.00  0.00    +0.000 C 
ATOM     11  N   UNL     1       5.579   4.196  15.093  0.00  0.00    +0.000 N 
ATOM     12  C   UNL     1       5.350   5.295  15.895  0.00  0.00    +0.000 C 
ATOM     13  O   UNL     1       5.906   6.372  15.696  0.00  0.00    +0.000 OA
ATOM     14  H   UNL     1       5.069   3.345  15.295  0.00  0.00    +0.000 HD
ENDBRANCH   1  12
BRANCH   4  15
ATOM     15  O   UNL     1       2.521   7.361  20.239  0.00  0.00    +0.000 OA
BRANCH  15  16
ATOM     16  C   UNL     1       1.611   8.320  19.848  0.00  0.00    +0.000 A 
ATOM     17  C   UNL     1       0.693   8.928  20.709  0.00  0.00    +0.000 A 
ATOM     18  C   UNL     1      -0.235   9.847  20.214  0.00  0.00    +0.000 A 
ATOM     19  C   UNL     1      -0.204  10.216  18.867  0.00  0.00    +0.000 A 
ATOM     20  C   UNL     1       0.765   9.669  18.019  0.00  0.00    +0.000 A 
ATOM     21  C   UNL     1       1.670   8.721  18.510  0.00  0.00    +0.000 A 
BRANCH  19  22
ATOM     22  C   UNL     1      -1.161  11.153  18.362  0.00  0.00    +0.000 C 
ATOM     23  N   UNL     1      -1.934  11.918  17.947  0.00  0.00    +0.000 NA
ENDBRANCH  19  22
ENDBRANCH  15  16
ENDBRANCH   4  15
TORSDOF 4
ENDMDL
MODEL 2
REMARK VINA RESULT:      -7.1      0.197      1.048
REMARK  Name = 
REMARK  5 active torsions:
REMARK  status: ('A' for Active; 'I' for Inactive)
REMARK    1  A    between atoms: C_1  and  N_2
REMARK    2  A    between atoms: C_3  and  C_5
REMARK    3  A    between atoms: C_8  and  O_9
REMARK    4  A    between atoms: O_9  and  C_10
REMARK    5  A    between atoms: C_13  and  C_14
REMARK                            x       y       z     vdW  Elec       q    Type
REMARK                         _______ _______ _______ _____ _____    ______ ____
ROOT
ATOM      1  C   UNL     1       4.462   5.009  16.977  0.00  0.00    +0.000 A 
ATOM      2  C   UNL     1       4.023   5.912  17.928  0.00  0.00    +0.000 A 
ATOM      3  C   UNL     1       3.037   5.365  18.828  0.00  0.00    +0.000 A 
ATOM      4  C   UNL     1       2.328   5.942  19.908  0.00  0.00    +0.000 A 
ATOM      5  C   UNL     1       1.367   5.135  20.521  0.00  0.00    +0.000 A 
ATOM      6  N   UNL     1       1.151   3.833  20.237  0.00  0.00    +0.000 NA
ATOM      7  C   UNL     1       1.866   3.265  19.246  0.00  0.00    +0.000 A 
ATOM      8  C   UNL     1       2.785   4.025  18.522  0.00  0.00    +0.000 A 
ATOM      9  S   UNL     1       3.721   3.486  17.194  0.00  0.00    +0.000 S 
ENDROOT
BRANCH   1  12
ATOM     10  C   UNL     1       6.469   4.232  13.900  0.00  0.00    +0.000 C 
ATOM     11  N   UNL     1       5.556   4.195  15.009  0.00  0.00    +0.000 N 
ATOM     12  C   UNL     1       5.429   5.236  15.906  0.00  0.00    +0.000 C 
ATOM     13  O   UNL     1       6.080   6.271  15.797  0.00  0.00    +0.000 OA
ATOM     14  H   UNL     1       4.972   3.380  15.140  0.00  0.00    +0.000 HD
ENDBRANCH   1  12
BRANCH   4  15
ATOM     15  O   UNL     1       2.557   7.260  20.242  0.00  0.00    +0.000 OA
BRANCH  15  16
ATOM     16  C   UNL     1       1.723   8.243  19.754  0.00  0.00    +0.000 A 
ATOM     17  C   UNL     1       1.704   8.666  18.421  0.00  0.00    +0.000 A 
ATOM     18  C   UNL     1       0.868   9.712  18.026  0.00  0.00    +0.000 A 
ATOM     19  C   UNL     1      -0.007  10.294  18.947  0.00  0.00    +0.000 A 
ATOM     20  C   UNL     1      -0.048   9.819  20.262  0.00  0.00    +0.000 A 
ATOM     21  C   UNL     1       0.818   8.796  20.664  0.00  0.00    +0.000 A 
BRANCH  19  22
ATOM     22  C   UNL     1      -0.858  11.371  18.539  0.00  0.00    +0.000 C 
ATOM     23  N   UNL     1      -1.543  12.250  18.205  0.00  0.00    +0.000 NA
ENDBRANCH  19  22
ENDBRANCH  15  16
ENDBRANCH   4  15
TORSDOF 4
ENDMDL
MODEL 3
REMARK VINA RESULT:      -7.0      2.910      6.276
REMARK  Name = 
REMARK  5 active torsions:
REMARK  status: ('A' for Active; 'I' for Inactive)
REMARK    1  A    between atoms: C_1  and  N_2
REMARK    2  A    between atoms: C_3  and  C_5
REMARK    3  A    between atoms: C_8  and  O_9
REMARK    4  A    between atoms: O_9  and  C_10
REMARK    5  A    between atoms: C_13  and  C_14
REMARK                            x       y       z     vdW  Elec       q    Type
REMARK                         _______ _______ _______ _____ _____    ______ ____
ROOT
ATOM      1  C   UNL     1       2.202   6.146  19.646  0.00  0.00    +0.000 A 
ATOM      2  C   UNL     1       3.015   5.691  18.623  0.00  0.00    +0.000 A 
ATOM      3  C   UNL     1       3.098   4.253  18.551  0.00  0.00    +0.000 A 
ATOM      4  C   UNL     1       3.820   3.396  17.687  0.00  0.00    +0.000 A 
ATOM      5  C   UNL     1       3.735   2.028  17.958  0.00  0.00    +0.000 A 
ATOM      6  N   UNL     1       2.940   1.470  18.895  0.00  0.00    +0.000 NA
ATOM      7  C   UNL     1       2.207   2.282  19.682  0.00  0.00    +0.000 A 
ATOM      8  C   UNL     1       2.301   3.666  19.537  0.00  0.00    +0.000 A 
ATOM      9  S   UNL     1       1.501   4.840  20.493  0.00  0.00    +0.000 S 
ENDROOT
BRANCH   1  12
ATOM     10  C   UNL     1       1.334   9.021  21.900  0.00  0.00    +0.000 C 
ATOM     11  N   UNL     1       1.651   7.730  21.354  0.00  0.00    +0.000 N 
ATOM     12  C   UNL     1       1.918   7.529  20.016  0.00  0.00    +0.000 C 
ATOM     13  O   UNL     1       1.921   8.455  19.208  0.00  0.00    +0.000 OA
ATOM     14  H   UNL     1       1.690   6.929  21.972  0.00  0.00    +0.000 HD
ENDBRANCH   1  12
BRANCH   4  15
ATOM     15  O   UNL     1       4.611   3.940  16.698  0.00  0.00    +0.000 OA
BRANCH  15  16
ATOM     16  C   UNL     1       5.489   4.956  17.009  0.00  0.00    +0.000 A 
ATOM     17  C   UNL     1       6.572   4.818  17.883  0.00  0.00    +0.000 A 
ATOM     18  C   UNL     1       7.376   5.918  18.188  0.00  0.00    +0.000 A 
ATOM     19  C   UNL     1       7.144   7.147  17.566  0.00  0.00    +0.000 A 
ATOM     20  C   UNL     1       6.111   7.269  16.631  0.00  0.00    +0.000 A 
ATOM     21  C   UNL     1       5.285   6.174  16.355  0.00  0.00    +0.000 A 
BRANCH  19  22
ATOM     22  C   UNL     1       7.967   8.275  17.887  0.00  0.00    +0.000 C 
ATOM     23  N   UNL     1       8.639   9.187  18.153  0.00  0.00    +0.000 NA
ENDBRANCH  19  22
ENDBRANCH  15  16
ENDBRANCH   4  15
TORSDOF 4
ENDMDL
MODEL 4
REMARK VINA RESULT:      -6.9      1.193      1.687
REMARK  Name = 
REMARK  5 active torsions:
REMARK  status: ('A' for Active; 'I' for Inactive)
REMARK    1  A    between atoms: C_1  and  N_2
REMARK    2  A    between atoms: C_3  and  C_5
REMARK    3  A    between atoms: C_8  and  O_9
REMARK    4  A    between atoms: O_9  and  C_10
REMARK    5  A    between atoms: C_13  and  C_14
REMARK                            x       y       z     vdW  Elec       q    Type
REMARK                         _______ _______ _______ _____ _____    ______ ____
ROOT
ATOM      1  C   UNL     1       5.501   4.976  16.356  0.00  0.00    +0.000 A 
ATOM      2  C   UNL     1       4.911   5.670  17.398  0.00  0.00    +0.000 A 
ATOM      3  C   UNL     1       3.750   5.008  17.943  0.00  0.00    +0.000 A 
ATOM      4  C   UNL     1       2.860   5.376  18.979  0.00  0.00    +0.000 A 
ATOM      5  C   UNL     1       1.773   4.526  19.195  0.00  0.00    +0.000 A 
ATOM      6  N   UNL     1       1.578   3.343  18.574  0.00  0.00    +0.000 NA
ATOM      7  C   UNL     1       2.458   2.963  17.626  0.00  0.00    +0.000 A 
ATOM      8  C   UNL     1       3.523   3.796  17.286  0.00  0.00    +0.000 A 
ATOM      9  S   UNL     1       4.687   3.504  16.064  0.00  0.00    +0.000 S 
ENDROOT
BRANCH   1  12
ATOM     10  C   UNL     1       7.778   5.113  13.373  0.00  0.00    +0.000 C 
ATOM     11  N   UNL     1       6.702   4.851  14.289  0.00  0.00    +0.000 N 
ATOM     12  C   UNL     1       6.666   5.367  15.568  0.00  0.00    +0.000 C 
ATOM     13  O   UNL     1       7.550   6.104  15.996  0.00  0.00    +0.000 OA
ATOM     14  H   UNL     1       5.928   4.271  13.988  0.00  0.00    +0.000 HD
ENDBRANCH   1  12
BRANCH   4  15
ATOM     15  O   UNL     1       3.058   6.563  19.653  0.00  0.00    +0.000 OA
BRANCH  15  16
ATOM     16  C   UNL     1       2.255   7.648  19.375  0.00  0.00    +0.000 A 
ATOM     17  C   UNL     1       2.103   8.206  18.101  0.00  0.00    +0.000 A 
ATOM     18  C   UNL     1       1.316   9.344  17.921  0.00  0.00    +0.000 A 
ATOM     19  C   UNL     1       0.619   9.892  19.000  0.00  0.00    +0.000 A 
ATOM     20  C   UNL     1       0.705   9.289  20.260  0.00  0.00    +0.000 A 
ATOM     21  C   UNL     1       1.525   8.170  20.445  0.00  0.00    +0.000 A 
BRANCH  19  22
ATOM     22  C   UNL     1      -0.182  11.064  18.812  0.00  0.00    +0.000 C 
ATOM     23  N   UNL     1      -0.837  12.014  18.665  0.00  0.00    +0.000 NA
ENDBRANCH  19  22
ENDBRANCH  15  16
ENDBRANCH   4  15
TORSDOF 4
ENDMDL
MODEL 5
REMARK VINA RESULT:      -6.7      2.395      6.847
REMARK  Name = 
REMARK  5 active torsions:
REMARK  status: ('A' for Active; 'I' for Inactive)
REMARK    1  A    between atoms: C_1  and  N_2
REMARK    2  A    between atoms: C_3  and  C_5
REMARK    3  A    between atoms: C_8  and  O_9
REMARK    4  A    between atoms: O_9  and  C_10
REMARK    5  A    between atoms: C_13  and  C_14
REMARK                            x       y       z     vdW  Elec       q    Type
REMARK                         _______ _______ _______ _____ _____    ______ ____
ROOT
ATOM      1  C   UNL     1       2.311   6.723  19.797  0.00  0.00    +0.000 A 
ATOM      2  C   UNL     1       3.518   6.204  19.365  0.00  0.00    +0.000 A 
ATOM      3  C   UNL     1       3.692   4.809  19.687  0.00  0.00    +0.000 A 
ATOM      4  C   UNL     1       4.765   3.917  19.451  0.00  0.00    +0.000 A 
ATOM      5  C   UNL     1       4.631   2.633  19.982  0.00  0.00    +0.000 A 
ATOM      6  N   UNL     1       3.526   2.156  20.593  0.00  0.00    +0.000 NA
ATOM      7  C   UNL     1       2.480   2.988  20.768  0.00  0.00    +0.000 A 
ATOM      8  C   UNL     1       2.564   4.314  20.346  0.00  0.00    +0.000 A 
ATOM      9  S   UNL     1       1.364   5.520  20.551  0.00  0.00    +0.000 S 
ENDROOT
BRANCH   1  12
ATOM     10  C   UNL     1       1.637  10.009  18.107  0.00  0.00    +0.000 C 
ATOM     11  N   UNL     1       2.032   8.663  18.422  0.00  0.00    +0.000 N 
ATOM     12  C   UNL     1       1.827   8.094  19.662  0.00  0.00    +0.000 C 
ATOM     13  O   UNL     1       1.271   8.703  20.572  0.00  0.00    +0.000 OA
ATOM     14  H   UNL     1       2.473   8.099  17.706  0.00  0.00    +0.000 HD
ENDBRANCH   1  12
BRANCH   4  15
ATOM     15  O   UNL     1       5.891   4.370  18.797  0.00  0.00    +0.000 OA
BRANCH  15  16
ATOM     16  C   UNL     1       5.964   4.280  17.423  0.00  0.00    +0.000 A 
ATOM     17  C   UNL     1       4.900   3.894  16.603  0.00  0.00    +0.000 A 
ATOM     18  C   UNL     1       5.081   3.772  15.225  0.00  0.00    +0.000 A 
ATOM     19  C   UNL     1       6.309   4.104  14.648  0.00  0.00    +0.000 A 
ATOM     20  C   UNL     1       7.353   4.568  15.456  0.00  0.00    +0.000 A 
ATOM     21  C   UNL     1       7.179   4.654  16.842  0.00  0.00    +0.000 A 
BRANCH  19  22
ATOM     22  C   UNL     1       6.492   3.971  13.234  0.00  0.00    +0.000 C 
ATOM     23  N   UNL     1       6.636   3.869  12.084  0.00  0.00    +0.000 NA
ENDBRANCH  19  22
ENDBRANCH  15  16
ENDBRANCH   4  15
TORSDOF 4
ENDMDL
MODEL 6
REMARK VINA RESULT:      -6.7      3.886      5.683
REMARK  Name = 
REMARK  5 active torsions:
REMARK  status: ('A' for Active; 'I' for Inactive)
REMARK    1  A    between atoms: C_1  and  N_2
REMARK    2  A    between atoms: C_3  and  C_5
REMARK    3  A    between atoms: C_8  and  O_9
REMARK    4  A    between atoms: O_9  and  C_10
REMARK    5  A    between atoms: C_13  and  C_14
REMARK                            x       y       z     vdW  Elec       q    Type
REMARK                         _______ _______ _______ _____ _____    ______ ____
ROOT
ATOM      1  C   UNL     1       5.797   4.095  13.757  0.00  0.00    +0.000 A 
ATOM      2  C   UNL     1       4.829   4.465  14.674  0.00  0.00    +0.000 A 
ATOM      3  C   UNL     1       5.361   5.162  15.820  0.00  0.00    +0.000 A 
ATOM      4  C   UNL     1       4.733   5.685  16.976  0.00  0.00    +0.000 A 
ATOM      5  C   UNL     1       5.575   6.234  17.944  0.00  0.00    +0.000 A 
ATOM      6  N   UNL     1       6.908   6.400  17.809  0.00  0.00    +0.000 NA
ATOM      7  C   UNL     1       7.501   5.955  16.684  0.00  0.00    +0.000 A 
ATOM      8  C   UNL     1       6.745   5.313  15.703  0.00  0.00    +0.000 A 
ATOM      9  S   UNL     1       7.342   4.626  14.253  0.00  0.00    +0.000 S 
ENDROOT
BRANCH   1  12
ATOM     10  C   UNL     1       6.672   1.758  10.951  0.00  0.00    +0.000 C 
ATOM     11  N   UNL     1       6.667   2.545  12.153  0.00  0.00    +0.000 N 
ATOM     12  C   UNL     1       5.612   3.360  12.510  0.00  0.00    +0.000 C 
ATOM     13  O   UNL     1       4.597   3.445  11.823  0.00  0.00    +0.000 OA
ATOM     14  H   UNL     1       7.464   2.499  12.776  0.00  0.00    +0.000 HD
ENDBRANCH   1  12
BRANCH   4  15
ATOM     15  O   UNL     1       3.367   5.559  17.120  0.00  0.00    +0.000 OA
BRANCH  15  16
ATOM     16  C   UNL     1       2.854   4.928  18.233  0.00  0.00    +0.000 A 
ATOM     17  C   UNL     1       2.265   5.593  19.312  0.00  0.00    +0.000 A 
ATOM     18  C   UNL     1       1.826   4.877  20.426  0.00  0.00    +0.000 A 
ATOM     19  C   UNL     1       1.908   3.483  20.439  0.00  0.00    +0.000 A 
ATOM     20  C   UNL     1       2.424   2.807  19.328  0.00  0.00    +0.000 A 
ATOM     21  C   UNL     1       2.897   3.531  18.227  0.00  0.00    +0.000 A 
BRANCH  19  22
ATOM     22  C   UNL     1       1.463   2.752  21.588  0.00  0.00    +0.000 C 
ATOM     23  N   UNL     1       1.094   2.160  22.518  0.00  0.00    +0.000 NA
ENDBRANCH  19  22
ENDBRANCH  15  16
ENDBRANCH   4  15
TORSDOF 4
ENDMDL
MODEL 7
REMARK VINA RESULT:      -6.7      1.929      2.422
REMARK  Name = 
REMARK  5 active torsions:
REMARK  status: ('A' for Active; 'I' for Inactive)
REMARK    1  A    between atoms: C_1  and  N_2
REMARK    2  A    between atoms: C_3  and  C_5
REMARK    3  A    between atoms: C_8  and  O_9
REMARK    4  A    between atoms: O_9  and  C_10
REMARK    5  A    between atoms: C_13  and  C_14
REMARK                            x       y       z     vdW  Elec       q    Type
REMARK                         _______ _______ _______ _____ _____    ______ ____
ROOT
ATOM      1  C   UNL     1       5.573   5.726  17.330  0.00  0.00    +0.000 A 
ATOM      2  C   UNL     1       4.696   6.007  18.361  0.00  0.00    +0.000 A 
ATOM      3  C   UNL     1       3.548   5.134  18.393  0.00  0.00    +0.000 A 
ATOM      4  C   UNL     1       2.424   5.091  19.252  0.00  0.00    +0.000 A 
ATOM      5  C   UNL     1       1.441   4.150  18.940  0.00  0.00    +0.000 A 
ATOM      6  N   UNL     1       1.536   3.222  17.965  0.00  0.00    +0.000 NA
ATOM      7  C   UNL     1       2.633   3.224  17.181  0.00  0.00    +0.000 A 
ATOM      8  C   UNL     1       3.624   4.187  17.368  0.00  0.00    +0.000 A 
ATOM      9  S   UNL     1       5.040   4.380  16.425  0.00  0.00    +0.000 S 
ENDROOT
BRANCH   1  12
ATOM     10  C   UNL     1       8.221   8.381  17.537  0.00  0.00    +0.000 C 
ATOM     11  N   UNL     1       7.061   7.557  17.737  0.00  0.00    +0.000 N 
ATOM     12  C   UNL     1       6.811   6.423  16.993  0.00  0.00    +0.000 C 
ATOM     13  O   UNL     1       7.584   6.036  16.119  0.00  0.00    +0.000 OA
ATOM     14  H   UNL     1       6.397   7.807  18.460  0.00  0.00    +0.000 HD
ENDBRANCH   1  12
BRANCH   4  15
ATOM     15  O   UNL     1       2.320   6.006  20.279  0.00  0.00    +0.000 OA
BRANCH  15  16
ATOM     16  C   UNL     1       1.840   7.271  20.019  0.00  0.00    +0.000 A 
ATOM     17  C   UNL     1       1.973   7.925  18.790  0.00  0.00    +0.000 A 
ATOM     18  C   UNL     1       1.509   9.232  18.634  0.00  0.00    +0.000 A 
ATOM     19  C   UNL     1       0.844   9.869  19.685  0.00  0.00    +0.000 A 
ATOM     20  C   UNL     1       0.638   9.189  20.890  0.00  0.00    +0.000 A 
ATOM     21  C   UNL     1       1.138   7.892  21.056  0.00  0.00    +0.000 A 
BRANCH  19  22
ATOM     22  C   UNL     1       0.376  11.212  19.522  0.00  0.00    +0.000 C 
ATOM     23  N   UNL     1       0.002  12.306  19.387  0.00  0.00    +0.000 NA
ENDBRANCH  19  22
ENDBRANCH  15  16
ENDBRANCH   4  15
TORSDOF 4
ENDMDL
MODEL 8
REMARK VINA RESULT:      -6.7      3.201      6.170
REMARK  Name = 
REMARK  5 active torsions:
REMARK  status: ('A' for Active; 'I' for Inactive)
REMARK    1  A    between atoms: C_1  and  N_2
REMARK    2  A    between atoms: C_3  and  C_5
REMARK    3  A    between atoms: C_8  and  O_9
REMARK    4  A    between atoms: O_9  and  C_10
REMARK    5  A    between atoms: C_13  and  C_14
REMARK                            x       y       z     vdW  Elec       q    Type
REMARK                         _______ _______ _______ _____ _____    ______ ____
ROOT
ATOM      1  C   UNL     1       2.386   6.628  19.625  0.00  0.00    +0.000 A 
ATOM      2  C   UNL     1       3.376   6.050  18.850  0.00  0.00    +0.000 A 
ATOM      3  C   UNL     1       3.649   4.676  19.197  0.00  0.00    +0.000 A 
ATOM      4  C   UNL     1       4.579   3.744  18.679  0.00  0.00    +0.000 A 
ATOM      5  C   UNL     1       4.633   2.503  19.317  0.00  0.00    +0.000 A 
ATOM      6  N   UNL     1       3.801   2.098  20.299  0.00  0.00    +0.000 NA
ATOM      7  C   UNL     1       2.875   2.965  20.755  0.00  0.00    +0.000 A 
ATOM      8  C   UNL     1       2.811   4.257  20.233  0.00  0.00    +0.000 A 
ATOM      9  S   UNL     1       1.752   5.503  20.742  0.00  0.00    +0.000 S 
ENDROOT
BRANCH   1  12
ATOM     10  C   UNL     1       1.612   9.965  18.087  0.00  0.00    +0.000 C 
ATOM     11  N   UNL     1       2.032   8.613  18.335  0.00  0.00    +0.000 N 
ATOM     12  C   UNL     1       1.884   7.997  19.561  0.00  0.00    +0.000 C 
ATOM     13  O   UNL     1       1.362   8.567  20.515  0.00  0.00    +0.000 OA
ATOM     14  H   UNL     1       2.448   8.080  17.582  0.00  0.00    +0.000 HD
ENDBRANCH   1  12
BRANCH   4  15
ATOM     15  O   UNL     1       5.416   4.122  17.651  0.00  0.00    +0.000 OA
BRANCH  15  16
ATOM     16  C   UNL     1       6.200   5.247  17.788  0.00  0.00    +0.000 A 
ATOM     17  C   UNL     1       7.250   5.366  18.704  0.00  0.00    +0.000 A 
ATOM     18  C   UNL     1       7.954   6.566  18.817  0.00  0.00    +0.000 A 
ATOM     19  C   UNL     1       7.660   7.632  17.965  0.00  0.00    +0.000 A 
ATOM     20  C   UNL     1       6.664   7.490  16.993  0.00  0.00    +0.000 A 
ATOM     21  C   UNL     1       5.935   6.298  16.907  0.00  0.00    +0.000 A 
BRANCH  19  22
ATOM     22  C   UNL     1       8.379   8.864  18.089  0.00  0.00    +0.000 C 
ATOM     23  N   UNL     1       8.961   9.866  18.197  0.00  0.00    +0.000 NA
ENDBRANCH  19  22
ENDBRANCH  15  16
ENDBRANCH   4  15
TORSDOF 4
ENDMDL
MODEL 9
REMARK VINA RESULT:      -6.7      3.960      5.808
REMARK  Name = 
REMARK  5 active torsions:
REMARK  status: ('A' for Active; 'I' for Inactive)
REMARK    1  A    between atoms: C_1  and  N_2
REMARK    2  A    between atoms: C_3  and  C_5
REMARK    3  A    between atoms: C_8  and  O_9
REMARK    4  A    between atoms: O_9  and  C_10
REMARK    5  A    between atoms: C_13  and  C_14
REMARK                            x       y       z     vdW  Elec       q    Type
REMARK                         _______ _______ _______ _____ _____    ______ ____
ROOT
ATOM      1  C   UNL     1       5.797   4.085  13.734  0.00  0.00    +0.000 A 
ATOM      2  C   UNL     1       4.843   4.404  14.684  0.00  0.00    +0.000 A 
ATOM      3  C   UNL     1       5.375   5.135  15.809  0.00  0.00    +0.000 A 
ATOM      4  C   UNL     1       4.760   5.626  16.985  0.00  0.00    +0.000 A 
ATOM      5  C   UNL     1       5.604   6.226  17.922  0.00  0.00    +0.000 A 
ATOM      6  N   UNL     1       6.919   6.467  17.739  0.00  0.00    +0.000 NA
ATOM      7  C   UNL     1       7.496   6.051  16.594  0.00  0.00    +0.000 A 
ATOM      8  C   UNL     1       6.743   5.363  15.643  0.00  0.00    +0.000 A 
ATOM      9  S   UNL     1       7.326   4.705  14.173  0.00  0.00    +0.000 S 
ENDROOT
BRANCH   1  12
ATOM     10  C   UNL     1       6.676   1.732  10.943  0.00  0.00    +0.000 C 
ATOM     11  N   UNL     1       6.672   2.530  12.138  0.00  0.00    +0.000 N 
ATOM     12  C   UNL     1       5.610   3.336  12.495  0.00  0.00    +0.000 C 
ATOM     13  O   UNL     1       4.589   3.403  11.817  0.00  0.00    +0.000 OA
ATOM     14  H   UNL     1       7.474   2.500  12.754  0.00  0.00    +0.000 HD
ENDBRANCH   1  12
BRANCH   4  15
ATOM     15  O   UNL     1       3.409   5.425  17.179  0.00  0.00    +0.000 OA
BRANCH  15  16
ATOM     16  C   UNL     1       2.977   4.702  18.269  0.00  0.00    +0.000 A 
ATOM     17  C   UNL     1       3.213   3.335  18.449  0.00  0.00    +0.000 A 
ATOM     18  C   UNL     1       2.685   2.669  19.557  0.00  0.00    +0.000 A 
ATOM     19  C   UNL     1       1.976   3.380  20.528  0.00  0.00    +0.000 A 
ATOM     20  C   UNL     1       1.806   4.762  20.392  0.00  0.00    +0.000 A 
ATOM     21  C   UNL     1       2.305   5.420  19.262  0.00  0.00    +0.000 A 
BRANCH  19  22
ATOM     22  C   UNL     1       1.430   2.691  21.659  0.00  0.00    +0.000 C 
ATOM     23  N   UNL     1       0.988   2.125  22.574  0.00  0.00    +0.000 NA
ENDBRANCH  19  22
ENDBRANCH  15  16
ENDBRANCH   4  15
TORSDOF 4
ENDMDL
