MODEL 1
REMARK VINA RESULT:      -9.1      0.000      0.000
REMARK  Name = 
REMARK  7 active torsions:
REMARK  status: ('A' for Active; 'I' for Inactive)
REMARK    1  A    between atoms: C_2  and  C_3
REMARK    2  A    between atoms: C_2  and  C_25
REMARK    3  A    between atoms: C_3  and  N_4
REMARK    4  A    between atoms: N_7  and  C_8
REMARK    5  A    between atoms: C_8  and  C_9
REMARK    6  A    between atoms: C_8  and  C_15
REMARK    7  A    between atoms: C_28  and  O_29
REMARK                            x       y       z     vdW  Elec       q    Type
REMARK                         _______ _______ _______ _____ _____    ______ ____
ROOT
ATOM      1  N   UNL     1       1.553   8.782  19.362  0.00  0.00    +0.000 N 
ATOM      2  C   UNL     1       2.035   8.870  18.051  0.00  0.00    +0.000 A 
ATOM      3  C   UNL     1       2.634   7.682  17.763  0.00  0.00    +0.000 A 
ATOM      4  N   UNL     1       2.629   6.938  18.923  0.00  0.00    +0.000 N 
ATOM      5  C   UNL     1       1.846   7.564  19.824  0.00  0.00    +0.000 A 
ENDROOT
BRANCH   1   6
ATOM      6  C   UNL     1       0.759   9.806  20.038  0.00  0.00    +0.000 C 
BRANCH   6   8
ATOM      7  O   UNL     1       0.992  11.753  18.630  0.00  0.00    +0.000 OA
ATOM      8  C   UNL     1       0.263  10.849  19.047  0.00  0.00    +0.000 C 
BRANCH   8   9
ATOM      9  C   UNL     1      -1.102  10.722  18.468  0.00  0.00    +0.000 A 
ATOM     10  C   UNL     1      -1.382   9.907  17.364  0.00  0.00    +0.000 A 
ATOM     11  C   UNL     1      -2.633   9.964  16.750  0.00  0.00    +0.000 A 
ATOM     12  C   UNL     1      -3.602  10.849  17.225  0.00  0.00    +0.000 A 
ATOM     13  C   UNL     1      -3.350  11.631  18.353  0.00  0.00    +0.000 A 
ATOM     14  C   UNL     1      -2.097  11.570  18.973  0.00  0.00    +0.000 A 
BRANCH  12  15
ATOM     15  O   UNL     1      -4.811  10.984  16.618  0.00  0.00    +0.000 OA
ATOM     16  H   UNL     1      -5.495  11.092  17.301  0.00  0.00    +0.000 HD
ENDBRANCH  12  15
ENDBRANCH   8   9
ENDBRANCH   6   8
ENDBRANCH   1   6
BRANCH   4  17
ATOM     17  C   UNL     1       3.389   5.738  19.242  0.00  0.00    +0.000 C 
BRANCH  17  18
ATOM     18  C   UNL     1       4.259   5.346  18.094  0.00  0.00    +0.000 A 
ATOM     19  C   UNL     1       4.026   4.433  17.085  0.00  0.00    +0.000 A 
ATOM     20  C   UNL     1       5.205   4.379  16.319  0.00  0.00    +0.000 A 
ATOM     21  C   UNL     1       5.612   3.666  15.192  0.00  0.00    +0.000 A 
ATOM     22  C   UNL     1       6.461   4.353  14.332  0.00  0.00    +0.000 A 
ATOM     23  C   UNL     1       7.304   5.337  14.843  0.00  0.00    +0.000 A 
ATOM     24  C   UNL     1       7.215   5.752  16.179  0.00  0.00    +0.000 A 
ATOM     25  C   UNL     1       6.049   5.354  16.824  0.00  0.00    +0.000 A 
ATOM     26  O   UNL     1       5.522   5.869  17.973  0.00  0.00    +0.000 OA
ENDBRANCH  17  18
BRANCH  17  27
ATOM     27  C   UNL     1       2.531   4.692  19.909  0.00  0.00    +0.000 A 
ATOM     28  C   UNL     1       1.408   4.120  19.301  0.00  0.00    +0.000 A 
ATOM     29  C   UNL     1       0.669   3.131  19.960  0.00  0.00    +0.000 A 
ATOM     30  C   UNL     1       1.032   2.712  21.239  0.00  0.00    +0.000 A 
ATOM     31  C   UNL     1       2.132   3.283  21.868  0.00  0.00    +0.000 A 
ATOM     32  C   UNL     1       2.872   4.265  21.210  0.00  0.00    +0.000 A 
ENDBRANCH  17  27
ENDBRANCH   4  17
TORSDOF 7
ENDMDL
MODEL 2
REMARK VINA RESULT:      -9.0      0.609      1.115
REMARK  Name = 
REMARK  7 active torsions:
REMARK  status: ('A' for Active; 'I' for Inactive)
REMARK    1  A    between atoms: C_2  and  C_3
REMARK    2  A    between atoms: C_2  and  C_25
REMARK    3  A    between atoms: C_3  and  N_4
REMARK    4  A    between atoms: N_7  and  C_8
REMARK    5  A    between atoms: C_8  and  C_9
REMARK    6  A    between atoms: C_8  and  C_15
REMARK    7  A    between atoms: C_28  and  O_29
REMARK                            x       y       z     vdW  Elec       q    Type
REMARK                         _______ _______ _______ _____ _____    ______ ____
ROOT
ATOM      1  N   UNL     1       1.327   9.018  19.521  0.00  0.00    +0.000 N 
ATOM      2  C   UNL     1       1.717   9.094  18.180  0.00  0.00    +0.000 A 
ATOM      3  C   UNL     1       2.346   7.925  17.877  0.00  0.00    +0.000 A 
ATOM      4  N   UNL     1       2.449   7.209  19.050  0.00  0.00    +0.000 N 
ATOM      5  C   UNL     1       1.701   7.824  19.988  0.00  0.00    +0.000 A 
ENDROOT
BRANCH   1   6
ATOM      6  C   UNL     1       0.537  10.024  20.228  0.00  0.00    +0.000 C 
BRANCH   6   8
ATOM      7  O   UNL     1       0.706  12.013  18.869  0.00  0.00    +0.000 OA
ATOM      8  C   UNL     1       0.008  11.074  19.262  0.00  0.00    +0.000 C 
BRANCH   8   9
ATOM      9  C   UNL     1      -1.351  10.914  18.676  0.00  0.00    +0.000 A 
ATOM     10  C   UNL     1      -1.612  10.065  17.593  0.00  0.00    +0.000 A 
ATOM     11  C   UNL     1      -2.858  10.091  16.967  0.00  0.00    +0.000 A 
ATOM     12  C   UNL     1      -3.841  10.978  17.408  0.00  0.00    +0.000 A 
ATOM     13  C   UNL     1      -3.608  11.794  18.516  0.00  0.00    +0.000 A 
ATOM     14  C   UNL     1      -2.360  11.765  19.148  0.00  0.00    +0.000 A 
BRANCH  12  15
ATOM     15  O   UNL     1      -5.047  11.082  16.789  0.00  0.00    +0.000 OA
ATOM     16  H   UNL     1      -4.935  11.585  15.964  0.00  0.00    +0.000 HD
ENDBRANCH  12  15
ENDBRANCH   8   9
ENDBRANCH   6   8
ENDBRANCH   1   6
BRANCH   4  17
ATOM     17  C   UNL     1       3.279   6.049  19.342  0.00  0.00    +0.000 C 
BRANCH  17  18
ATOM     18  C   UNL     1       4.255   5.810  18.238  0.00  0.00    +0.000 A 
ATOM     19  C   UNL     1       5.570   6.211  18.124  0.00  0.00    +0.000 A 
ATOM     20  C   UNL     1       6.001   5.804  16.849  0.00  0.00    +0.000 A 
ATOM     21  C   UNL     1       7.194   5.909  16.135  0.00  0.00    +0.000 A 
ATOM     22  C   UNL     1       7.484   4.833  15.305  0.00  0.00    +0.000 A 
ATOM     23  C   UNL     1       6.441   4.087  14.760  0.00  0.00    +0.000 A 
ATOM     24  C   UNL     1       5.110   4.306  15.143  0.00  0.00    +0.000 A 
ATOM     25  C   UNL     1       4.966   5.064  16.300  0.00  0.00    +0.000 A 
ATOM     26  O   UNL     1       3.861   5.158  17.096  0.00  0.00    +0.000 OA
ENDBRANCH  17  18
BRANCH  17  27
ATOM     27  C   UNL     1       2.463   4.895  19.869  0.00  0.00    +0.000 A 
ATOM     28  C   UNL     1       1.491   4.233  19.111  0.00  0.00    +0.000 A 
ATOM     29  C   UNL     1       0.787   3.148  19.646  0.00  0.00    +0.000 A 
ATOM     30  C   UNL     1       1.034   2.722  20.950  0.00  0.00    +0.000 A 
ATOM     31  C   UNL     1       1.980   3.379  21.727  0.00  0.00    +0.000 A 
ATOM     32  C   UNL     1       2.686   4.457  21.192  0.00  0.00    +0.000 A 
ENDBRANCH  17  27
ENDBRANCH   4  17
TORSDOF 7
ENDMDL
MODEL 3
REMARK VINA RESULT:      -8.8      0.319      1.265
REMARK  Name = 
REMARK  7 active torsions:
REMARK  status: ('A' for Active; 'I' for Inactive)
REMARK    1  A    between atoms: C_2  and  C_3
REMARK    2  A    between atoms: C_2  and  C_25
REMARK    3  A    between atoms: C_3  and  N_4
REMARK    4  A    between atoms: N_7  and  C_8
REMARK    5  A    between atoms: C_8  and  C_9
REMARK    6  A    between atoms: C_8  and  C_15
REMARK    7  A    between atoms: C_28  and  O_29
REMARK                            x       y       z     vdW  Elec       q    Type
REMARK                         _______ _______ _______ _____ _____    ______ ____
ROOT
ATOM      1  N   UNL     1       1.653   8.715  19.410  0.00  0.00    +0.000 N 
ATOM      2  C   UNL     1       2.094   8.793  18.085  0.00  0.00    +0.000 A 
ATOM      3  C   UNL     1       2.684   7.603  17.787  0.00  0.00    +0.000 A 
ATOM      4  N   UNL     1       2.715   6.867  18.952  0.00  0.00    +0.000 N 
ATOM      5  C   UNL     1       1.960   7.500  19.872  0.00  0.00    +0.000 A 
ENDROOT
BRANCH   1   6
ATOM      6  C   UNL     1       0.880   9.743  20.103  0.00  0.00    +0.000 C 
BRANCH   6   8
ATOM      7  O   UNL     1       1.376  11.655  18.713  0.00  0.00    +0.000 OA
ATOM      8  C   UNL     1       0.523  10.881  19.158  0.00  0.00    +0.000 C 
BRANCH   8   9
ATOM      9  C   UNL     1      -0.872  11.009  18.655  0.00  0.00    +0.000 A 
ATOM     10  C   UNL     1      -1.791  11.917  19.196  0.00  0.00    +0.000 A 
ATOM     11  C   UNL     1      -3.132  11.868  18.816  0.00  0.00    +0.000 A 
ATOM     12  C   UNL     1      -3.563  10.900  17.908  0.00  0.00    +0.000 A 
ATOM     13  C   UNL     1      -2.648  10.021  17.326  0.00  0.00    +0.000 A 
ATOM     14  C   UNL     1      -1.301  10.073  17.704  0.00  0.00    +0.000 A 
BRANCH  12  15
ATOM     15  O   UNL     1      -4.871  10.776  17.556  0.00  0.00    +0.000 OA
ATOM     16  H   UNL     1      -5.374  10.457  18.325  0.00  0.00    +0.000 HD
ENDBRANCH  12  15
ENDBRANCH   8   9
ENDBRANCH   6   8
ENDBRANCH   1   6
BRANCH   4  17
ATOM     17  C   UNL     1       3.485   5.669  19.256  0.00  0.00    +0.000 C 
BRANCH  17  18
ATOM     18  C   UNL     1       4.326   5.274  18.087  0.00  0.00    +0.000 A 
ATOM     19  C   UNL     1       4.071   4.353  17.092  0.00  0.00    +0.000 A 
ATOM     20  C   UNL     1       5.229   4.300  16.295  0.00  0.00    +0.000 A 
ATOM     21  C   UNL     1       5.610   3.582  15.162  0.00  0.00    +0.000 A 
ATOM     22  C   UNL     1       6.432   4.267  14.275  0.00  0.00    +0.000 A 
ATOM     23  C   UNL     1       7.283   5.259  14.756  0.00  0.00    +0.000 A 
ATOM     24  C   UNL     1       7.227   5.683  16.092  0.00  0.00    +0.000 A 
ATOM     25  C   UNL     1       6.081   5.283  16.771  0.00  0.00    +0.000 A 
ATOM     26  O   UNL     1       5.583   5.804  17.930  0.00  0.00    +0.000 OA
ENDBRANCH  17  18
BRANCH  17  27
ATOM     27  C   UNL     1       2.646   4.625  19.949  0.00  0.00    +0.000 A 
ATOM     28  C   UNL     1       2.919   4.152  21.237  0.00  0.00    +0.000 A 
ATOM     29  C   UNL     1       2.084   3.203  21.839  0.00  0.00    +0.000 A 
ATOM     30  C   UNL     1       0.977   2.703  21.155  0.00  0.00    +0.000 A 
ATOM     31  C   UNL     1       0.701   3.144  19.867  0.00  0.00    +0.000 A 
ATOM     32  C   UNL     1       1.529   4.093  19.268  0.00  0.00    +0.000 A 
ENDBRANCH  17  27
ENDBRANCH   4  17
TORSDOF 7
ENDMDL
MODEL 4
REMARK VINA RESULT:      -8.7      2.028      9.115
REMARK  Name = 
REMARK  7 active torsions:
REMARK  status: ('A' for Active; 'I' for Inactive)
REMARK    1  A    between atoms: C_2  and  C_3
REMARK    2  A    between atoms: C_2  and  C_25
REMARK    3  A    between atoms: C_3  and  N_4
REMARK    4  A    between atoms: N_7  and  C_8
REMARK    5  A    between atoms: C_8  and  C_9
REMARK    6  A    between atoms: C_8  and  C_15
REMARK    7  A    between atoms: C_28  and  O_29
REMARK                            x       y       z     vdW  Elec       q    Type
REMARK                         _______ _______ _______ _____ _____    ______ ____
ROOT
ATOM      1  N   UNL     1       2.095   7.617  19.109  0.00  0.00    +0.000 N 
ATOM      2  C   UNL     1       2.415   8.130  17.848  0.00  0.00    +0.000 A 
ATOM      3  C   UNL     1       2.096   9.453  17.860  0.00  0.00    +0.000 A 
ATOM      4  N   UNL     1       1.474   9.706  19.064  0.00  0.00    +0.000 N 
ATOM      5  C   UNL     1       1.618   8.621  19.850  0.00  0.00    +0.000 A 
ENDROOT
BRANCH   1   6
ATOM      6  C   UNL     1       2.365   6.252  19.558  0.00  0.00    +0.000 C 
BRANCH   6   8
ATOM      7  O   UNL     1       1.815   4.836  17.681  0.00  0.00    +0.000 OA
ATOM      8  C   UNL     1       2.695   5.350  18.378  0.00  0.00    +0.000 C 
BRANCH   8   9
ATOM      9  C   UNL     1       4.114   5.164  17.969  0.00  0.00    +0.000 A 
ATOM     10  C   UNL     1       4.480   4.569  16.755  0.00  0.00    +0.000 A 
ATOM     11  C   UNL     1       5.815   4.253  16.503  0.00  0.00    +0.000 A 
ATOM     12  C   UNL     1       6.786   4.514  17.471  0.00  0.00    +0.000 A 
ATOM     13  C   UNL     1       6.440   5.150  18.664  0.00  0.00    +0.000 A 
ATOM     14  C   UNL     1       5.102   5.472  18.915  0.00  0.00    +0.000 A 
BRANCH  12  15
ATOM     15  O   UNL     1       8.089   4.166  17.294  0.00  0.00    +0.000 OA
ATOM     16  H   UNL     1       8.425   3.776  18.119  0.00  0.00    +0.000 HD
ENDBRANCH  12  15
ENDBRANCH   8   9
ENDBRANCH   6   8
ENDBRANCH   1   6
BRANCH   4  17
ATOM     17  C   UNL     1       0.686  10.865  19.459  0.00  0.00    +0.000 C 
BRANCH  17  18
ATOM     18  C   UNL     1      -0.623  10.880  18.740  0.00  0.00    +0.000 A 
ATOM     19  C   UNL     1      -1.765  11.606  19.010  0.00  0.00    +0.000 A 
ATOM     20  C   UNL     1      -2.735  11.176  18.086  0.00  0.00    +0.000 A 
ATOM     21  C   UNL     1      -4.067  11.503  17.836  0.00  0.00    +0.000 A 
ATOM     22  C   UNL     1      -4.447  11.460  16.500  0.00  0.00    +0.000 A 
ATOM     23  C   UNL     1      -3.798  10.586  15.631  0.00  0.00    +0.000 A 
ATOM     24  C   UNL     1      -2.674   9.853  16.038  0.00  0.00    +0.000 A 
ATOM     25  C   UNL     1      -2.095  10.304  17.219  0.00  0.00    +0.000 A 
ATOM     26  O   UNL     1      -0.839  10.036  17.680  0.00  0.00    +0.000 OA
ENDBRANCH  17  18
BRANCH  17  27
ATOM     27  C   UNL     1       1.520  12.120  19.502  0.00  0.00    +0.000 A 
ATOM     28  C   UNL     1       1.811  12.808  20.686  0.00  0.00    +0.000 A 
ATOM     29  C   UNL     1       2.616  13.952  20.666  0.00  0.00    +0.000 A 
ATOM     30  C   UNL     1       3.128  14.432  19.461  0.00  0.00    +0.000 A 
ATOM     31  C   UNL     1       2.834  13.777  18.272  0.00  0.00    +0.000 A 
ATOM     32  C   UNL     1       2.035  12.633  18.292  0.00  0.00    +0.000 A 
ENDBRANCH  17  27
ENDBRANCH   4  17
TORSDOF 7
ENDMDL
MODEL 5
REMARK VINA RESULT:      -8.7      1.996      9.061
REMARK  Name = 
REMARK  7 active torsions:
REMARK  status: ('A' for Active; 'I' for Inactive)
REMARK    1  A    between atoms: C_2  and  C_3
REMARK    2  A    between atoms: C_2  and  C_25
REMARK    3  A    between atoms: C_3  and  N_4
REMARK    4  A    between atoms: N_7  and  C_8
REMARK    5  A    between atoms: C_8  and  C_9
REMARK    6  A    between atoms: C_8  and  C_15
REMARK    7  A    between atoms: C_28  and  O_29
REMARK                            x       y       z     vdW  Elec       q    Type
REMARK                         _______ _______ _______ _____ _____    ______ ____
ROOT
ATOM      1  N   UNL     1       2.112   7.492  19.181  0.00  0.00    +0.000 N 
ATOM      2  C   UNL     1       2.421   7.960  17.899  0.00  0.00    +0.000 A 
ATOM      3  C   UNL     1       2.104   9.284  17.868  0.00  0.00    +0.000 A 
ATOM      4  N   UNL     1       1.494   9.580  19.068  0.00  0.00    +0.000 N 
ATOM      5  C   UNL     1       1.644   8.522  19.890  0.00  0.00    +0.000 A 
ENDROOT
BRANCH   1   6
ATOM      6  C   UNL     1       2.384   6.143  19.674  0.00  0.00    +0.000 C 
BRANCH   6   8
ATOM      7  O   UNL     1       1.785   4.751  17.794  0.00  0.00    +0.000 OA
ATOM      8  C   UNL     1       2.678   5.194  18.521  0.00  0.00    +0.000 C 
BRANCH   8   9
ATOM      9  C   UNL     1       4.090   4.873  18.176  0.00  0.00    +0.000 A 
ATOM     10  C   UNL     1       5.171   5.253  18.983  0.00  0.00    +0.000 A 
ATOM     11  C   UNL     1       6.478   5.090  18.526  0.00  0.00    +0.000 A 
ATOM     12  C   UNL     1       6.710   4.565  17.254  0.00  0.00    +0.000 A 
ATOM     13  C   UNL     1       5.644   4.139  16.461  0.00  0.00    +0.000 A 
ATOM     14  C   UNL     1       4.331   4.297  16.921  0.00  0.00    +0.000 A 
BRANCH  12  15
ATOM     15  O   UNL     1       7.965   4.447  16.744  0.00  0.00    +0.000 OA
ATOM     16  H   UNL     1       7.935   4.632  15.789  0.00  0.00    +0.000 HD
ENDBRANCH  12  15
ENDBRANCH   8   9
ENDBRANCH   6   8
ENDBRANCH   1   6
BRANCH   4  17
ATOM     17  C   UNL     1       0.712  10.753  19.430  0.00  0.00    +0.000 C 
BRANCH  17  18
ATOM     18  C   UNL     1      -0.597  10.755  18.711  0.00  0.00    +0.000 A 
ATOM     19  C   UNL     1      -1.770  11.411  19.022  0.00  0.00    +0.000 A 
ATOM     20  C   UNL     1      -2.720  10.997  18.071  0.00  0.00    +0.000 A 
ATOM     21  C   UNL     1      -4.066  11.279  17.839  0.00  0.00    +0.000 A 
ATOM     22  C   UNL     1      -4.444  11.302  16.502  0.00  0.00    +0.000 A 
ATOM     23  C   UNL     1      -3.757  10.513  15.582  0.00  0.00    +0.000 A 
ATOM     24  C   UNL     1      -2.601   9.807  15.945  0.00  0.00    +0.000 A 
ATOM     25  C   UNL     1      -2.043  10.209  17.154  0.00  0.00    +0.000 A 
ATOM     26  O   UNL     1      -0.776   9.969  17.600  0.00  0.00    +0.000 OA
ENDBRANCH  17  18
BRANCH  17  27
ATOM     27  C   UNL     1       1.552  12.005  19.439  0.00  0.00    +0.000 A 
ATOM     28  C   UNL     1       2.189  12.509  18.300  0.00  0.00    +0.000 A 
ATOM     29  C   UNL     1       2.932  13.694  18.364  0.00  0.00    +0.000 A 
ATOM     30  C   UNL     1       3.059  14.381  19.570  0.00  0.00    +0.000 A 
ATOM     31  C   UNL     1       2.451  13.886  20.717  0.00  0.00    +0.000 A 
ATOM     32  C   UNL     1       1.707  12.708  20.653  0.00  0.00    +0.000 A 
ENDBRANCH  17  27
ENDBRANCH   4  17
TORSDOF 7
ENDMDL
MODEL 6
REMARK VINA RESULT:      -8.7      0.702      1.686
REMARK  Name = 
REMARK  7 active torsions:
REMARK  status: ('A' for Active; 'I' for Inactive)
REMARK    1  A    between atoms: C_2  and  C_3
REMARK    2  A    between atoms: C_2  and  C_25
REMARK    3  A    between atoms: C_3  and  N_4
REMARK    4  A    between atoms: N_7  and  C_8
REMARK    5  A    between atoms: C_8  and  C_9
REMARK    6  A    between atoms: C_8  and  C_15
REMARK    7  A    between atoms: C_28  and  O_29
REMARK                            x       y       z     vdW  Elec       q    Type
REMARK                         _______ _______ _______ _____ _____    ______ ____
ROOT
ATOM      1  N   UNL     1       1.380   8.955  19.610  0.00  0.00    +0.000 N 
ATOM      2  C   UNL     1       1.747   9.041  18.263  0.00  0.00    +0.000 A 
ATOM      3  C   UNL     1       2.374   7.876  17.942  0.00  0.00    +0.000 A 
ATOM      4  N   UNL     1       2.499   7.153  19.109  0.00  0.00    +0.000 N 
ATOM      5  C   UNL     1       1.766   7.760  20.063  0.00  0.00    +0.000 A 
ENDROOT
BRANCH   1   6
ATOM      6  C   UNL     1       0.598   9.954  20.336  0.00  0.00    +0.000 C 
BRANCH   6   8
ATOM      7  O   UNL     1       1.045  11.936  19.031  0.00  0.00    +0.000 OA
ATOM      8  C   UNL     1       0.216  11.111  19.423  0.00  0.00    +0.000 C 
BRANCH   8   9
ATOM      9  C   UNL     1      -1.171  11.196  18.888  0.00  0.00    +0.000 A 
ATOM     10  C   UNL     1      -2.132  12.070  19.412  0.00  0.00    +0.000 A 
ATOM     11  C   UNL     1      -3.460  11.981  18.999  0.00  0.00    +0.000 A 
ATOM     12  C   UNL     1      -3.838  11.006  18.074  0.00  0.00    +0.000 A 
ATOM     13  C   UNL     1      -2.881  10.162  17.510  0.00  0.00    +0.000 A 
ATOM     14  C   UNL     1      -1.546  10.254  17.920  0.00  0.00    +0.000 A 
BRANCH  12  15
ATOM     15  O   UNL     1      -5.132  10.842  17.691  0.00  0.00    +0.000 OA
ATOM     16  H   UNL     1      -5.665  11.564  18.066  0.00  0.00    +0.000 HD
ENDBRANCH  12  15
ENDBRANCH   8   9
ENDBRANCH   6   8
ENDBRANCH   1   6
BRANCH   4  17
ATOM     17  C   UNL     1       3.339   5.995  19.380  0.00  0.00    +0.000 C 
BRANCH  17  18
ATOM     18  C   UNL     1       4.293   5.762  18.256  0.00  0.00    +0.000 A 
ATOM     19  C   UNL     1       5.619   6.127  18.138  0.00  0.00    +0.000 A 
ATOM     20  C   UNL     1       6.020   5.749  16.844  0.00  0.00    +0.000 A 
ATOM     21  C   UNL     1       7.207   5.841  16.117  0.00  0.00    +0.000 A 
ATOM     22  C   UNL     1       7.453   4.784  15.249  0.00  0.00    +0.000 A 
ATOM     23  C   UNL     1       6.381   4.088  14.695  0.00  0.00    +0.000 A 
ATOM     24  C   UNL     1       5.062   4.335  15.103  0.00  0.00    +0.000 A 
ATOM     25  C   UNL     1       4.956   5.059  16.286  0.00  0.00    +0.000 A 
ATOM     26  O   UNL     1       3.865   5.160  17.099  0.00  0.00    +0.000 OA
ENDBRANCH  17  18
BRANCH  17  27
ATOM     27  C   UNL     1       2.537   4.837  19.920  0.00  0.00    +0.000 A 
ATOM     28  C   UNL     1       2.670   4.354  21.226  0.00  0.00    +0.000 A 
ATOM     29  C   UNL     1       1.875   3.295  21.679  0.00  0.00    +0.000 A 
ATOM     30  C   UNL     1       0.949   2.694  20.827  0.00  0.00    +0.000 A 
ATOM     31  C   UNL     1       0.816   3.145  19.519  0.00  0.00    +0.000 A 
ATOM     32  C   UNL     1       1.605   4.204  19.069  0.00  0.00    +0.000 A 
ENDBRANCH  17  27
ENDBRANCH   4  17
TORSDOF 7
ENDMDL
MODEL 7
REMARK VINA RESULT:      -8.5      1.594      2.590
REMARK  Name = 
REMARK  7 active torsions:
REMARK  status: ('A' for Active; 'I' for Inactive)
REMARK    1  A    between atoms: C_2  and  C_3
REMARK    2  A    between atoms: C_2  and  C_25
REMARK    3  A    between atoms: C_3  and  N_4
REMARK    4  A    between atoms: N_7  and  C_8
REMARK    5  A    between atoms: C_8  and  C_9
REMARK    6  A    between atoms: C_8  and  C_15
REMARK    7  A    between atoms: C_28  and  O_29
REMARK                            x       y       z     vdW  Elec       q    Type
REMARK                         _______ _______ _______ _____ _____    ______ ____
ROOT
ATOM      1  N   UNL     1       1.673   8.735  19.324  0.00  0.00    +0.000 N 
ATOM      2  C   UNL     1       2.150   8.818  18.011  0.00  0.00    +0.000 A 
ATOM      3  C   UNL     1       2.727   7.619  17.718  0.00  0.00    +0.000 A 
ATOM      4  N   UNL     1       2.713   6.872  18.876  0.00  0.00    +0.000 N 
ATOM      5  C   UNL     1       1.946   7.511  19.782  0.00  0.00    +0.000 A 
ENDROOT
BRANCH   1   6
ATOM      6  C   UNL     1       0.900   9.771  20.006  0.00  0.00    +0.000 C 
BRANCH   6   8
ATOM      7  O   UNL     1      -0.857  10.235  18.417  0.00  0.00    +0.000 OA
ATOM      8  C   UNL     1       0.151  10.637  19.004  0.00  0.00    +0.000 C 
BRANCH   8   9
ATOM      9  C   UNL     1       0.567  12.051  18.800  0.00  0.00    +0.000 A 
ATOM     10  C   UNL     1       1.909  12.451  18.789  0.00  0.00    +0.000 A 
ATOM     11  C   UNL     1       2.237  13.806  18.779  0.00  0.00    +0.000 A 
ATOM     12  C   UNL     1       1.226  14.767  18.798  0.00  0.00    +0.000 A 
ATOM     13  C   UNL     1      -0.115  14.381  18.761  0.00  0.00    +0.000 A 
ATOM     14  C   UNL     1      -0.445  13.021  18.766  0.00  0.00    +0.000 A 
BRANCH  12  15
ATOM     15  O   UNL     1       1.500  16.098  18.852  0.00  0.00    +0.000 OA
ATOM     16  H   UNL     1       0.960  16.558  18.187  0.00  0.00    +0.000 HD
ENDBRANCH  12  15
ENDBRANCH   8   9
ENDBRANCH   6   8
ENDBRANCH   1   6
BRANCH   4  17
ATOM     17  C   UNL     1       3.453   5.658  19.188  0.00  0.00    +0.000 C 
BRANCH  17  18
ATOM     18  C   UNL     1       4.307   5.251  18.033  0.00  0.00    +0.000 A 
ATOM     19  C   UNL     1       4.047   4.346  17.024  0.00  0.00    +0.000 A 
ATOM     20  C   UNL     1       5.219   4.268  16.250  0.00  0.00    +0.000 A 
ATOM     21  C   UNL     1       5.603   3.550  15.118  0.00  0.00    +0.000 A 
ATOM     22  C   UNL     1       6.461   4.220  14.254  0.00  0.00    +0.000 A 
ATOM     23  C   UNL     1       7.329   5.184  14.761  0.00  0.00    +0.000 A 
ATOM     24  C   UNL     1       7.258   5.598  16.100  0.00  0.00    +0.000 A 
ATOM     25  C   UNL     1       6.088   5.224  16.752  0.00  0.00    +0.000 A 
ATOM     26  O   UNL     1       5.580   5.747  17.906  0.00  0.00    +0.000 OA
ENDBRANCH  17  18
BRANCH  17  27
ATOM     27  C   UNL     1       2.581   4.628  19.862  0.00  0.00    +0.000 A 
ATOM     28  C   UNL     1       1.462   4.053  19.250  0.00  0.00    +0.000 A 
ATOM     29  C   UNL     1       0.708   3.080  19.915  0.00  0.00    +0.000 A 
ATOM     30  C   UNL     1       1.054   2.680  21.205  0.00  0.00    +0.000 A 
ATOM     31  C   UNL     1       2.150   3.254  21.838  0.00  0.00    +0.000 A 
ATOM     32  C   UNL     1       2.904   4.221  21.174  0.00  0.00    +0.000 A 
ENDBRANCH  17  27
ENDBRANCH   4  17
TORSDOF 7
ENDMDL
MODEL 8
REMARK VINA RESULT:      -8.5      4.022      8.088
REMARK  Name = 
REMARK  7 active torsions:
REMARK  status: ('A' for Active; 'I' for Inactive)
REMARK    1  A    between atoms: C_2  and  C_3
REMARK    2  A    between atoms: C_2  and  C_25
REMARK    3  A    between atoms: C_3  and  N_4
REMARK    4  A    between atoms: N_7  and  C_8
REMARK    5  A    between atoms: C_8  and  C_9
REMARK    6  A    between atoms: C_8  and  C_15
REMARK    7  A    between atoms: C_28  and  O_29
REMARK                            x       y       z     vdW  Elec       q    Type
REMARK                         _______ _______ _______ _____ _____    ______ ____
ROOT
ATOM      1  N   UNL     1       7.095   6.890  17.765  0.00  0.00    +0.000 N 
ATOM      2  C   UNL     1       7.274   6.068  16.648  0.00  0.00    +0.000 A 
ATOM      3  C   UNL     1       6.039   5.652  16.253  0.00  0.00    +0.000 A 
ATOM      4  N   UNL     1       5.142   6.109  17.194  0.00  0.00    +0.000 N 
ATOM      5  C   UNL     1       5.784   6.969  18.008  0.00  0.00    +0.000 A 
ENDROOT
BRANCH   1   6
ATOM      6  C   UNL     1       8.156   7.626  18.449  0.00  0.00    +0.000 C 
BRANCH   6   8
ATOM      7  O   UNL     1       7.388   9.523  17.167  0.00  0.00    +0.000 OA
ATOM      8  C   UNL     1       8.181   9.081  18.002  0.00  0.00    +0.000 C 
BRANCH   8   9
ATOM      9  C   UNL     1       9.109  10.037  18.666  0.00  0.00    +0.000 A 
ATOM     10  C   UNL     1       9.109  10.254  20.050  0.00  0.00    +0.000 A 
ATOM     11  C   UNL     1       9.866  11.289  20.597  0.00  0.00    +0.000 A 
ATOM     12  C   UNL     1      10.613  12.122  19.762  0.00  0.00    +0.000 A 
ATOM     13  C   UNL     1      10.658  11.885  18.388  0.00  0.00    +0.000 A 
ATOM     14  C   UNL     1       9.902  10.844  17.838  0.00  0.00    +0.000 A 
BRANCH  12  15
ATOM     15  O   UNL     1      11.315  13.181  20.246  0.00  0.00    +0.000 OA
ATOM     16  H   UNL     1      10.725  13.953  20.299  0.00  0.00    +0.000 HD
ENDBRANCH  12  15
ENDBRANCH   8   9
ENDBRANCH   6   8
ENDBRANCH   1   6
BRANCH   4  17
ATOM     17  C   UNL     1       3.760   5.704  17.410  0.00  0.00    +0.000 C 
BRANCH  17  18
ATOM     18  C   UNL     1       2.997   6.785  18.101  0.00  0.00    +0.000 A 
ATOM     19  C   UNL     1       2.500   7.971  17.598  0.00  0.00    +0.000 A 
ATOM     20  C   UNL     1       1.949   8.665  18.690  0.00  0.00    +0.000 A 
ATOM     21  C   UNL     1       1.311   9.894  18.852  0.00  0.00    +0.000 A 
ATOM     22  C   UNL     1       0.309   9.920  19.815  0.00  0.00    +0.000 A 
ATOM     23  C   UNL     1       0.385   9.056  20.905  0.00  0.00    +0.000 A 
ATOM     24  C   UNL     1       1.371   8.062  20.981  0.00  0.00    +0.000 A 
ATOM     25  C   UNL     1       2.024   7.811  19.779  0.00  0.00    +0.000 A 
ATOM     26  O   UNL     1       2.760   6.710  19.451  0.00  0.00    +0.000 OA
ENDBRANCH  17  18
BRANCH  17  27
ATOM     27  C   UNL     1       3.665   4.289  17.924  0.00  0.00    +0.000 A 
ATOM     28  C   UNL     1       4.434   3.807  18.989  0.00  0.00    +0.000 A 
ATOM     29  C   UNL     1       4.279   2.491  19.440  0.00  0.00    +0.000 A 
ATOM     30  C   UNL     1       3.365   1.637  18.824  0.00  0.00    +0.000 A 
ATOM     31  C   UNL     1       2.608   2.090  17.752  0.00  0.00    +0.000 A 
ATOM     32  C   UNL     1       2.758   3.403  17.304  0.00  0.00    +0.000 A 
ENDBRANCH  17  27
ENDBRANCH   4  17
TORSDOF 7
ENDMDL
MODEL 9
REMARK VINA RESULT:      -8.4      4.702      8.486
REMARK  Name = 
REMARK  7 active torsions:
REMARK  status: ('A' for Active; 'I' for Inactive)
REMARK    1  A    between atoms: C_2  and  C_3
REMARK    2  A    between atoms: C_2  and  C_25
REMARK    3  A    between atoms: C_3  and  N_4
REMARK    4  A    between atoms: N_7  and  C_8
REMARK    5  A    between atoms: C_8  and  C_9
REMARK    6  A    between atoms: C_8  and  C_15
REMARK    7  A    between atoms: C_28  and  O_29
REMARK                            x       y       z     vdW  Elec       q    Type
REMARK                         _______ _______ _______ _____ _____    ______ ____
ROOT
ATOM      1  N   UNL     1       7.895   6.824  18.317  0.00  0.00    +0.000 N 
ATOM      2  C   UNL     1       8.022   5.487  18.709  0.00  0.00    +0.000 A 
ATOM      3  C   UNL     1       7.294   4.741  17.833  0.00  0.00    +0.000 A 
ATOM      4  N   UNL     1       6.635   5.623  17.005  0.00  0.00    +0.000 N 
ATOM      5  C   UNL     1       7.127   6.858  17.225  0.00  0.00    +0.000 A 
ENDROOT
BRANCH   1   6
ATOM      6  C   UNL     1       8.593   7.952  18.930  0.00  0.00    +0.000 C 
BRANCH   6   8
ATOM      7  O   UNL     1       7.545   9.278  17.206  0.00  0.00    +0.000 OA
ATOM      8  C   UNL     1       8.328   9.237  18.158  0.00  0.00    +0.000 C 
BRANCH   8   9
ATOM      9  C   UNL     1       8.935  10.513  18.626  0.00  0.00    +0.000 A 
ATOM     10  C   UNL     1       8.991  11.662  17.827  0.00  0.00    +0.000 A 
ATOM     11  C   UNL     1       9.730  12.769  18.241  0.00  0.00    +0.000 A 
ATOM     12  C   UNL     1      10.432  12.726  19.447  0.00  0.00    +0.000 A 
ATOM     13  C   UNL     1      10.345  11.605  20.274  0.00  0.00    +0.000 A 
ATOM     14  C   UNL     1       9.599  10.495  19.861  0.00  0.00    +0.000 A 
BRANCH  12  15
ATOM     15  O   UNL     1      11.215  13.758  19.860  0.00  0.00    +0.000 OA
ATOM     16  H   UNL     1      10.752  14.595  19.683  0.00  0.00    +0.000 HD
ENDBRANCH  12  15
ENDBRANCH   8   9
ENDBRANCH   6   8
ENDBRANCH   1   6
BRANCH   4  17
ATOM     17  C   UNL     1       5.519   5.370  16.104  0.00  0.00    +0.000 C 
BRANCH  17  18
ATOM     18  C   UNL     1       4.419   4.656  16.817  0.00  0.00    +0.000 A 
ATOM     19  C   UNL     1       4.172   3.302  16.923  0.00  0.00    +0.000 A 
ATOM     20  C   UNL     1       2.959   3.174  17.622  0.00  0.00    +0.000 A 
ATOM     21  C   UNL     1       2.175   2.099  18.040  0.00  0.00    +0.000 A 
ATOM     22  C   UNL     1       1.517   2.281  19.250  0.00  0.00    +0.000 A 
ATOM     23  C   UNL     1       1.156   3.567  19.647  0.00  0.00    +0.000 A 
ATOM     24  C   UNL     1       1.569   4.696  18.924  0.00  0.00    +0.000 A 
ATOM     25  C   UNL     1       2.593   4.450  18.017  0.00  0.00    +0.000 A 
ATOM     26  O   UNL     1       3.420   5.367  17.435  0.00  0.00    +0.000 OA
ENDBRANCH  17  18
BRANCH  17  27
ATOM     27  C   UNL     1       5.987   4.857  14.765  0.00  0.00    +0.000 A 
ATOM     28  C   UNL     1       5.249   3.957  13.988  0.00  0.00    +0.000 A 
ATOM     29  C   UNL     1       5.722   3.540  12.739  0.00  0.00    +0.000 A 
ATOM     30  C   UNL     1       6.945   4.004  12.257  0.00  0.00    +0.000 A 
ATOM     31  C   UNL     1       7.703   4.882  13.022  0.00  0.00    +0.000 A 
ATOM     32  C   UNL     1       7.229   5.302  14.265  0.00  0.00    +0.000 A 
ENDBRANCH  17  27
ENDBRANCH   4  17
TORSDOF 7
ENDMDL
