MODEL 1
REMARK VINA RESULT:      -8.1      0.000      0.000
REMARK  Name = 
REMARK  12 active torsions:
REMARK  status: ('A' for Active; 'I' for Inactive)
REMARK    1  A    between atoms: C_1  and  C_2
REMARK    2  A    between atoms: C_2  and  C_3
REMARK    3  A    between atoms: C_2  and  C_4
REMARK    4  A    between atoms: C_4  and  C_5
REMARK    5  A    between atoms: C_5  and  C_6
REMARK    6  A    between atoms: C_8  and  C_9
REMARK    7  A    between atoms: C_9  and  C_10
REMARK    8  A    between atoms: C_10  and  C_11
REMARK    9  A    between atoms: C_11  and  C_12
REMARK   10  A    between atoms: C_11  and  C_13
REMARK   11  A    between atoms: N_16  and  C_17
REMARK   12  A    between atoms: C_17  and  C_18
REMARK                            x       y       z     vdW  Elec       q    Type
REMARK                         _______ _______ _______ _____ _____    ______ ____
ROOT
ATOM      1  C   UNL     1       6.682   5.336  15.992  0.00  0.00    +0.000 A 
ATOM      2  C   UNL     1       7.405   6.386  16.512  0.00  0.00    +0.000 A 
ATOM      3  C   UNL     1       7.445   6.479  17.888  0.00  0.00    +0.000 A 
ATOM      4  N   UNL     1       6.846   5.571  18.679  0.00  0.00    +0.000 NA
ATOM      5  C   UNL     1       6.133   4.606  18.092  0.00  0.00    +0.000 A 
ATOM      6  N   UNL     1       5.443   3.754  18.938  0.00  0.00    +0.000 N 
ATOM      7  N   UNL     1       6.040   4.444  16.768  0.00  0.00    +0.000 NA
ATOM      8  H   UNL     1       6.120   3.159  19.398  0.00  0.00    +0.000 HD
ENDROOT
BRANCH   1   9
ATOM      9  C   UNL     1       6.569   5.152  14.500  0.00  0.00    +0.000 C 
BRANCH   9  10
ATOM     10  C   UNL     1       5.948   3.794  14.158  0.00  0.00    +0.000 C 
BRANCH  10  12
ATOM     11  C   UNL     1       4.814   3.467  11.952  0.00  0.00    +0.000 C 
ATOM     12  C   UNL     1       6.149   3.375  12.694  0.00  0.00    +0.000 C 
ATOM     13  C   UNL     1       7.197   4.226  11.975  0.00  0.00    +0.000 C 
ENDBRANCH  10  12
ENDBRANCH   9  10
ENDBRANCH   1   9
BRANCH   3  14
ATOM     14  C   UNL     1       8.172   7.615  18.567  0.00  0.00    +0.000 C 
BRANCH  14  15
ATOM     15  C   UNL     1       8.234   8.925  17.764  0.00  0.00    +0.000 C 
BRANCH  15  16
ATOM     16  C   UNL     1       8.402  10.216  18.591  0.00  0.00    +0.000 C 
ATOM     17  C   UNL     1       9.579  10.137  19.564  0.00  0.00    +0.000 C 
ATOM     18  C   UNL     1       8.597  11.408  17.645  0.00  0.00    +0.000 C 
ENDBRANCH  15  16
ENDBRANCH  14  15
ENDBRANCH   3  14
BRANCH   6  19
ATOM     19  C   UNL     1       4.336   3.033  18.343  0.00  0.00    +0.000 C 
BRANCH  19  20
ATOM     20  C   UNL     1       3.205   2.997  19.347  0.00  0.00    +0.000 A 
ATOM     21  C   UNL     1       1.899   3.314  18.936  0.00  0.00    +0.000 A 
ATOM     22  C   UNL     1       0.842   3.309  19.844  0.00  0.00    +0.000 A 
ATOM     23  C   UNL     1       1.079   2.978  21.179  0.00  0.00    +0.000 A 
ATOM     24  C   UNL     1       2.364   2.639  21.595  0.00  0.00    +0.000 A 
ATOM     25  C   UNL     1       3.426   2.648  20.686  0.00  0.00    +0.000 A 
ENDBRANCH  19  20
ENDBRANCH   6  19
TORSDOF 8
ENDMDL
MODEL 2
REMARK VINA RESULT:      -7.9      0.753      1.455
REMARK  Name = 
REMARK  12 active torsions:
REMARK  status: ('A' for Active; 'I' for Inactive)
REMARK    1  A    between atoms: C_1  and  C_2
REMARK    2  A    between atoms: C_2  and  C_3
REMARK    3  A    between atoms: C_2  and  C_4
REMARK    4  A    between atoms: C_4  and  C_5
REMARK    5  A    between atoms: C_5  and  C_6
REMARK    6  A    between atoms: C_8  and  C_9
REMARK    7  A    between atoms: C_9  and  C_10
REMARK    8  A    between atoms: C_10  and  C_11
REMARK    9  A    between atoms: C_11  and  C_12
REMARK   10  A    between atoms: C_11  and  C_13
REMARK   11  A    between atoms: N_16  and  C_17
REMARK   12  A    between atoms: C_17  and  C_18
REMARK                            x       y       z     vdW  Elec       q    Type
REMARK                         _______ _______ _______ _____ _____    ______ ____
ROOT
ATOM      1  C   UNL     1       6.833   5.248  15.760  0.00  0.00    +0.000 A 
ATOM      2  C   UNL     1       7.503   6.313  16.323  0.00  0.00    +0.000 A 
ATOM      3  C   UNL     1       7.439   6.418  17.696  0.00  0.00    +0.000 A 
ATOM      4  N   UNL     1       6.795   5.509  18.450  0.00  0.00    +0.000 NA
ATOM      5  C   UNL     1       6.139   4.529  17.821  0.00  0.00    +0.000 A 
ATOM      6  N   UNL     1       5.399   3.676  18.622  0.00  0.00    +0.000 N 
ATOM      7  N   UNL     1       6.146   4.356  16.496  0.00  0.00    +0.000 NA
ATOM      8  H   UNL     1       6.048   3.094  19.136  0.00  0.00    +0.000 HD
ENDROOT
BRANCH   1   9
ATOM      9  C   UNL     1       6.833   5.050  14.266  0.00  0.00    +0.000 C 
BRANCH   9  10
ATOM     10  C   UNL     1       6.007   3.821  13.873  0.00  0.00    +0.000 C 
BRANCH  10  12
ATOM     11  C   UNL     1       6.767   2.535  11.867  0.00  0.00    +0.000 C 
ATOM     12  C   UNL     1       5.839   3.649  12.356  0.00  0.00    +0.000 C 
ATOM     13  C   UNL     1       4.398   3.331  11.955  0.00  0.00    +0.000 C 
ENDBRANCH  10  12
ENDBRANCH   9  10
ENDBRANCH   1   9
BRANCH   3  14
ATOM     14  C   UNL     1       8.101   7.569  18.416  0.00  0.00    +0.000 C 
BRANCH  14  15
ATOM     15  C   UNL     1       7.889   8.950  17.774  0.00  0.00    +0.000 C 
BRANCH  15  16
ATOM     16  C   UNL     1       8.928  10.030  18.139  0.00  0.00    +0.000 C 
ATOM     17  C   UNL     1       8.471  11.436  17.748  0.00  0.00    +0.000 C 
ATOM     18  C   UNL     1       9.208   9.983  19.647  0.00  0.00    +0.000 C 
ENDBRANCH  15  16
ENDBRANCH  14  15
ENDBRANCH   3  14
BRANCH   6  19
ATOM     19  C   UNL     1       4.348   2.936  17.954  0.00  0.00    +0.000 C 
BRANCH  19  20
ATOM     20  C   UNL     1       3.069   3.122  18.740  0.00  0.00    +0.000 A 
ATOM     21  C   UNL     1       3.050   3.988  19.846  0.00  0.00    +0.000 A 
ATOM     22  C   UNL     1       1.892   4.162  20.600  0.00  0.00    +0.000 A 
ATOM     23  C   UNL     1       0.729   3.473  20.249  0.00  0.00    +0.000 A 
ATOM     24  C   UNL     1       0.727   2.629  19.142  0.00  0.00    +0.000 A 
ATOM     25  C   UNL     1       1.890   2.450  18.387  0.00  0.00    +0.000 A 
ENDBRANCH  19  20
ENDBRANCH   6  19
TORSDOF 8
ENDMDL
MODEL 3
REMARK VINA RESULT:      -7.8      2.855      7.848
REMARK  Name = 
REMARK  12 active torsions:
REMARK  status: ('A' for Active; 'I' for Inactive)
REMARK    1  A    between atoms: C_1  and  C_2
REMARK    2  A    between atoms: C_2  and  C_3
REMARK    3  A    between atoms: C_2  and  C_4
REMARK    4  A    between atoms: C_4  and  C_5
REMARK    5  A    between atoms: C_5  and  C_6
REMARK    6  A    between atoms: C_8  and  C_9
REMARK    7  A    between atoms: C_9  and  C_10
REMARK    8  A    between atoms: C_10  and  C_11
REMARK    9  A    between atoms: C_11  and  C_12
REMARK   10  A    between atoms: C_11  and  C_13
REMARK   11  A    between atoms: N_16  and  C_17
REMARK   12  A    between atoms: C_17  and  C_18
REMARK                            x       y       z     vdW  Elec       q    Type
REMARK                         _______ _______ _______ _____ _____    ______ ____
ROOT
ATOM      1  C   UNL     1       3.524   6.357  17.733  0.00  0.00    +0.000 A 
ATOM      2  C   UNL     1       2.472   5.500  17.971  0.00  0.00    +0.000 A 
ATOM      3  C   UNL     1       2.732   4.154  17.816  0.00  0.00    +0.000 A 
ATOM      4  N   UNL     1       3.956   3.700  17.491  0.00  0.00    +0.000 NA
ATOM      5  C   UNL     1       4.909   4.601  17.240  0.00  0.00    +0.000 A 
ATOM      6  N   UNL     1       6.125   4.100  16.805  0.00  0.00    +0.000 N 
ATOM      7  N   UNL     1       4.742   5.921  17.363  0.00  0.00    +0.000 NA
ATOM      8  H   UNL     1       6.573   3.648  17.591  0.00  0.00    +0.000 HD
ENDROOT
BRANCH   1   9
ATOM      9  C   UNL     1       3.339   7.847  17.865  0.00  0.00    +0.000 C 
BRANCH   9  10
ATOM     10  C   UNL     1       1.855   8.223  17.841  0.00  0.00    +0.000 C 
BRANCH  10  12
ATOM     11  C   UNL     1       0.227  10.049  18.364  0.00  0.00    +0.000 C 
ATOM     12  C   UNL     1       1.478   9.315  18.853  0.00  0.00    +0.000 C 
ATOM     13  C   UNL     1       1.233   8.760  20.256  0.00  0.00    +0.000 C 
ENDBRANCH  10  12
ENDBRANCH   9  10
ENDBRANCH   1   9
BRANCH   3  14
ATOM     14  C   UNL     1       1.642   3.128  18.010  0.00  0.00    +0.000 C 
BRANCH  14  15
ATOM     15  C   UNL     1       1.918   2.079  19.101  0.00  0.00    +0.000 C 
BRANCH  15  16
ATOM     16  C   UNL     1       1.547   2.490  20.541  0.00  0.00    +0.000 C 
ATOM     17  C   UNL     1       2.777   2.700  21.423  0.00  0.00    +0.000 C 
ATOM     18  C   UNL     1       0.713   3.777  20.508  0.00  0.00    +0.000 C 
ENDBRANCH  15  16
ENDBRANCH  14  15
ENDBRANCH   3  14
BRANCH   6  19
ATOM     19  C   UNL     1       6.978   5.037  16.101  0.00  0.00    +0.000 C 
BRANCH  19  20
ATOM     20  C   UNL     1       6.917   4.712  14.625  0.00  0.00    +0.000 A 
ATOM     21  C   UNL     1       6.003   3.752  14.160  0.00  0.00    +0.000 A 
ATOM     22  C   UNL     1       5.940   3.419  12.809  0.00  0.00    +0.000 A 
ATOM     23  C   UNL     1       6.791   4.051  11.900  0.00  0.00    +0.000 A 
ATOM     24  C   UNL     1       7.685   5.021  12.344  0.00  0.00    +0.000 A 
ATOM     25  C   UNL     1       7.753   5.354  13.700  0.00  0.00    +0.000 A 
ENDBRANCH  19  20
ENDBRANCH   6  19
TORSDOF 8
ENDMDL
MODEL 4
REMARK VINA RESULT:      -7.8      3.213      7.039
REMARK  Name = 
REMARK  12 active torsions:
REMARK  status: ('A' for Active; 'I' for Inactive)
REMARK    1  A    between atoms: C_1  and  C_2
REMARK    2  A    between atoms: C_2  and  C_3
REMARK    3  A    between atoms: C_2  and  C_4
REMARK    4  A    between atoms: C_4  and  C_5
REMARK    5  A    between atoms: C_5  and  C_6
REMARK    6  A    between atoms: C_8  and  C_9
REMARK    7  A    between atoms: C_9  and  C_10
REMARK    8  A    between atoms: C_10  and  C_11
REMARK    9  A    between atoms: C_11  and  C_12
REMARK   10  A    between atoms: C_11  and  C_13
REMARK   11  A    between atoms: N_16  and  C_17
REMARK   12  A    between atoms: C_17  and  C_18
REMARK                            x       y       z     vdW  Elec       q    Type
REMARK                         _______ _______ _______ _____ _____    ______ ____
ROOT
ATOM      1  C   UNL     1       3.229   4.524  17.584  0.00  0.00    +0.000 A 
ATOM      2  C   UNL     1       2.518   5.527  18.204  0.00  0.00    +0.000 A 
ATOM      3  C   UNL     1       3.020   6.804  18.072  0.00  0.00    +0.000 A 
ATOM      4  N   UNL     1       4.121   7.064  17.344  0.00  0.00    +0.000 NA
ATOM      5  C   UNL     1       4.772   6.028  16.808  0.00  0.00    +0.000 A 
ATOM      6  N   UNL     1       5.958   6.322  16.156  0.00  0.00    +0.000 N 
ATOM      7  N   UNL     1       4.357   4.760  16.889  0.00  0.00    +0.000 NA
ATOM      8  H   UNL     1       5.728   6.796  15.293  0.00  0.00    +0.000 HD
ENDROOT
BRANCH   1   9
ATOM      9  C   UNL     1       2.769   3.091  17.677  0.00  0.00    +0.000 C 
BRANCH   9  10
ATOM     10  C   UNL     1       3.028   2.519  19.074  0.00  0.00    +0.000 C 
BRANCH  10  12
ATOM     11  C   UNL     1       1.741   3.176  21.116  0.00  0.00    +0.000 C 
ATOM     12  C   UNL     1       1.749   2.266  19.885  0.00  0.00    +0.000 C 
ATOM     13  C   UNL     1       0.477   2.496  19.068  0.00  0.00    +0.000 C 
ENDBRANCH  10  12
ENDBRANCH   9  10
ENDBRANCH   1   9
BRANCH   3  14
ATOM     14  C   UNL     1       2.345   7.975  18.746  0.00  0.00    +0.000 C 
BRANCH  14  15
ATOM     15  C   UNL     1       1.680   8.983  17.793  0.00  0.00    +0.000 C 
BRANCH  15  16
ATOM     16  C   UNL     1       0.847  10.096  18.462  0.00  0.00    +0.000 C 
ATOM     17  C   UNL     1       0.403   9.722  19.876  0.00  0.00    +0.000 C 
ATOM     18  C   UNL     1       1.667  11.392  18.508  0.00  0.00    +0.000 C 
ENDBRANCH  15  16
ENDBRANCH  14  15
ENDBRANCH   3  14
BRANCH   6  19
ATOM     19  C   UNL     1       6.879   5.216  15.992  0.00  0.00    +0.000 C 
BRANCH  19  20
ATOM     20  C   UNL     1       6.900   4.834  14.529  0.00  0.00    +0.000 A 
ATOM     21  C   UNL     1       6.035   3.833  14.057  0.00  0.00    +0.000 A 
ATOM     22  C   UNL     1       6.049   3.447  12.718  0.00  0.00    +0.000 A 
ATOM     23  C   UNL     1       6.927   4.069  11.829  0.00  0.00    +0.000 A 
ATOM     24  C   UNL     1       7.773   5.079  12.277  0.00  0.00    +0.000 A 
ATOM     25  C   UNL     1       7.764   5.465  13.621  0.00  0.00    +0.000 A 
ENDBRANCH  19  20
ENDBRANCH   6  19
TORSDOF 8
ENDMDL
MODEL 5
REMARK VINA RESULT:      -7.8      1.306      1.659
REMARK  Name = 
REMARK  12 active torsions:
REMARK  status: ('A' for Active; 'I' for Inactive)
REMARK    1  A    between atoms: C_1  and  C_2
REMARK    2  A    between atoms: C_2  and  C_3
REMARK    3  A    between atoms: C_2  and  C_4
REMARK    4  A    between atoms: C_4  and  C_5
REMARK    5  A    between atoms: C_5  and  C_6
REMARK    6  A    between atoms: C_8  and  C_9
REMARK    7  A    between atoms: C_9  and  C_10
REMARK    8  A    between atoms: C_10  and  C_11
REMARK    9  A    between atoms: C_11  and  C_12
REMARK   10  A    between atoms: C_11  and  C_13
REMARK   11  A    between atoms: N_16  and  C_17
REMARK   12  A    between atoms: C_17  and  C_18
REMARK                            x       y       z     vdW  Elec       q    Type
REMARK                         _______ _______ _______ _____ _____    ______ ____
ROOT
ATOM      1  C   UNL     1       5.959   4.907  16.381  0.00  0.00    +0.000 A 
ATOM      2  C   UNL     1       7.069   5.690  16.607  0.00  0.00    +0.000 A 
ATOM      3  C   UNL     1       6.949   6.652  17.588  0.00  0.00    +0.000 A 
ATOM      4  N   UNL     1       5.825   6.791  18.313  0.00  0.00    +0.000 NA
ATOM      5  C   UNL     1       4.782   6.017  18.002  0.00  0.00    +0.000 A 
ATOM      6  N   UNL     1       3.609   6.262  18.697  0.00  0.00    +0.000 N 
ATOM      7  N   UNL     1       4.812   5.063  17.066  0.00  0.00    +0.000 NA
ATOM      8  H   UNL     1       3.738   5.937  19.646  0.00  0.00    +0.000 HD
ENDROOT
BRANCH   1   9
ATOM      9  C   UNL     1       5.984   3.834  15.322  0.00  0.00    +0.000 C 
BRANCH   9  10
ATOM     10  C   UNL     1       5.730   4.425  13.932  0.00  0.00    +0.000 C 
BRANCH  10  12
ATOM     11  C   UNL     1       5.194   2.999  11.948  0.00  0.00    +0.000 C 
ATOM     12  C   UNL     1       6.327   3.592  12.788  0.00  0.00    +0.000 C 
ATOM     13  C   UNL     1       7.261   4.406  11.891  0.00  0.00    +0.000 C 
ENDBRANCH  10  12
ENDBRANCH   9  10
ENDBRANCH   1   9
BRANCH   3  14
ATOM     14  C   UNL     1       8.089   7.595  17.891  0.00  0.00    +0.000 C 
BRANCH  14  15
ATOM     15  C   UNL     1       7.760   9.089  17.739  0.00  0.00    +0.000 C 
BRANCH  15  16
ATOM     16  C   UNL     1       8.897  10.070  18.093  0.00  0.00    +0.000 C 
ATOM     17  C   UNL     1       8.552  11.516  17.737  0.00  0.00    +0.000 C 
ATOM     18  C   UNL     1       9.211   9.971  19.591  0.00  0.00    +0.000 C 
ENDBRANCH  15  16
ENDBRANCH  14  15
ENDBRANCH   3  14
BRANCH   6  19
ATOM     19  C   UNL     1       2.394   5.782  18.072  0.00  0.00    +0.000 C 
BRANCH  19  20
ATOM     20  C   UNL     1       1.902   4.585  18.856  0.00  0.00    +0.000 A 
ATOM     21  C   UNL     1       1.515   3.418  18.177  0.00  0.00    +0.000 A 
ATOM     22  C   UNL     1       1.039   2.309  18.872  0.00  0.00    +0.000 A 
ATOM     23  C   UNL     1       0.951   2.352  20.265  0.00  0.00    +0.000 A 
ATOM     24  C   UNL     1       1.353   3.493  20.953  0.00  0.00    +0.000 A 
ATOM     25  C   UNL     1       1.828   4.609  20.256  0.00  0.00    +0.000 A 
ENDBRANCH  19  20
ENDBRANCH   6  19
TORSDOF 8
ENDMDL
MODEL 6
REMARK VINA RESULT:      -7.6      3.257      7.087
REMARK  Name = 
REMARK  12 active torsions:
REMARK  status: ('A' for Active; 'I' for Inactive)
REMARK    1  A    between atoms: C_1  and  C_2
REMARK    2  A    between atoms: C_2  and  C_3
REMARK    3  A    between atoms: C_2  and  C_4
REMARK    4  A    between atoms: C_4  and  C_5
REMARK    5  A    between atoms: C_5  and  C_6
REMARK    6  A    between atoms: C_8  and  C_9
REMARK    7  A    between atoms: C_9  and  C_10
REMARK    8  A    between atoms: C_10  and  C_11
REMARK    9  A    between atoms: C_11  and  C_12
REMARK   10  A    between atoms: C_11  and  C_13
REMARK   11  A    between atoms: N_16  and  C_17
REMARK   12  A    between atoms: C_17  and  C_18
REMARK                            x       y       z     vdW  Elec       q    Type
REMARK                         _______ _______ _______ _____ _____    ______ ____
ROOT
ATOM      1  C   UNL     1       3.116   4.625  17.694  0.00  0.00    +0.000 A 
ATOM      2  C   UNL     1       2.429   5.663  18.283  0.00  0.00    +0.000 A 
ATOM      3  C   UNL     1       2.957   6.924  18.103  0.00  0.00    +0.000 A 
ATOM      4  N   UNL     1       4.058   7.136  17.360  0.00  0.00    +0.000 NA
ATOM      5  C   UNL     1       4.685   6.068  16.857  0.00  0.00    +0.000 A 
ATOM      6  N   UNL     1       5.873   6.315  16.189  0.00  0.00    +0.000 N 
ATOM      7  N   UNL     1       4.244   4.813  16.985  0.00  0.00    +0.000 NA
ATOM      8  H   UNL     1       5.647   6.764  15.311  0.00  0.00    +0.000 HD
ENDROOT
BRANCH   1   9
ATOM      9  C   UNL     1       2.627   3.206  17.839  0.00  0.00    +0.000 C 
BRANCH   9  10
ATOM     10  C   UNL     1       1.631   3.082  18.996  0.00  0.00    +0.000 C 
BRANCH  10  12
ATOM     11  C   UNL     1       3.757   2.362  20.099  0.00  0.00    +0.000 C 
ATOM     12  C   UNL     1       2.244   2.501  20.279  0.00  0.00    +0.000 C 
ATOM     13  C   UNL     1       1.948   3.355  21.513  0.00  0.00    +0.000 C 
ENDBRANCH  10  12
ENDBRANCH   9  10
ENDBRANCH   1   9
BRANCH   3  14
ATOM     14  C   UNL     1       2.310   8.132  18.739  0.00  0.00    +0.000 C 
BRANCH  14  15
ATOM     15  C   UNL     1       1.551   9.054  17.770  0.00  0.00    +0.000 C 
BRANCH  15  16
ATOM     16  C   UNL     1       0.781  10.224  18.416  0.00  0.00    +0.000 C 
ATOM     17  C   UNL     1       0.196   9.857  19.779  0.00  0.00    +0.000 C 
ATOM     18  C   UNL     1       1.716  11.431  18.567  0.00  0.00    +0.000 C 
ENDBRANCH  15  16
ENDBRANCH  14  15
ENDBRANCH   3  14
BRANCH   6  19
ATOM     19  C   UNL     1       6.769   5.185  16.059  0.00  0.00    +0.000 C 
BRANCH  19  20
ATOM     20  C   UNL     1       6.839   4.806  14.596  0.00  0.00    +0.000 A 
ATOM     21  C   UNL     1       7.739   5.469  13.746  0.00  0.00    +0.000 A 
ATOM     22  C   UNL     1       7.809   5.155  12.391  0.00  0.00    +0.000 A 
ATOM     23  C   UNL     1       6.979   4.161  11.868  0.00  0.00    +0.000 A 
ATOM     24  C   UNL     1       6.098   3.479  12.703  0.00  0.00    +0.000 A 
ATOM     25  C   UNL     1       6.024   3.797  14.063  0.00  0.00    +0.000 A 
ENDBRANCH  19  20
ENDBRANCH   6  19
TORSDOF 8
ENDMDL
MODEL 7
REMARK VINA RESULT:      -7.6      3.673      7.492
REMARK  Name = 
REMARK  12 active torsions:
REMARK  status: ('A' for Active; 'I' for Inactive)
REMARK    1  A    between atoms: C_1  and  C_2
REMARK    2  A    between atoms: C_2  and  C_3
REMARK    3  A    between atoms: C_2  and  C_4
REMARK    4  A    between atoms: C_4  and  C_5
REMARK    5  A    between atoms: C_5  and  C_6
REMARK    6  A    between atoms: C_8  and  C_9
REMARK    7  A    between atoms: C_9  and  C_10
REMARK    8  A    between atoms: C_10  and  C_11
REMARK    9  A    between atoms: C_11  and  C_12
REMARK   10  A    between atoms: C_11  and  C_13
REMARK   11  A    between atoms: N_16  and  C_17
REMARK   12  A    between atoms: C_17  and  C_18
REMARK                            x       y       z     vdW  Elec       q    Type
REMARK                         _______ _______ _______ _____ _____    ______ ____
ROOT
ATOM      1  C   UNL     1       3.192   5.738  18.445  0.00  0.00    +0.000 A 
ATOM      2  C   UNL     1       2.529   6.916  18.708  0.00  0.00    +0.000 A 
ATOM      3  C   UNL     1       2.849   7.990  17.903  0.00  0.00    +0.000 A 
ATOM      4  N   UNL     1       3.729   7.882  16.891  0.00  0.00    +0.000 NA
ATOM      5  C   UNL     1       4.355   6.713  16.731  0.00  0.00    +0.000 A 
ATOM      6  N   UNL     1       5.331   6.672  15.749  0.00  0.00    +0.000 N 
ATOM      7  N   UNL     1       4.107   5.625  17.466  0.00  0.00    +0.000 NA
ATOM      8  H   UNL     1       4.867   6.699  14.850  0.00  0.00    +0.000 HD
ENDROOT
BRANCH   1   9
ATOM      9  C   UNL     1       2.921   4.508  19.275  0.00  0.00    +0.000 C 
BRANCH   9  10
ATOM     10  C   UNL     1       1.751   4.739  20.236  0.00  0.00    +0.000 C 
BRANCH  10  12
ATOM     11  C   UNL     1       0.831   2.634  19.247  0.00  0.00    +0.000 C 
ATOM     12  C   UNL     1       0.928   3.474  20.522  0.00  0.00    +0.000 C 
ATOM     13  C   UNL     1       1.519   2.629  21.652  0.00  0.00    +0.000 C 
ENDBRANCH  10  12
ENDBRANCH   9  10
ENDBRANCH   1   9
BRANCH   3  14
ATOM     14  C   UNL     1       2.215   9.342  18.127  0.00  0.00    +0.000 C 
BRANCH  14  15
ATOM     15  C   UNL     1       0.680   9.368  18.032  0.00  0.00    +0.000 C 
BRANCH  15  16
ATOM     16  C   UNL     1      -0.035  10.383  18.947  0.00  0.00    +0.000 C 
ATOM     17  C   UNL     1      -1.414  10.777  18.415  0.00  0.00    +0.000 C 
ATOM     18  C   UNL     1      -0.178   9.792  20.355  0.00  0.00    +0.000 C 
ENDBRANCH  15  16
ENDBRANCH  14  15
ENDBRANCH   3  14
BRANCH   6  19
ATOM     19  C   UNL     1       6.307   5.609  15.874  0.00  0.00    +0.000 C 
BRANCH  19  20
ATOM     20  C   UNL     1       6.466   4.954  14.520  0.00  0.00    +0.000 A 
ATOM     21  C   UNL     1       5.521   4.009  14.087  0.00  0.00    +0.000 A 
ATOM     22  C   UNL     1       5.655   3.375  12.854  0.00  0.00    +0.000 A 
ATOM     23  C   UNL     1       6.738   3.687  12.030  0.00  0.00    +0.000 A 
ATOM     24  C   UNL     1       7.670   4.638  12.436  0.00  0.00    +0.000 A 
ATOM     25  C   UNL     1       7.540   5.272  13.675  0.00  0.00    +0.000 A 
ENDBRANCH  19  20
ENDBRANCH   6  19
TORSDOF 8
ENDMDL
MODEL 8
REMARK VINA RESULT:      -7.6      2.839      5.976
REMARK  Name = 
REMARK  12 active torsions:
REMARK  status: ('A' for Active; 'I' for Inactive)
REMARK    1  A    between atoms: C_1  and  C_2
REMARK    2  A    between atoms: C_2  and  C_3
REMARK    3  A    between atoms: C_2  and  C_4
REMARK    4  A    between atoms: C_4  and  C_5
REMARK    5  A    between atoms: C_5  and  C_6
REMARK    6  A    between atoms: C_8  and  C_9
REMARK    7  A    between atoms: C_9  and  C_10
REMARK    8  A    between atoms: C_10  and  C_11
REMARK    9  A    between atoms: C_11  and  C_12
REMARK   10  A    between atoms: C_11  and  C_13
REMARK   11  A    between atoms: N_16  and  C_17
REMARK   12  A    between atoms: C_17  and  C_18
REMARK                            x       y       z     vdW  Elec       q    Type
REMARK                         _______ _______ _______ _____ _____    ______ ____
ROOT
ATOM      1  C   UNL     1       4.612   6.190  16.603  0.00  0.00    +0.000 A 
ATOM      2  C   UNL     1       5.231   6.081  15.378  0.00  0.00    +0.000 A 
ATOM      3  C   UNL     1       5.666   4.821  15.023  0.00  0.00    +0.000 A 
ATOM      4  N   UNL     1       5.461   3.750  15.810  0.00  0.00    +0.000 NA
ATOM      5  C   UNL     1       4.887   3.952  17.000  0.00  0.00    +0.000 A 
ATOM      6  N   UNL     1       4.789   2.845  17.827  0.00  0.00    +0.000 N 
ATOM      7  N   UNL     1       4.439   5.137  17.423  0.00  0.00    +0.000 NA
ATOM      8  H   UNL     1       4.084   2.231  17.440  0.00  0.00    +0.000 HD
ENDROOT
BRANCH   1   9
ATOM      9  C   UNL     1       4.109   7.526  17.089  0.00  0.00    +0.000 C 
BRANCH   9  10
ATOM     10  C   UNL     1       3.460   7.402  18.470  0.00  0.00    +0.000 C 
BRANCH  10  12
ATOM     11  C   UNL     1       1.630   8.127  20.014  0.00  0.00    +0.000 C 
ATOM     12  C   UNL     1       2.052   8.011  18.548  0.00  0.00    +0.000 C 
ATOM     13  C   UNL     1       1.966   9.383  17.878  0.00  0.00    +0.000 C 
ENDBRANCH  10  12
ENDBRANCH   9  10
ENDBRANCH   1   9
BRANCH   3  14
ATOM     14  C   UNL     1       6.396   4.592  13.721  0.00  0.00    +0.000 C 
BRANCH  14  15
ATOM     15  C   UNL     1       6.365   3.146  13.199  0.00  0.00    +0.000 C 
BRANCH  15  16
ATOM     16  C   UNL     1       5.886   2.964  11.744  0.00  0.00    +0.000 C 
ATOM     17  C   UNL     1       6.071   1.531  11.244  0.00  0.00    +0.000 C 
ATOM     18  C   UNL     1       4.407   3.357  11.638  0.00  0.00    +0.000 C 
ENDBRANCH  15  16
ENDBRANCH  14  15
ENDBRANCH   3  14
BRANCH   6  19
ATOM     19  C   UNL     1       4.616   3.125  19.237  0.00  0.00    +0.000 C 
BRANCH  19  20
ATOM     20  C   UNL     1       3.134   3.248  19.514  0.00  0.00    +0.000 A 
ATOM     21  C   UNL     1       2.668   4.248  20.383  0.00  0.00    +0.000 A 
ATOM     22  C   UNL     1       1.310   4.371  20.672  0.00  0.00    +0.000 A 
ATOM     23  C   UNL     1       0.397   3.494  20.085  0.00  0.00    +0.000 A 
ATOM     24  C   UNL     1       0.842   2.512  19.203  0.00  0.00    +0.000 A 
ATOM     25  C   UNL     1       2.204   2.385  18.916  0.00  0.00    +0.000 A 
ENDBRANCH  19  20
ENDBRANCH   6  19
TORSDOF 8
ENDMDL
MODEL 9
REMARK VINA RESULT:      -7.6      2.985      7.150
REMARK  Name = 
REMARK  12 active torsions:
REMARK  status: ('A' for Active; 'I' for Inactive)
REMARK    1  A    between atoms: C_1  and  C_2
REMARK    2  A    between atoms: C_2  and  C_3
REMARK    3  A    between atoms: C_2  and  C_4
REMARK    4  A    between atoms: C_4  and  C_5
REMARK    5  A    between atoms: C_5  and  C_6
REMARK    6  A    between atoms: C_8  and  C_9
REMARK    7  A    between atoms: C_9  and  C_10
REMARK    8  A    between atoms: C_10  and  C_11
REMARK    9  A    between atoms: C_11  and  C_12
REMARK   10  A    between atoms: C_11  and  C_13
REMARK   11  A    between atoms: N_16  and  C_17
REMARK   12  A    between atoms: C_17  and  C_18
REMARK                            x       y       z     vdW  Elec       q    Type
REMARK                         _______ _______ _______ _____ _____    ______ ____
ROOT
ATOM      1  C   UNL     1       2.906   4.438  17.560  0.00  0.00    +0.000 A 
ATOM      2  C   UNL     1       2.272   5.471  18.214  0.00  0.00    +0.000 A 
ATOM      3  C   UNL     1       2.890   6.702  18.156  0.00  0.00    +0.000 A 
ATOM      4  N   UNL     1       4.028   6.894  17.465  0.00  0.00    +0.000 NA
ATOM      5  C   UNL     1       4.597   5.830  16.892  0.00  0.00    +0.000 A 
ATOM      6  N   UNL     1       5.821   6.046  16.281  0.00  0.00    +0.000 N 
ATOM      7  N   UNL     1       4.067   4.603  16.902  0.00  0.00    +0.000 NA
ATOM      8  H   UNL     1       5.657   6.579  15.437  0.00  0.00    +0.000 HD
ENDROOT
BRANCH   1   9
ATOM      9  C   UNL     1       2.317   3.050  17.572  0.00  0.00    +0.000 C 
BRANCH   9  10
ATOM     10  C   UNL     1       1.245   2.916  18.658  0.00  0.00    +0.000 C 
BRANCH  10  12
ATOM     11  C   UNL     1       3.303   2.253  19.916  0.00  0.00    +0.000 C 
ATOM     12  C   UNL     1       1.778   2.360  19.987  0.00  0.00    +0.000 C 
ATOM     13  C   UNL     1       1.378   3.218  21.188  0.00  0.00    +0.000 C 
ENDBRANCH  10  12
ENDBRANCH   9  10
ENDBRANCH   1   9
BRANCH   3  14
ATOM     14  C   UNL     1       2.306   7.896  18.872  0.00  0.00    +0.000 C 
BRANCH  14  15
ATOM     15  C   UNL     1       1.682   7.595  20.245  0.00  0.00    +0.000 C 
BRANCH  15  16
ATOM     16  C   UNL     1       0.825   8.721  20.859  0.00  0.00    +0.000 C 
ATOM     17  C   UNL     1       1.336   9.160  22.231  0.00  0.00    +0.000 C 
ATOM     18  C   UNL     1       0.806   9.926  19.909  0.00  0.00    +0.000 C 
ENDBRANCH  15  16
ENDBRANCH  14  15
ENDBRANCH   3  14
BRANCH   6  19
ATOM     19  C   UNL     1       6.643   4.869  16.082  0.00  0.00    +0.000 C 
BRANCH  19  20
ATOM     20  C   UNL     1       6.769   4.631  14.593  0.00  0.00    +0.000 A 
ATOM     21  C   UNL     1       7.674   5.396  13.839  0.00  0.00    +0.000 A 
ATOM     22  C   UNL     1       7.796   5.211  12.464  0.00  0.00    +0.000 A 
ATOM     23  C   UNL     1       7.015   4.247  11.824  0.00  0.00    +0.000 A 
ATOM     24  C   UNL     1       6.131   3.465  12.562  0.00  0.00    +0.000 A 
ATOM     25  C   UNL     1       6.005   3.652  13.942  0.00  0.00    +0.000 A 
ENDBRANCH  19  20
ENDBRANCH   6  19
TORSDOF 8
ENDMDL
