MODEL 1
REMARK VINA RESULT:      -6.9      0.000      0.000
REMARK  Name = 
REMARK  5 active torsions:
REMARK  status: ('A' for Active; 'I' for Inactive)
REMARK    1  A    between atoms: C_1  and  C_2
REMARK    2  A    between atoms: C_2  and  C_3
REMARK    3  A    between atoms: C_12  and  C_13
REMARK    4  A    between atoms: C_19  and  C_20
REMARK    5  A    between atoms: C_19  and  C_21
REMARK                            x       y       z     vdW  Elec       q    Type
REMARK                         _______ _______ _______ _____ _____    ______ ____
ROOT
ATOM      1  C   UNL     1       2.407   4.965  20.511  0.00  0.00    +0.000 A 
ATOM      2  N   UNL     1       1.907   6.182  20.867  0.00  0.00    +0.000 NA
ATOM      3  C   UNL     1       2.019   7.249  20.037  0.00  0.00    +0.000 A 
ATOM      4  N   UNL     1       1.453   8.434  20.456  0.00  0.00    +0.000 N 
ATOM      5  C   UNL     1       1.325   8.741  21.888  0.00  0.00    +0.000 C 
ATOM      6  C   UNL     1      -0.134   9.046  22.261  0.00  0.00    +0.000 C 
ATOM      7  O   UNL     1      -0.701  10.060  21.414  0.00  0.00    +0.000 OA
ATOM      8  C   UNL     1      -0.682   9.621  20.051  0.00  0.00    +0.000 C 
ATOM      9  C   UNL     1       0.749   9.365  19.559  0.00  0.00    +0.000 C 
ATOM     10  C   UNL     1       2.704   7.104  18.822  0.00  0.00    +0.000 A 
ATOM     11  C   UNL     1       3.220   5.848  18.447  0.00  0.00    +0.000 A 
ATOM     12  C   UNL     1       3.052   4.742  19.292  0.00  0.00    +0.000 A 
ATOM     13  C   UNL     1       3.621   3.398  18.912  0.00  0.00    +0.000 C 
ATOM     14  O   UNL     1       4.070   3.291  17.557  0.00  0.00    +0.000 OA
ATOM     15  C   UNL     1       4.813   4.419  17.082  0.00  0.00    +0.000 C 
ATOM     16  C   UNL     1       5.183   4.124  15.621  0.00  0.00    +0.000 C 
ATOM     17  C   UNL     1       6.110   4.635  17.878  0.00  0.00    +0.000 C 
ATOM     18  C   UNL     1       3.902   5.654  17.110  0.00  0.00    +0.000 C 
ENDROOT
BRANCH   1  20
ATOM     19  C   UNL     1       1.064   2.925  21.098  0.00  0.00    +0.000 C 
ATOM     20  C   UNL     1       2.191   3.857  21.518  0.00  0.00    +0.000 C 
ENDBRANCH   1  20
BRANCH  10  21
ATOM     21  C   UNL     1       2.953   8.225  17.967  0.00  0.00    +0.000 C 
ATOM     22  N   UNL     1       3.116   9.124  17.248  0.00  0.00    +0.000 NA
ENDBRANCH  10  21
TORSDOF 2
ENDMDL
MODEL 2
REMARK VINA RESULT:      -6.2      5.113      7.723
REMARK  Name = 
REMARK  5 active torsions:
REMARK  status: ('A' for Active; 'I' for Inactive)
REMARK    1  A    between atoms: C_1  and  C_2
REMARK    2  A    between atoms: C_2  and  C_3
REMARK    3  A    between atoms: C_12  and  C_13
REMARK    4  A    between atoms: C_19  and  C_20
REMARK    5  A    between atoms: C_19  and  C_21
REMARK                            x       y       z     vdW  Elec       q    Type
REMARK                         _______ _______ _______ _____ _____    ______ ____
ROOT
ATOM      1  C   UNL     1      -1.966  12.063  20.972  0.00  0.00    +0.000 A 
ATOM      2  N   UNL     1      -3.187  12.362  20.445  0.00  0.00    +0.000 NA
ATOM      3  C   UNL     1      -3.511  11.984  19.182  0.00  0.00    +0.000 A 
ATOM      4  N   UNL     1      -4.779  12.293  18.740  0.00  0.00    +0.000 N 
ATOM      5  C   UNL     1      -5.495  13.463  19.266  0.00  0.00    +0.000 C 
ATOM      6  C   UNL     1      -6.857  13.062  19.853  0.00  0.00    +0.000 C 
ATOM      7  O   UNL     1      -7.637  12.298  18.918  0.00  0.00    +0.000 OA
ATOM      8  C   UNL     1      -6.939  11.096  18.572  0.00  0.00    +0.000 C 
ATOM      9  C   UNL     1      -5.592  11.397  17.902  0.00  0.00    +0.000 C 
ATOM     10  C   UNL     1      -2.554  11.323  18.398  0.00  0.00    +0.000 A 
ATOM     11  C   UNL     1      -1.292  11.008  18.938  0.00  0.00    +0.000 A 
ATOM     12  C   UNL     1      -0.990  11.359  20.261  0.00  0.00    +0.000 A 
ATOM     13  C   UNL     1       0.367  11.048  20.842  0.00  0.00    +0.000 C 
ATOM     14  O   UNL     1       1.170  10.156  20.063  0.00  0.00    +0.000 OA
ATOM     15  C   UNL     1       1.160  10.416  18.655  0.00  0.00    +0.000 C 
ATOM     16  C   UNL     1       2.054   9.354  18.000  0.00  0.00    +0.000 C 
ATOM     17  C   UNL     1       1.730  11.804  18.319  0.00  0.00    +0.000 C 
ATOM     18  C   UNL     1      -0.271  10.234  18.132  0.00  0.00    +0.000 C 
ENDROOT
BRANCH   1  20
ATOM     19  C   UNL     1      -2.933  12.184  23.287  0.00  0.00    +0.000 C 
ATOM     20  C   UNL     1      -1.746  12.520  22.396  0.00  0.00    +0.000 C 
ENDBRANCH   1  20
BRANCH  10  21
ATOM     21  C   UNL     1      -2.804  11.010  17.024  0.00  0.00    +0.000 C 
ATOM     22  N   UNL     1      -2.991  10.798  15.895  0.00  0.00    +0.000 NA
ENDBRANCH  10  21
TORSDOF 2
ENDMDL
MODEL 3
REMARK VINA RESULT:      -5.9      1.942      4.192
REMARK  Name = 
REMARK  5 active torsions:
REMARK  status: ('A' for Active; 'I' for Inactive)
REMARK    1  A    between atoms: C_1  and  C_2
REMARK    2  A    between atoms: C_2  and  C_3
REMARK    3  A    between atoms: C_12  and  C_13
REMARK    4  A    between atoms: C_19  and  C_20
REMARK    5  A    between atoms: C_19  and  C_21
REMARK                            x       y       z     vdW  Elec       q    Type
REMARK                         _______ _______ _______ _____ _____    ______ ____
ROOT
ATOM      1  C   UNL     1       3.188   7.201  18.127  0.00  0.00    +0.000 A 
ATOM      2  N   UNL     1       2.609   8.430  18.239  0.00  0.00    +0.000 NA
ATOM      3  C   UNL     1       1.743   8.701  19.248  0.00  0.00    +0.000 A 
ATOM      4  N   UNL     1       1.231   9.979  19.311  0.00  0.00    +0.000 N 
ATOM      5  C   UNL     1       1.076  10.788  18.093  0.00  0.00    +0.000 C 
ATOM      6  C   UNL     1       1.816  12.129  18.220  0.00  0.00    +0.000 C 
ATOM      7  O   UNL     1       1.441  12.833  19.417  0.00  0.00    +0.000 OA
ATOM      8  C   UNL     1       1.766  12.044  20.567  0.00  0.00    +0.000 C 
ATOM      9  C   UNL     1       1.010  10.710  20.569  0.00  0.00    +0.000 C 
ATOM     10  C   UNL     1       1.405   7.685  20.153  0.00  0.00    +0.000 A 
ATOM     11  C   UNL     1       2.003   6.414  20.045  0.00  0.00    +0.000 A 
ATOM     12  C   UNL     1       2.934   6.163  19.028  0.00  0.00    +0.000 A 
ATOM     13  C   UNL     1       3.562   4.800  18.888  0.00  0.00    +0.000 C 
ATOM     14  O   UNL     1       3.354   3.919  19.997  0.00  0.00    +0.000 OA
ATOM     15  C   UNL     1       2.021   3.921  20.520  0.00  0.00    +0.000 C 
ATOM     16  C   UNL     1       2.006   2.940  21.701  0.00  0.00    +0.000 C 
ATOM     17  C   UNL     1       0.992   3.446  19.481  0.00  0.00    +0.000 C 
ATOM     18  C   UNL     1       1.704   5.325  21.052  0.00  0.00    +0.000 C 
ENDROOT
BRANCH   1  20
ATOM     19  C   UNL     1       5.600   7.096  17.435  0.00  0.00    +0.000 C 
ATOM     20  C   UNL     1       4.152   7.043  16.973  0.00  0.00    +0.000 C 
ENDBRANCH   1  20
BRANCH  10  21
ATOM     21  C   UNL     1       0.408   7.885  21.161  0.00  0.00    +0.000 C 
ATOM     22  N   UNL     1      -0.425   8.077  21.950  0.00  0.00    +0.000 NA
ENDBRANCH  10  21
TORSDOF 2
ENDMDL
MODEL 4
REMARK VINA RESULT:      -5.7      7.107     10.649
REMARK  Name = 
REMARK  5 active torsions:
REMARK  status: ('A' for Active; 'I' for Inactive)
REMARK    1  A    between atoms: C_1  and  C_2
REMARK    2  A    between atoms: C_2  and  C_3
REMARK    3  A    between atoms: C_12  and  C_13
REMARK    4  A    between atoms: C_19  and  C_20
REMARK    5  A    between atoms: C_19  and  C_21
REMARK                            x       y       z     vdW  Elec       q    Type
REMARK                         _______ _______ _______ _____ _____    ______ ____
ROOT
ATOM      1  C   UNL     1      -5.979  11.994  20.248  0.00  0.00    +0.000 A 
ATOM      2  N   UNL     1      -5.296  11.727  19.099  0.00  0.00    +0.000 NA
ATOM      3  C   UNL     1      -3.973  12.010  18.996  0.00  0.00    +0.000 A 
ATOM      4  N   UNL     1      -3.349  11.675  17.814  0.00  0.00    +0.000 N 
ATOM      5  C   UNL     1      -4.101  11.635  16.552  0.00  0.00    +0.000 C 
ATOM      6  C   UNL     1      -3.972  10.262  15.872  0.00  0.00    +0.000 C 
ATOM      7  O   UNL     1      -2.597   9.868  15.723  0.00  0.00    +0.000 OA
ATOM      8  C   UNL     1      -1.975   9.779  17.010  0.00  0.00    +0.000 C 
ATOM      9  C   UNL     1      -1.984  11.130  17.737  0.00  0.00    +0.000 C 
ATOM     10  C   UNL     1      -3.319  12.632  20.069  0.00  0.00    +0.000 A 
ATOM     11  C   UNL     1      -4.019  12.907  21.261  0.00  0.00    +0.000 A 
ATOM     12  C   UNL     1      -5.373  12.562  21.372  0.00  0.00    +0.000 A 
ATOM     13  C   UNL     1      -6.139  12.873  22.633  0.00  0.00    +0.000 C 
ATOM     14  O   UNL     1      -5.333  13.266  23.750  0.00  0.00    +0.000 OA
ATOM     15  C   UNL     1      -4.284  14.188  23.435  0.00  0.00    +0.000 C 
ATOM     16  C   UNL     1      -3.532  14.467  24.744  0.00  0.00    +0.000 C 
ATOM     17  C   UNL     1      -4.828  15.520  22.893  0.00  0.00    +0.000 C 
ATOM     18  C   UNL     1      -3.315  13.513  22.455  0.00  0.00    +0.000 C 
ENDROOT
BRANCH   1  20
ATOM     19  C   UNL     1      -7.636  10.132  20.566  0.00  0.00    +0.000 C 
ATOM     20  C   UNL     1      -7.440  11.604  20.237  0.00  0.00    +0.000 C 
ENDBRANCH   1  20
BRANCH  10  21
ATOM     21  C   UNL     1      -1.956  13.059  19.966  0.00  0.00    +0.000 C 
ATOM     22  N   UNL     1      -0.846  13.381  19.842  0.00  0.00    +0.000 NA
ENDBRANCH  10  21
TORSDOF 2
ENDMDL
MODEL 5
REMARK VINA RESULT:      -5.7      7.642      9.235
REMARK  Name = 
REMARK  5 active torsions:
REMARK  status: ('A' for Active; 'I' for Inactive)
REMARK    1  A    between atoms: C_1  and  C_2
REMARK    2  A    between atoms: C_2  and  C_3
REMARK    3  A    between atoms: C_12  and  C_13
REMARK    4  A    between atoms: C_19  and  C_20
REMARK    5  A    between atoms: C_19  and  C_21
REMARK                            x       y       z     vdW  Elec       q    Type
REMARK                         _______ _______ _______ _____ _____    ______ ____
ROOT
ATOM      1  C   UNL     1      -5.288  12.636  20.452  0.00  0.00    +0.000 A 
ATOM      2  N   UNL     1      -4.615  12.920  21.603  0.00  0.00    +0.000 NA
ATOM      3  C   UNL     1      -3.261  12.837  21.655  0.00  0.00    +0.000 A 
ATOM      4  N   UNL     1      -2.656  13.179  22.844  0.00  0.00    +0.000 N 
ATOM      5  C   UNL     1      -3.362  13.010  24.123  0.00  0.00    +0.000 C 
ATOM      6  C   UNL     1      -3.421  14.333  24.902  0.00  0.00    +0.000 C 
ATOM      7  O   UNL     1      -2.117  14.923  25.051  0.00  0.00    +0.000 OA
ATOM      8  C   UNL     1      -1.560  15.200  23.761  0.00  0.00    +0.000 C 
ATOM      9  C   UNL     1      -1.388  13.920  22.932  0.00  0.00    +0.000 C 
ATOM     10  C   UNL     1      -2.558  12.403  20.522  0.00  0.00    +0.000 A 
ATOM     11  C   UNL     1      -3.248  12.111  19.329  0.00  0.00    +0.000 A 
ATOM     12  C   UNL     1      -4.641  12.250  19.275  0.00  0.00    +0.000 A 
ATOM     13  C   UNL     1      -5.393  11.918  18.011  0.00  0.00    +0.000 C 
ATOM     14  O   UNL     1      -4.576  11.735  16.850  0.00  0.00    +0.000 OA
ATOM     15  C   UNL     1      -3.389  10.966  17.069  0.00  0.00    +0.000 C 
ATOM     16  C   UNL     1      -2.647  10.901  15.726  0.00  0.00    +0.000 C 
ATOM     17  C   UNL     1      -3.704   9.530  17.519  0.00  0.00    +0.000 C 
ATOM     18  C   UNL     1      -2.500  11.709  18.076  0.00  0.00    +0.000 C 
ENDROOT
BRANCH   1  20
ATOM     19  C   UNL     1      -7.461  11.555  21.104  0.00  0.00    +0.000 C 
ATOM     20  C   UNL     1      -6.790  12.793  20.526  0.00  0.00    +0.000 C 
ENDBRANCH   1  20
BRANCH  10  21
ATOM     21  C   UNL     1      -1.143  12.185  20.561  0.00  0.00    +0.000 C 
ATOM     22  N   UNL     1      -0.001  11.975  20.627  0.00  0.00    +0.000 NA
ENDBRANCH  10  21
TORSDOF 2
ENDMDL
MODEL 6
REMARK VINA RESULT:      -5.7      2.805      8.094
REMARK  Name = 
REMARK  5 active torsions:
REMARK  status: ('A' for Active; 'I' for Inactive)
REMARK    1  A    between atoms: C_1  and  C_2
REMARK    2  A    between atoms: C_2  and  C_3
REMARK    3  A    between atoms: C_12  and  C_13
REMARK    4  A    between atoms: C_19  and  C_20
REMARK    5  A    between atoms: C_19  and  C_21
REMARK                            x       y       z     vdW  Elec       q    Type
REMARK                         _______ _______ _______ _____ _____    ______ ____
ROOT
ATOM      1  C   UNL     1      -1.137  10.904  18.616  0.00  0.00    +0.000 A 
ATOM      2  N   UNL     1      -0.072  10.056  18.544  0.00  0.00    +0.000 NA
ATOM      3  C   UNL     1       0.564   9.644  19.670  0.00  0.00    +0.000 A 
ATOM      4  N   UNL     1       1.608   8.757  19.512  0.00  0.00    +0.000 N 
ATOM      5  C   UNL     1       2.407   8.749  18.279  0.00  0.00    +0.000 C 
ATOM      6  C   UNL     1       2.413   7.354  17.632  0.00  0.00    +0.000 C 
ATOM      7  O   UNL     1       2.806   6.335  18.567  0.00  0.00    +0.000 OA
ATOM      8  C   UNL     1       1.888   6.303  19.665  0.00  0.00    +0.000 C 
ATOM      9  C   UNL     1       1.870   7.635  20.427  0.00  0.00    +0.000 C 
ATOM     10  C   UNL     1       0.148  10.140  20.914  0.00  0.00    +0.000 A 
ATOM     11  C   UNL     1      -0.954  11.013  20.994  0.00  0.00    +0.000 A 
ATOM     12  C   UNL     1      -1.634  11.390  19.828  0.00  0.00    +0.000 A 
ATOM     13  C   UNL     1      -2.801  12.344  19.900  0.00  0.00    +0.000 C 
ATOM     14  O   UNL     1      -3.305  12.587  21.217  0.00  0.00    +0.000 OA
ATOM     15  C   UNL     1      -2.298  12.786  22.215  0.00  0.00    +0.000 C 
ATOM     16  C   UNL     1      -3.031  13.009  23.546  0.00  0.00    +0.000 C 
ATOM     17  C   UNL     1      -1.431  14.022  21.925  0.00  0.00    +0.000 C 
ATOM     18  C   UNL     1      -1.462  11.504  22.332  0.00  0.00    +0.000 C 
ENDROOT
BRANCH   1  20
ATOM     19  C   UNL     1      -2.420  10.057  16.629  0.00  0.00    +0.000 C 
ATOM     20  C   UNL     1      -1.769  11.263  17.289  0.00  0.00    +0.000 C 
ENDBRANCH   1  20
BRANCH  10  21
ATOM     21  C   UNL     1       0.860   9.829  22.116  0.00  0.00    +0.000 C 
ATOM     22  N   UNL     1       1.401   9.552  23.108  0.00  0.00    +0.000 NA
ENDBRANCH  10  21
TORSDOF 2
ENDMDL
MODEL 7
REMARK VINA RESULT:      -5.6      5.829     10.089
REMARK  Name = 
REMARK  5 active torsions:
REMARK  status: ('A' for Active; 'I' for Inactive)
REMARK    1  A    between atoms: C_1  and  C_2
REMARK    2  A    between atoms: C_2  and  C_3
REMARK    3  A    between atoms: C_12  and  C_13
REMARK    4  A    between atoms: C_19  and  C_20
REMARK    5  A    between atoms: C_19  and  C_21
REMARK                            x       y       z     vdW  Elec       q    Type
REMARK                         _______ _______ _______ _____ _____    ______ ____
ROOT
ATOM      1  C   UNL     1      -3.216  11.774  18.835  0.00  0.00    +0.000 A 
ATOM      2  N   UNL     1      -2.114  11.550  19.606  0.00  0.00    +0.000 NA
ATOM      3  C   UNL     1      -2.110  11.877  20.923  0.00  0.00    +0.000 A 
ATOM      4  N   UNL     1      -0.970  11.583  21.639  0.00  0.00    +0.000 N 
ATOM      5  C   UNL     1       0.343  11.543  20.980  0.00  0.00    +0.000 C 
ATOM      6  C   UNL     1       1.034  10.187  21.200  0.00  0.00    +0.000 C 
ATOM      7  O   UNL     1       1.091   9.839  22.595  0.00  0.00    +0.000 OA
ATOM      8  C   UNL     1      -0.234   9.746  23.127  0.00  0.00    +0.000 C 
ATOM      9  C   UNL     1      -0.981  11.082  23.023  0.00  0.00    +0.000 C 
ATOM     10  C   UNL     1      -3.237  12.499  21.479  0.00  0.00    +0.000 A 
ATOM     11  C   UNL     1      -4.380  12.730  20.688  0.00  0.00    +0.000 A 
ATOM     12  C   UNL     1      -4.389  12.341  19.342  0.00  0.00    +0.000 A 
ATOM     13  C   UNL     1      -5.598  12.604  18.480  0.00  0.00    +0.000 C 
ATOM     14  O   UNL     1      -6.774  13.002  19.192  0.00  0.00    +0.000 OA
ATOM     15  C   UNL     1      -6.550  13.962  20.230  0.00  0.00    +0.000 C 
ATOM     16  C   UNL     1      -7.914  14.241  20.878  0.00  0.00    +0.000 C 
ATOM     17  C   UNL     1      -5.993  15.286  19.683  0.00  0.00    +0.000 C 
ATOM     18  C   UNL     1      -5.631  13.336  21.287  0.00  0.00    +0.000 C 
ENDROOT
BRANCH   1  20
ATOM     19  C   UNL     1      -3.067   9.825  17.258  0.00  0.00    +0.000 C 
ATOM     20  C   UNL     1      -3.095  11.340  17.392  0.00  0.00    +0.000 C 
ENDBRANCH   1  20
BRANCH  10  21
ATOM     21  C   UNL     1      -3.237  12.970  22.831  0.00  0.00    +0.000 C 
ATOM     22  N   UNL     1      -3.278  13.377  23.920  0.00  0.00    +0.000 NA
ENDBRANCH  10  21
TORSDOF 2
ENDMDL
MODEL 8
REMARK VINA RESULT:      -5.6      6.151      8.787
REMARK  Name = 
REMARK  5 active torsions:
REMARK  status: ('A' for Active; 'I' for Inactive)
REMARK    1  A    between atoms: C_1  and  C_2
REMARK    2  A    between atoms: C_2  and  C_3
REMARK    3  A    between atoms: C_12  and  C_13
REMARK    4  A    between atoms: C_19  and  C_20
REMARK    5  A    between atoms: C_19  and  C_21
REMARK                            x       y       z     vdW  Elec       q    Type
REMARK                         _______ _______ _______ _____ _____    ______ ____
ROOT
ATOM      1  C   UNL     1      -3.169  10.813  17.770  0.00  0.00    +0.000 A 
ATOM      2  N   UNL     1      -4.344  11.429  18.086  0.00  0.00    +0.000 NA
ATOM      3  C   UNL     1      -4.424  12.271  19.147  0.00  0.00    +0.000 A 
ATOM      4  N   UNL     1      -5.638  12.881  19.374  0.00  0.00    +0.000 N 
ATOM      5  C   UNL     1      -6.893  12.232  18.971  0.00  0.00    +0.000 C 
ATOM      6  C   UNL     1      -7.716  13.142  18.045  0.00  0.00    +0.000 C 
ATOM      7  O   UNL     1      -7.914  14.446  18.619  0.00  0.00    +0.000 OA
ATOM      8  C   UNL     1      -6.648  15.077  18.840  0.00  0.00    +0.000 C 
ATOM      9  C   UNL     1      -5.780  14.277  19.820  0.00  0.00    +0.000 C 
ATOM     10  C   UNL     1      -3.294  12.467  19.954  0.00  0.00    +0.000 A 
ATOM     11  C   UNL     1      -2.076  11.836  19.630  0.00  0.00    +0.000 A 
ATOM     12  C   UNL     1      -1.995  11.009  18.502  0.00  0.00    +0.000 A 
ATOM     13  C   UNL     1      -0.703  10.310  18.159  0.00  0.00    +0.000 C 
ATOM     14  O   UNL     1       0.444  10.769  18.882  0.00  0.00    +0.000 OA
ATOM     15  C   UNL     1       0.224  10.984  20.280  0.00  0.00    +0.000 C 
ATOM     16  C   UNL     1       1.552  11.487  20.866  0.00  0.00    +0.000 C 
ATOM     17  C   UNL     1      -0.169   9.690  21.010  0.00  0.00    +0.000 C 
ATOM     18  C   UNL     1      -0.827  12.089  20.447  0.00  0.00    +0.000 C 
ENDROOT
BRANCH   1  20
ATOM     19  C   UNL     1      -3.060  10.717  15.262  0.00  0.00    +0.000 C 
ATOM     20  C   UNL     1      -3.214   9.922  16.550  0.00  0.00    +0.000 C 
ENDBRANCH   1  20
BRANCH  10  21
ATOM     21  C   UNL     1      -3.358  13.250  21.150  0.00  0.00    +0.000 C 
ATOM     22  N   UNL     1      -3.377  13.859  22.141  0.00  0.00    +0.000 NA
ENDBRANCH  10  21
TORSDOF 2
ENDMDL
MODEL 9
REMARK VINA RESULT:      -5.5      7.029      9.928
REMARK  Name = 
REMARK  5 active torsions:
REMARK  status: ('A' for Active; 'I' for Inactive)
REMARK    1  A    between atoms: C_1  and  C_2
REMARK    2  A    between atoms: C_2  and  C_3
REMARK    3  A    between atoms: C_12  and  C_13
REMARK    4  A    between atoms: C_19  and  C_20
REMARK    5  A    between atoms: C_19  and  C_21
REMARK                            x       y       z     vdW  Elec       q    Type
REMARK                         _______ _______ _______ _____ _____    ______ ____
ROOT
ATOM      1  C   UNL     1      -3.456  11.607  17.763  0.00  0.00    +0.000 A 
ATOM      2  N   UNL     1      -2.227  12.093  18.096  0.00  0.00    +0.000 NA
ATOM      3  C   UNL     1      -2.007  12.648  19.315  0.00  0.00    +0.000 A 
ATOM      4  N   UNL     1      -0.727  13.081  19.585  0.00  0.00    +0.000 N 
ATOM      5  C   UNL     1       0.160  13.529  18.502  0.00  0.00    +0.000 C 
ATOM      6  C   UNL     1       1.478  12.737  18.502  0.00  0.00    +0.000 C 
ATOM      7  O   UNL     1       2.111  12.754  19.793  0.00  0.00    +0.000 OA
ATOM      8  C   UNL     1       1.244  12.160  20.767  0.00  0.00    +0.000 C 
ATOM      9  C   UNL     1      -0.075  12.933  20.896  0.00  0.00    +0.000 C 
ATOM     10  C   UNL     1      -3.073  12.766  20.218  0.00  0.00    +0.000 A 
ATOM     11  C   UNL     1      -4.345  12.262  19.880  0.00  0.00    +0.000 A 
ATOM     12  C   UNL     1      -4.545  11.645  18.638  0.00  0.00    +0.000 A 
ATOM     13  C   UNL     1      -5.908  11.123  18.257  0.00  0.00    +0.000 C 
ATOM     14  O   UNL     1      -6.854  11.057  19.329  0.00  0.00    +0.000 OA
ATOM     15  C   UNL     1      -6.863  12.201  20.190  0.00  0.00    +0.000 C 
ATOM     16  C   UNL     1      -7.916  11.933  21.274  0.00  0.00    +0.000 C 
ATOM     17  C   UNL     1      -7.252  13.486  19.441  0.00  0.00    +0.000 C 
ATOM     18  C   UNL     1      -5.491  12.316  20.868  0.00  0.00    +0.000 C 
ENDROOT
BRANCH   1  20
ATOM     19  C   UNL     1      -2.632   9.794  16.231  0.00  0.00    +0.000 C 
ATOM     20  C   UNL     1      -3.557  10.992  16.385  0.00  0.00    +0.000 C 
ENDBRANCH   1  20
BRANCH  10  21
ATOM     21  C   UNL     1      -2.921  13.450  21.466  0.00  0.00    +0.000 C 
ATOM     22  N   UNL     1      -2.842  14.022  22.476  0.00  0.00    +0.000 NA
ENDBRANCH  10  21
TORSDOF 2
ENDMDL
