MODEL 1
REMARK VINA RESULT:      -7.2      0.000      0.000
REMARK  Name = 
REMARK  1 active torsions:
REMARK  status: ('A' for Active; 'I' for Inactive)
REMARK    1  A    between atoms: C_4  and  C_5
REMARK                            x       y       z     vdW  Elec       q    Type
REMARK                         _______ _______ _______ _____ _____    ______ ____
ROOT
ATOM      1  O   UNL     1       4.257   7.052  17.596  0.00  0.00    +0.000 OA
ATOM      2  C   UNL     1       4.450   5.935  17.129  0.00  0.00    +0.000 A 
ATOM      3  O   UNL     1       5.213   5.771  16.004  0.00  0.00    +0.000 OA
ATOM      4  C   UNL     1       5.393   4.516  15.502  0.00  0.00    +0.000 A 
ATOM      5  N   UNL     1       4.916   3.409  15.980  0.00  0.00    +0.000 NA
ATOM      6  C   UNL     1       4.194   3.550  17.104  0.00  0.00    +0.000 A 
ATOM      7  S   UNL     1       3.546   2.208  17.927  0.00  0.00    +0.000 S 
ATOM      8  C   UNL     1       2.878   3.205  19.132  0.00  0.00    +0.000 A 
ATOM      9  C   UNL     1       3.113   4.551  18.904  0.00  0.00    +0.000 A 
ATOM     10  C   UNL     1       3.911   4.735  17.729  0.00  0.00    +0.000 A 
ATOM     11  C   UNL     1       2.594   5.609  19.835  0.00  0.00    +0.000 C 
ATOM     12  C   UNL     1       1.480   5.059  20.742  0.00  0.00    +0.000 C 
ATOM     13  C   UNL     1       1.878   3.710  21.357  0.00  0.00    +0.000 C 
ATOM     14  C   UNL     1       2.088   2.643  20.273  0.00  0.00    +0.000 C 
ENDROOT
BRANCH   4  15
ATOM     15  C   UNL     1       6.221   4.543  14.310  0.00  0.00    +0.000 A 
ATOM     16  C   UNL     1       7.371   5.270  14.050  0.00  0.00    +0.000 A 
ATOM     17  C   UNL     1       7.893   5.022  12.745  0.00  0.00    +0.000 A 
ATOM     18  C   UNL     1       7.128   4.119  12.046  0.00  0.00    +0.000 A 
ATOM     19  S   UNL     1       5.807   3.554  12.965  0.00  0.00    +0.000 S 
ENDBRANCH   4  15
TORSDOF 1
ENDMDL
MODEL 2
REMARK VINA RESULT:      -7.1      4.157      7.511
REMARK  Name = 
REMARK  1 active torsions:
REMARK  status: ('A' for Active; 'I' for Inactive)
REMARK    1  A    between atoms: C_4  and  C_5
REMARK                            x       y       z     vdW  Elec       q    Type
REMARK                         _______ _______ _______ _____ _____    ______ ____
ROOT
ATOM      1  O   UNL     1       2.833   8.087  17.650  0.00  0.00    +0.000 OA
ATOM      2  C   UNL     1       2.362   7.736  18.726  0.00  0.00    +0.000 A 
ATOM      3  O   UNL     1       1.680   8.625  19.513  0.00  0.00    +0.000 OA
ATOM      4  C   UNL     1       1.184   8.205  20.712  0.00  0.00    +0.000 A 
ATOM      5  N   UNL     1       1.276   7.014  21.220  0.00  0.00    +0.000 NA
ATOM      6  C   UNL     1       1.912   6.122  20.443  0.00  0.00    +0.000 A 
ATOM      7  S   UNL     1       2.068   4.489  20.899  0.00  0.00    +0.000 S 
ATOM      8  C   UNL     1       2.896   4.115  19.461  0.00  0.00    +0.000 A 
ATOM      9  C   UNL     1       3.085   5.221  18.648  0.00  0.00    +0.000 A 
ATOM     10  C   UNL     1       2.475   6.383  19.222  0.00  0.00    +0.000 A 
ATOM     11  C   UNL     1       3.810   5.119  17.337  0.00  0.00    +0.000 C 
ATOM     12  C   UNL     1       4.636   3.824  17.253  0.00  0.00    +0.000 C 
ATOM     13  C   UNL     1       3.812   2.608  17.701  0.00  0.00    +0.000 C 
ATOM     14  C   UNL     1       3.390   2.731  19.173  0.00  0.00    +0.000 C 
ENDROOT
BRANCH   4  15
ATOM     15  C   UNL     1       0.502   9.283  21.403  0.00  0.00    +0.000 A 
ATOM     16  C   UNL     1      -0.170   9.270  22.615  0.00  0.00    +0.000 A 
ATOM     17  C   UNL     1      -0.718  10.545  22.952  0.00  0.00    +0.000 A 
ATOM     18  C   UNL     1      -0.453  11.491  21.991  0.00  0.00    +0.000 A 
ATOM     19  S   UNL     1       0.472  10.856  20.705  0.00  0.00    +0.000 S 
ENDBRANCH   4  15
TORSDOF 1
ENDMDL
MODEL 3
REMARK VINA RESULT:      -6.8      4.344      7.593
REMARK  Name = 
REMARK  1 active torsions:
REMARK  status: ('A' for Active; 'I' for Inactive)
REMARK    1  A    between atoms: C_4  and  C_5
REMARK                            x       y       z     vdW  Elec       q    Type
REMARK                         _______ _______ _______ _____ _____    ______ ____
ROOT
ATOM      1  O   UNL     1       2.714   8.455  17.348  0.00  0.00    +0.000 OA
ATOM      2  C   UNL     1       2.295   8.125  18.452  0.00  0.00    +0.000 A 
ATOM      3  O   UNL     1       1.582   9.006  19.220  0.00  0.00    +0.000 OA
ATOM      4  C   UNL     1       1.146   8.612  20.450  0.00  0.00    +0.000 A 
ATOM      5  N   UNL     1       1.323   7.453  21.006  0.00  0.00    +0.000 NA
ATOM      6  C   UNL     1       1.991   6.566  20.249  0.00  0.00    +0.000 A 
ATOM      7  S   UNL     1       2.258   4.967  20.770  0.00  0.00    +0.000 S 
ATOM      8  C   UNL     1       3.068   4.579  19.325  0.00  0.00    +0.000 A 
ATOM      9  C   UNL     1       3.166   5.656  18.460  0.00  0.00    +0.000 A 
ATOM     10  C   UNL     1       2.504   6.804  19.002  0.00  0.00    +0.000 A 
ATOM     11  C   UNL     1       3.861   5.539  17.134  0.00  0.00    +0.000 C 
ATOM     12  C   UNL     1       4.761   4.293  17.081  0.00  0.00    +0.000 C 
ATOM     13  C   UNL     1       4.024   3.052  17.605  0.00  0.00    +0.000 C 
ATOM     14  C   UNL     1       3.636   3.215  19.082  0.00  0.00    +0.000 C 
ENDROOT
BRANCH   4  15
ATOM     15  C   UNL     1       0.419   9.677  21.114  0.00  0.00    +0.000 A 
ATOM     16  C   UNL     1       0.111  10.951  20.664  0.00  0.00    +0.000 A 
ATOM     17  C   UNL     1      -0.620  11.712  21.626  0.00  0.00    +0.000 A 
ATOM     18  C   UNL     1      -0.846  11.002  22.782  0.00  0.00    +0.000 A 
ATOM     19  S   UNL     1      -0.206   9.422  22.697  0.00  0.00    +0.000 S 
ENDBRANCH   4  15
TORSDOF 1
ENDMDL
MODEL 4
REMARK VINA RESULT:      -6.8      3.679      4.899
REMARK  Name = 
REMARK  1 active torsions:
REMARK  status: ('A' for Active; 'I' for Inactive)
REMARK    1  A    between atoms: C_4  and  C_5
REMARK                            x       y       z     vdW  Elec       q    Type
REMARK                         _______ _______ _______ _____ _____    ______ ____
ROOT
ATOM      1  O   UNL     1       2.239   5.668  20.725  0.00  0.00    +0.000 OA
ATOM      2  C   UNL     1       2.564   6.280  19.714  0.00  0.00    +0.000 A 
ATOM      3  O   UNL     1       3.366   5.694  18.771  0.00  0.00    +0.000 OA
ATOM      4  C   UNL     1       3.722   6.410  17.666  0.00  0.00    +0.000 A 
ATOM      5  N   UNL     1       3.376   7.628  17.380  0.00  0.00    +0.000 NA
ATOM      6  C   UNL     1       2.560   8.203  18.280  0.00  0.00    +0.000 A 
ATOM      7  S   UNL     1       1.934   9.769  18.048  0.00  0.00    +0.000 S 
ATOM      8  C   UNL     1       1.065   9.692  19.508  0.00  0.00    +0.000 A 
ATOM      9  C   UNL     1       1.266   8.503  20.189  0.00  0.00    +0.000 A 
ATOM     10  C   UNL     1       2.119   7.629  19.442  0.00  0.00    +0.000 A 
ATOM     11  C   UNL     1       0.607   8.233  21.511  0.00  0.00    +0.000 C 
ATOM     12  C   UNL     1       0.094   9.532  22.156  0.00  0.00    +0.000 C 
ATOM     13  C   UNL     1      -0.681  10.387  21.143  0.00  0.00    +0.000 C 
ATOM     14  C   UNL     1       0.223  10.835  19.985  0.00  0.00    +0.000 C 
ENDROOT
BRANCH   4  15
ATOM     15  C   UNL     1       4.574   5.630  16.789  0.00  0.00    +0.000 A 
ATOM     16  C   UNL     1       5.312   6.032  15.688  0.00  0.00    +0.000 A 
ATOM     17  C   UNL     1       6.022   4.952  15.079  0.00  0.00    +0.000 A 
ATOM     18  C   UNL     1       5.805   3.761  15.729  0.00  0.00    +0.000 A 
ATOM     19  S   UNL     1       4.775   3.945  17.077  0.00  0.00    +0.000 S 
ENDBRANCH   4  15
TORSDOF 1
ENDMDL
MODEL 5
REMARK VINA RESULT:      -6.8      4.328      7.820
REMARK  Name = 
REMARK  1 active torsions:
REMARK  status: ('A' for Active; 'I' for Inactive)
REMARK    1  A    between atoms: C_4  and  C_5
REMARK                            x       y       z     vdW  Elec       q    Type
REMARK                         _______ _______ _______ _____ _____    ______ ____
ROOT
ATOM      1  O   UNL     1       1.780   4.770  21.069  0.00  0.00    +0.000 OA
ATOM      2  C   UNL     1       1.825   5.894  20.580  0.00  0.00    +0.000 A 
ATOM      3  O   UNL     1       1.190   6.945  21.185  0.00  0.00    +0.000 OA
ATOM      4  C   UNL     1       1.246   8.177  20.603  0.00  0.00    +0.000 A 
ATOM      5  N   UNL     1       1.859   8.494  19.504  0.00  0.00    +0.000 NA
ATOM      6  C   UNL     1       2.517   7.480  18.918  0.00  0.00    +0.000 A 
ATOM      7  S   UNL     1       3.444   7.709  17.509  0.00  0.00    +0.000 S 
ATOM      8  C   UNL     1       3.901   6.072  17.482  0.00  0.00    +0.000 A 
ATOM      9  C   UNL     1       3.335   5.340  18.513  0.00  0.00    +0.000 A 
ATOM     10  C   UNL     1       2.551   6.185  19.364  0.00  0.00    +0.000 A 
ATOM     11  C   UNL     1       3.591   3.869  18.667  0.00  0.00    +0.000 C 
ATOM     12  C   UNL     1       4.150   3.259  17.370  0.00  0.00    +0.000 C 
ATOM     13  C   UNL     1       5.286   4.117  16.796  0.00  0.00    +0.000 C 
ATOM     14  C   UNL     1       4.787   5.518  16.409  0.00  0.00    +0.000 C 
ENDROOT
BRANCH   4  15
ATOM     15  C   UNL     1       0.513   9.157  21.382  0.00  0.00    +0.000 A 
ATOM     16  C   UNL     1      -0.030   9.050  22.652  0.00  0.00    +0.000 A 
ATOM     17  C   UNL     1      -0.689  10.245  23.071  0.00  0.00    +0.000 A 
ATOM     18  C   UNL     1      -0.634  11.228  22.111  0.00  0.00    +0.000 A 
ATOM     19  S   UNL     1       0.228  10.723  20.727  0.00  0.00    +0.000 S 
ENDBRANCH   4  15
TORSDOF 1
ENDMDL
MODEL 6
REMARK VINA RESULT:      -6.4      1.781      2.399
REMARK  Name = 
REMARK  1 active torsions:
REMARK  status: ('A' for Active; 'I' for Inactive)
REMARK    1  A    between atoms: C_4  and  C_5
REMARK                            x       y       z     vdW  Elec       q    Type
REMARK                         _______ _______ _______ _____ _____    ______ ____
ROOT
ATOM      1  O   UNL     1       4.098   2.413  17.599  0.00  0.00    +0.000 OA
ATOM      2  C   UNL     1       4.386   3.499  17.110  0.00  0.00    +0.000 A 
ATOM      3  O   UNL     1       5.132   3.573  15.964  0.00  0.00    +0.000 OA
ATOM      4  C   UNL     1       5.449   4.799  15.457  0.00  0.00    +0.000 A 
ATOM      5  N   UNL     1       5.112   5.955  15.941  0.00  0.00    +0.000 NA
ATOM      6  C   UNL     1       4.350   5.897  17.046  0.00  0.00    +0.000 A 
ATOM      7  S   UNL     1       3.742   7.303  17.789  0.00  0.00    +0.000 S 
ATOM      8  C   UNL     1       2.941   6.390  18.979  0.00  0.00    +0.000 A 
ATOM      9  C   UNL     1       3.151   5.028  18.841  0.00  0.00    +0.000 A 
ATOM     10  C   UNL     1       3.953   4.753  17.686  0.00  0.00    +0.000 A 
ATOM     11  C   UNL     1       2.551   4.038  19.797  0.00  0.00    +0.000 C 
ATOM     12  C   UNL     1       2.091   4.722  21.095  0.00  0.00    +0.000 C 
ATOM     13  C   UNL     1       1.286   5.995  20.799  0.00  0.00    +0.000 C 
ATOM     14  C   UNL     1       2.142   7.039  20.067  0.00  0.00    +0.000 C 
ENDROOT
BRANCH   4  15
ATOM     15  C   UNL     1       6.245   4.676  14.250  0.00  0.00    +0.000 A 
ATOM     16  C   UNL     1       7.408   5.335  13.889  0.00  0.00    +0.000 A 
ATOM     17  C   UNL     1       7.888   4.938  12.604  0.00  0.00    +0.000 A 
ATOM     18  C   UNL     1       7.078   3.993  12.021  0.00  0.00    +0.000 A 
ATOM     19  S   UNL     1       5.766   3.567  13.025  0.00  0.00    +0.000 S 
ENDBRANCH   4  15
TORSDOF 1
ENDMDL
MODEL 7
REMARK VINA RESULT:      -6.4      4.131      5.417
REMARK  Name = 
REMARK  1 active torsions:
REMARK  status: ('A' for Active; 'I' for Inactive)
REMARK    1  A    between atoms: C_4  and  C_5
REMARK                            x       y       z     vdW  Elec       q    Type
REMARK                         _______ _______ _______ _____ _____    ______ ____
ROOT
ATOM      1  O   UNL     1       1.885  10.285  17.338  0.00  0.00    +0.000 OA
ATOM      2  C   UNL     1       2.124   9.233  17.920  0.00  0.00    +0.000 A 
ATOM      3  O   UNL     1       2.933   8.287  17.349  0.00  0.00    +0.000 OA
ATOM      4  C   UNL     1       3.162   7.120  18.017  0.00  0.00    +0.000 A 
ATOM      5  N   UNL     1       2.696   6.782  19.180  0.00  0.00    +0.000 NA
ATOM      6  C   UNL     1       1.929   7.715  19.768  0.00  0.00    +0.000 A 
ATOM      7  S   UNL     1       1.285   7.492  21.328  0.00  0.00    +0.000 S 
ATOM      8  C   UNL     1       0.547   9.024  21.297  0.00  0.00    +0.000 A 
ATOM      9  C   UNL     1       0.756   9.696  20.104  0.00  0.00    +0.000 A 
ATOM     10  C   UNL     1       1.593   8.929  19.230  0.00  0.00    +0.000 A 
ATOM     11  C   UNL     1       0.177  11.059  19.857  0.00  0.00    +0.000 C 
ATOM     12  C   UNL     1      -0.956  11.374  20.848  0.00  0.00    +0.000 C 
ATOM     13  C   UNL     1      -0.548  11.031  22.288  0.00  0.00    +0.000 C 
ATOM     14  C   UNL     1      -0.271   9.528  22.446  0.00  0.00    +0.000 C 
ENDROOT
BRANCH   4  15
ATOM     15  C   UNL     1       4.033   6.244  17.256  0.00  0.00    +0.000 A 
ATOM     16  C   UNL     1       5.013   6.560  16.330  0.00  0.00    +0.000 A 
ATOM     17  C   UNL     1       5.652   5.403  15.789  0.00  0.00    +0.000 A 
ATOM     18  C   UNL     1       5.141   4.240  16.314  0.00  0.00    +0.000 A 
ATOM     19  S   UNL     1       3.921   4.540  17.468  0.00  0.00    +0.000 S 
ENDBRANCH   4  15
TORSDOF 1
ENDMDL
MODEL 8
REMARK VINA RESULT:      -6.3      5.078      7.175
REMARK  Name = 
REMARK  1 active torsions:
REMARK  status: ('A' for Active; 'I' for Inactive)
REMARK    1  A    between atoms: C_4  and  C_5
REMARK                            x       y       z     vdW  Elec       q    Type
REMARK                         _______ _______ _______ _____ _____    ______ ____
ROOT
ATOM      1  O   UNL     1       1.966   9.453  17.449  0.00  0.00    +0.000 OA
ATOM      2  C   UNL     1       1.852   8.821  18.494  0.00  0.00    +0.000 A 
ATOM      3  O   UNL     1       2.404   7.574  18.619  0.00  0.00    +0.000 OA
ATOM      4  C   UNL     1       2.243   6.892  19.789  0.00  0.00    +0.000 A 
ATOM      5  N   UNL     1       1.611   7.297  20.847  0.00  0.00    +0.000 NA
ATOM      6  C   UNL     1       1.094   8.533  20.752  0.00  0.00    +0.000 A 
ATOM      7  S   UNL     1       0.294   9.273  22.059  0.00  0.00    +0.000 S 
ATOM      8  C   UNL     1       0.022  10.689  21.157  0.00  0.00    +0.000 A 
ATOM      9  C   UNL     1       0.504  10.600  19.862  0.00  0.00    +0.000 A 
ATOM     10  C   UNL     1       1.157   9.343  19.648  0.00  0.00    +0.000 A 
ATOM     11  C   UNL     1       0.353  11.732  18.886  0.00  0.00    +0.000 C 
ATOM     12  C   UNL     1      -0.719  12.732  19.351  0.00  0.00    +0.000 C 
ATOM     13  C   UNL     1      -0.537  13.095  20.832  0.00  0.00    +0.000 C 
ATOM     14  C   UNL     1      -0.708  11.863  21.733  0.00  0.00    +0.000 C 
ENDROOT
BRANCH   4  15
ATOM     15  C   UNL     1       2.889   5.594  19.731  0.00  0.00    +0.000 A 
ATOM     16  C   UNL     1       2.500   4.388  20.293  0.00  0.00    +0.000 A 
ATOM     17  C   UNL     1       3.417   3.331  20.012  0.00  0.00    +0.000 A 
ATOM     18  C   UNL     1       4.478   3.757  19.248  0.00  0.00    +0.000 A 
ATOM     19  S   UNL     1       4.356   5.413  18.852  0.00  0.00    +0.000 S 
ENDBRANCH   4  15
TORSDOF 1
ENDMDL
MODEL 9
REMARK VINA RESULT:      -6.3      4.839      6.583
REMARK  Name = 
REMARK  1 active torsions:
REMARK  status: ('A' for Active; 'I' for Inactive)
REMARK    1  A    between atoms: C_4  and  C_5
REMARK                            x       y       z     vdW  Elec       q    Type
REMARK                         _______ _______ _______ _____ _____    ______ ____
ROOT
ATOM      1  O   UNL     1       1.946   9.920  17.339  0.00  0.00    +0.000 OA
ATOM      2  C   UNL     1       1.938   9.069  18.222  0.00  0.00    +0.000 A 
ATOM      3  O   UNL     1       2.528   7.850  18.022  0.00  0.00    +0.000 OA
ATOM      4  C   UNL     1       2.486   6.921  19.019  0.00  0.00    +0.000 A 
ATOM      5  N   UNL     1       1.939   7.055  20.188  0.00  0.00    +0.000 NA
ATOM      6  C   UNL     1       1.387   8.259  20.412  0.00  0.00    +0.000 A 
ATOM      7  S   UNL     1       0.686   8.658  21.911  0.00  0.00    +0.000 S 
ATOM      8  C   UNL     1       0.303  10.225  21.373  0.00  0.00    +0.000 A 
ATOM      9  C   UNL     1       0.673  10.444  20.056  0.00  0.00    +0.000 A 
ATOM     10  C   UNL     1       1.334   9.294  19.516  0.00  0.00    +0.000 A 
ATOM     11  C   UNL     1       0.411  11.756  19.373  0.00  0.00    +0.000 C 
ATOM     12  C   UNL     1      -0.641  12.582  20.133  0.00  0.00    +0.000 C 
ATOM     13  C   UNL     1      -0.339  12.617  21.638  0.00  0.00    +0.000 C 
ATOM     14  C   UNL     1      -0.401  11.211  22.253  0.00  0.00    +0.000 C 
ENDROOT
BRANCH   4  15
ATOM     15  C   UNL     1       3.155   5.696  18.622  0.00  0.00    +0.000 A 
ATOM     16  C   UNL     1       2.724   4.689  17.773  0.00  0.00    +0.000 A 
ATOM     17  C   UNL     1       3.679   3.635  17.643  0.00  0.00    +0.000 A 
ATOM     18  C   UNL     1       4.806   3.864  18.395  0.00  0.00    +0.000 A 
ATOM     19  S   UNL     1       4.727   5.349  19.231  0.00  0.00    +0.000 S 
ENDBRANCH   4  15
TORSDOF 1
ENDMDL
