MODEL 1
REMARK VINA RESULT:      -8.3      0.000      0.000
REMARK  Name = 
REMARK  8 active torsions:
REMARK  status: ('A' for Active; 'I' for Inactive)
REMARK    1  A    between atoms: C_2  and  C_3
REMARK    2  A    between atoms: C_3  and  O_4
REMARK    3  A    between atoms: O_4  and  C_5
REMARK    4  A    between atoms: C_14  and  C_15
REMARK    5  A    between atoms: C_15  and  O_16
REMARK    6  A    between atoms: N_17  and  C_18
REMARK    7  A    between atoms: C_18  and  C_19
REMARK    8  A    between atoms: C_19  and  C_20
REMARK                            x       y       z     vdW  Elec       q    Type
REMARK                         _______ _______ _______ _____ _____    ______ ____
ROOT
ATOM      1  O   UNL     1       8.515   7.320  18.885  0.00  0.00    +0.000 OA
ATOM      2  C   UNL     1       8.079   8.150  18.090  0.00  0.00    +0.000 C 
ATOM      3  N   UNL     1       7.140   7.844  17.131  0.00  0.00    +0.000 N 
ATOM      4  H   UNL     1       6.702   8.588  16.597  0.00  0.00    +0.000 HD
ENDROOT
BRANCH   2   5
ATOM      5  C   UNL     1       8.518   9.615  18.105  0.00  0.00    +0.000 C 
BRANCH   5   6
ATOM      6  O   UNL     1       9.283   9.918  19.271  0.00  0.00    +0.000 OA
BRANCH   6   7
ATOM      7  C   UNL     1      10.005  11.090  19.257  0.00  0.00    +0.000 A 
ATOM      8  C   UNL     1      10.895  11.417  18.229  0.00  0.00    +0.000 A 
ATOM      9  C   UNL     1      11.551  12.644  18.216  0.00  0.00    +0.000 A 
ATOM     10  C   UNL     1      11.323  13.587  19.224  0.00  0.00    +0.000 A 
ATOM     11  C   UNL     1      11.945  14.842  19.141  0.00  0.00    +0.000 A 
ATOM     12  C   UNL     1      11.721  15.813  20.111  0.00  0.00    +0.000 A 
ATOM     13  C   UNL     1      10.883  15.533  21.181  0.00  0.00    +0.000 A 
ATOM     14  C   UNL     1      10.265  14.283  21.272  0.00  0.00    +0.000 A 
ATOM     15  C   UNL     1      10.459  13.274  20.298  0.00  0.00    +0.000 A 
ATOM     16  C   UNL     1       9.810  11.994  20.328  0.00  0.00    +0.000 A 
BRANCH  16  17
ATOM     17  C   UNL     1       8.862  11.650  21.464  0.00  0.00    +0.000 C 
BRANCH  17  18
ATOM     18  O   UNL     1       9.016  10.311  21.936  0.00  0.00    +0.000 OA
ATOM     19  H   UNL     1       9.259  10.357  22.875  0.00  0.00    +0.000 HD
ENDBRANCH  17  18
ENDBRANCH  16  17
ENDBRANCH   6   7
ENDBRANCH   5   6
ENDBRANCH   2   5
BRANCH   3  20
ATOM     20  C   UNL     1       6.567   6.517  16.972  0.00  0.00    +0.000 C 
BRANCH  20  21
ATOM     21  C   UNL     1       5.039   6.526  16.850  0.00  0.00    +0.000 C 
BRANCH  21  22
ATOM     22  C   UNL     1       4.407   5.708  17.928  0.00  0.00    +0.000 A 
ATOM     23  N   UNL     1       4.679   4.448  18.204  0.00  0.00    +0.000 NA
ATOM     24  C   UNL     1       3.838   4.105  19.230  0.00  0.00    +0.000 A 
ATOM     25  C   UNL     1       3.701   2.882  19.897  0.00  0.00    +0.000 A 
ATOM     26  C   UNL     1       2.752   2.776  20.915  0.00  0.00    +0.000 A 
ATOM     27  C   UNL     1       1.948   3.869  21.261  0.00  0.00    +0.000 A 
ATOM     28  C   UNL     1       2.071   5.103  20.604  0.00  0.00    +0.000 A 
ATOM     29  C   UNL     1       3.031   5.176  19.592  0.00  0.00    +0.000 A 
ATOM     30  N   UNL     1       3.422   6.192  18.753  0.00  0.00    +0.000 N 
ATOM     31  H   UNL     1       3.039   7.126  18.736  0.00  0.00    +0.000 HD
ENDBRANCH  21  22
ENDBRANCH  20  21
ENDBRANCH   3  20
TORSDOF 8
ENDMDL
MODEL 2
REMARK VINA RESULT:      -8.3      5.370      8.707
REMARK  Name = 
REMARK  8 active torsions:
REMARK  status: ('A' for Active; 'I' for Inactive)
REMARK    1  A    between atoms: C_2  and  C_3
REMARK    2  A    between atoms: C_3  and  O_4
REMARK    3  A    between atoms: O_4  and  C_5
REMARK    4  A    between atoms: C_14  and  C_15
REMARK    5  A    between atoms: C_15  and  O_16
REMARK    6  A    between atoms: N_17  and  C_18
REMARK    7  A    between atoms: C_18  and  C_19
REMARK    8  A    between atoms: C_19  and  C_20
REMARK                            x       y       z     vdW  Elec       q    Type
REMARK                         _______ _______ _______ _____ _____    ______ ____
ROOT
ATOM      1  O   UNL     1       2.253   6.427  18.113  0.00  0.00    +0.000 OA
ATOM      2  C   UNL     1       2.062   5.862  19.187  0.00  0.00    +0.000 C 
ATOM      3  N   UNL     1       2.015   4.492  19.314  0.00  0.00    +0.000 N 
ATOM      4  H   UNL     1       2.003   4.069  20.237  0.00  0.00    +0.000 HD
ENDROOT
BRANCH   2   5
ATOM      5  C   UNL     1       1.884   6.627  20.501  0.00  0.00    +0.000 C 
BRANCH   5   6
ATOM      6  O   UNL     1       2.012   8.035  20.305  0.00  0.00    +0.000 OA
BRANCH   6   7
ATOM      7  C   UNL     1       1.100   8.841  20.949  0.00  0.00    +0.000 A 
ATOM      8  C   UNL     1       0.919   8.818  22.335  0.00  0.00    +0.000 A 
ATOM      9  C   UNL     1       0.039   9.701  22.955  0.00  0.00    +0.000 A 
ATOM     10  C   UNL     1      -0.674  10.642  22.206  0.00  0.00    +0.000 A 
ATOM     11  C   UNL     1      -1.497  11.565  22.870  0.00  0.00    +0.000 A 
ATOM     12  C   UNL     1      -2.200  12.532  22.159  0.00  0.00    +0.000 A 
ATOM     13  C   UNL     1      -2.098  12.576  20.776  0.00  0.00    +0.000 A 
ATOM     14  C   UNL     1      -1.284  11.657  20.108  0.00  0.00    +0.000 A 
ATOM     15  C   UNL     1      -0.543  10.667  20.798  0.00  0.00    +0.000 A 
ATOM     16  C   UNL     1       0.339   9.733  20.157  0.00  0.00    +0.000 A 
BRANCH  16  17
ATOM     17  C   UNL     1       0.507   9.761  18.648  0.00  0.00    +0.000 C 
BRANCH  17  18
ATOM     18  O   UNL     1       1.870   9.650  18.235  0.00  0.00    +0.000 OA
ATOM     19  H   UNL     1       2.381  10.311  18.730  0.00  0.00    +0.000 HD
ENDBRANCH  17  18
ENDBRANCH  16  17
ENDBRANCH   6   7
ENDBRANCH   5   6
ENDBRANCH   2   5
BRANCH   3  20
ATOM     20  C   UNL     1       2.196   3.583  18.193  0.00  0.00    +0.000 C 
BRANCH  20  21
ATOM     21  C   UNL     1       3.573   2.910  18.174  0.00  0.00    +0.000 C 
BRANCH  21  22
ATOM     22  C   UNL     1       4.669   3.924  18.164  0.00  0.00    +0.000 A 
ATOM     23  N   UNL     1       5.624   4.041  19.065  0.00  0.00    +0.000 NA
ATOM     24  C   UNL     1       6.370   5.121  18.674  0.00  0.00    +0.000 A 
ATOM     25  C   UNL     1       7.496   5.691  19.280  0.00  0.00    +0.000 A 
ATOM     26  C   UNL     1       8.081   6.812  18.688  0.00  0.00    +0.000 A 
ATOM     27  C   UNL     1       7.550   7.360  17.514  0.00  0.00    +0.000 A 
ATOM     28  C   UNL     1       6.423   6.803  16.892  0.00  0.00    +0.000 A 
ATOM     29  C   UNL     1       5.864   5.681  17.509  0.00  0.00    +0.000 A 
ATOM     30  N   UNL     1       4.783   4.890  17.196  0.00  0.00    +0.000 N 
ATOM     31  H   UNL     1       4.171   5.012  16.402  0.00  0.00    +0.000 HD
ENDBRANCH  21  22
ENDBRANCH  20  21
ENDBRANCH   3  20
TORSDOF 8
ENDMDL
MODEL 3
REMARK VINA RESULT:      -8.2      7.370     10.100
REMARK  Name = 
REMARK  8 active torsions:
REMARK  status: ('A' for Active; 'I' for Inactive)
REMARK    1  A    between atoms: C_2  and  C_3
REMARK    2  A    between atoms: C_3  and  O_4
REMARK    3  A    between atoms: O_4  and  C_5
REMARK    4  A    between atoms: C_14  and  C_15
REMARK    5  A    between atoms: C_15  and  O_16
REMARK    6  A    between atoms: N_17  and  C_18
REMARK    7  A    between atoms: C_18  and  C_19
REMARK    8  A    between atoms: C_19  and  C_20
REMARK                            x       y       z     vdW  Elec       q    Type
REMARK                         _______ _______ _______ _____ _____    ______ ____
ROOT
ATOM      1  O   UNL     1      -0.890   8.516  22.304  0.00  0.00    +0.000 OA
ATOM      2  C   UNL     1       0.076   9.181  21.938  0.00  0.00    +0.000 C 
ATOM      3  N   UNL     1       0.049  10.555  21.853  0.00  0.00    +0.000 N 
ATOM      4  H   UNL     1       0.909  11.069  21.690  0.00  0.00    +0.000 HD
ENDROOT
BRANCH   2   5
ATOM      5  C   UNL     1       1.418   8.549  21.564  0.00  0.00    +0.000 C 
BRANCH   5   6
ATOM      6  O   UNL     1       1.240   7.267  20.963  0.00  0.00    +0.000 OA
BRANCH   6   7
ATOM      7  C   UNL     1       1.997   6.990  19.846  0.00  0.00    +0.000 A 
ATOM      8  C   UNL     1       2.355   7.970  18.915  0.00  0.00    +0.000 A 
ATOM      9  C   UNL     1       3.182   7.663  17.838  0.00  0.00    +0.000 A 
ATOM     10  C   UNL     1       3.686   6.369  17.671  0.00  0.00    +0.000 A 
ATOM     11  C   UNL     1       4.575   6.111  16.616  0.00  0.00    +0.000 A 
ATOM     12  C   UNL     1       5.117   4.843  16.435  0.00  0.00    +0.000 A 
ATOM     13  C   UNL     1       4.763   3.817  17.299  0.00  0.00    +0.000 A 
ATOM     14  C   UNL     1       3.874   4.066  18.348  0.00  0.00    +0.000 A 
ATOM     15  C   UNL     1       3.313   5.345  18.573  0.00  0.00    +0.000 A 
ATOM     16  C   UNL     1       2.432   5.657  19.663  0.00  0.00    +0.000 A 
BRANCH  16  17
ATOM     17  C   UNL     1       2.039   4.573  20.653  0.00  0.00    +0.000 C 
BRANCH  17  18
ATOM     18  O   UNL     1       0.679   4.156  20.513  0.00  0.00    +0.000 OA
ATOM     19  H   UNL     1       0.284   4.681  19.799  0.00  0.00    +0.000 HD
ENDBRANCH  17  18
ENDBRANCH  16  17
ENDBRANCH   6   7
ENDBRANCH   5   6
ENDBRANCH   2   5
BRANCH   3  20
ATOM     20  C   UNL     1      -1.119  11.351  22.198  0.00  0.00    +0.000 C 
BRANCH  20  21
ATOM     21  C   UNL     1      -1.426  12.451  21.175  0.00  0.00    +0.000 C 
BRANCH  21  22
ATOM     22  C   UNL     1      -1.907  11.871  19.886  0.00  0.00    +0.000 A 
ATOM     23  N   UNL     1      -1.289  10.952  19.172  0.00  0.00    +0.000 NA
ATOM     24  C   UNL     1      -2.070  10.759  18.063  0.00  0.00    +0.000 A 
ATOM     25  C   UNL     1      -1.873   9.902  16.974  0.00  0.00    +0.000 A 
ATOM     26  C   UNL     1      -2.817   9.894  15.947  0.00  0.00    +0.000 A 
ATOM     27  C   UNL     1      -3.940  10.731  16.000  0.00  0.00    +0.000 A 
ATOM     28  C   UNL     1      -4.155  11.596  17.083  0.00  0.00    +0.000 A 
ATOM     29  C   UNL     1      -3.192  11.577  18.095  0.00  0.00    +0.000 A 
ATOM     30  N   UNL     1      -3.070  12.270  19.276  0.00  0.00    +0.000 N 
ATOM     31  H   UNL     1      -3.717  12.964  19.624  0.00  0.00    +0.000 HD
ENDBRANCH  21  22
ENDBRANCH  20  21
ENDBRANCH   3  20
TORSDOF 8
ENDMDL
MODEL 4
REMARK VINA RESULT:      -8.2      5.348      8.545
REMARK  Name = 
REMARK  8 active torsions:
REMARK  status: ('A' for Active; 'I' for Inactive)
REMARK    1  A    between atoms: C_2  and  C_3
REMARK    2  A    between atoms: C_3  and  O_4
REMARK    3  A    between atoms: O_4  and  C_5
REMARK    4  A    between atoms: C_14  and  C_15
REMARK    5  A    between atoms: C_15  and  O_16
REMARK    6  A    between atoms: N_17  and  C_18
REMARK    7  A    between atoms: C_18  and  C_19
REMARK    8  A    between atoms: C_19  and  C_20
REMARK                            x       y       z     vdW  Elec       q    Type
REMARK                         _______ _______ _______ _____ _____    ______ ____
ROOT
ATOM      1  O   UNL     1       1.810   5.944  17.887  0.00  0.00    +0.000 OA
ATOM      2  C   UNL     1       2.041   5.466  18.994  0.00  0.00    +0.000 C 
ATOM      3  N   UNL     1       2.345   4.137  19.187  0.00  0.00    +0.000 N 
ATOM      4  H   UNL     1       2.673   3.819  20.094  0.00  0.00    +0.000 HD
ENDROOT
BRANCH   2   5
ATOM      5  C   UNL     1       2.041   6.308  20.272  0.00  0.00    +0.000 C 
BRANCH   5   6
ATOM      6  O   UNL     1       2.162   7.699  19.977  0.00  0.00    +0.000 OA
BRANCH   6   7
ATOM      7  C   UNL     1       1.271   8.548  20.595  0.00  0.00    +0.000 A 
ATOM      8  C   UNL     1       0.770   8.313  21.879  0.00  0.00    +0.000 A 
ATOM      9  C   UNL     1      -0.073   9.233  22.496  0.00  0.00    +0.000 A 
ATOM     10  C   UNL     1      -0.426  10.423  21.851  0.00  0.00    +0.000 A 
ATOM     11  C   UNL     1      -1.217  11.361  22.530  0.00  0.00    +0.000 A 
ATOM     12  C   UNL     1      -1.566  12.567  21.930  0.00  0.00    +0.000 A 
ATOM     13  C   UNL     1      -1.138  12.839  20.638  0.00  0.00    +0.000 A 
ATOM     14  C   UNL     1      -0.353  11.906  19.954  0.00  0.00    +0.000 A 
ATOM     15  C   UNL     1       0.033  10.675  20.537  0.00  0.00    +0.000 A 
ATOM     16  C   UNL     1       0.874   9.708  19.889  0.00  0.00    +0.000 A 
BRANCH  16  17
ATOM     17  C   UNL     1       1.392   9.973  18.486  0.00  0.00    +0.000 C 
BRANCH  17  18
ATOM     18  O   UNL     1       1.360   8.815  17.650  0.00  0.00    +0.000 OA
ATOM     19  H   UNL     1       0.607   8.270  17.933  0.00  0.00    +0.000 HD
ENDBRANCH  17  18
ENDBRANCH  16  17
ENDBRANCH   6   7
ENDBRANCH   5   6
ENDBRANCH   2   5
BRANCH   3  20
ATOM     20  C   UNL     1       2.431   3.175  18.100  0.00  0.00    +0.000 C 
BRANCH  20  21
ATOM     21  C   UNL     1       3.865   2.716  17.807  0.00  0.00    +0.000 C 
BRANCH  21  22
ATOM     22  C   UNL     1       4.822   3.861  17.875  0.00  0.00    +0.000 A 
ATOM     23  N   UNL     1       4.867   4.882  17.043  0.00  0.00    +0.000 NA
ATOM     24  C   UNL     1       5.917   5.655  17.463  0.00  0.00    +0.000 A 
ATOM     25  C   UNL     1       6.413   6.850  16.928  0.00  0.00    +0.000 A 
ATOM     26  C   UNL     1       7.517   7.450  17.536  0.00  0.00    +0.000 A 
ATOM     27  C   UNL     1       8.121   6.866  18.657  0.00  0.00    +0.000 A 
ATOM     28  C   UNL     1       7.638   5.670  19.208  0.00  0.00    +0.000 A 
ATOM     29  C   UNL     1       6.531   5.097  18.577  0.00  0.00    +0.000 A 
ATOM     30  N   UNL     1       5.805   3.957  18.827  0.00  0.00    +0.000 N 
ATOM     31  H   UNL     1       5.978   3.297  19.573  0.00  0.00    +0.000 HD
ENDBRANCH  21  22
ENDBRANCH  20  21
ENDBRANCH   3  20
TORSDOF 8
ENDMDL
MODEL 5
REMARK VINA RESULT:      -8.1      5.297      8.063
REMARK  Name = 
REMARK  8 active torsions:
REMARK  status: ('A' for Active; 'I' for Inactive)
REMARK    1  A    between atoms: C_2  and  C_3
REMARK    2  A    between atoms: C_3  and  O_4
REMARK    3  A    between atoms: O_4  and  C_5
REMARK    4  A    between atoms: C_14  and  C_15
REMARK    5  A    between atoms: C_15  and  O_16
REMARK    6  A    between atoms: N_17  and  C_18
REMARK    7  A    between atoms: C_18  and  C_19
REMARK    8  A    between atoms: C_19  and  C_20
REMARK                            x       y       z     vdW  Elec       q    Type
REMARK                         _______ _______ _______ _____ _____    ______ ____
ROOT
ATOM      1  O   UNL     1       1.373   3.277  20.396  0.00  0.00    +0.000 OA
ATOM      2  C   UNL     1       1.673   4.377  19.940  0.00  0.00    +0.000 C 
ATOM      3  N   UNL     1       2.082   4.560  18.638  0.00  0.00    +0.000 N 
ATOM      4  H   UNL     1       2.176   5.500  18.264  0.00  0.00    +0.000 HD
ENDROOT
BRANCH   2   5
ATOM      5  C   UNL     1       1.596   5.662  20.767  0.00  0.00    +0.000 C 
BRANCH   5   6
ATOM      6  O   UNL     1       2.124   6.776  20.047  0.00  0.00    +0.000 OA
BRANCH   6   7
ATOM      7  C   UNL     1       1.589   8.013  20.331  0.00  0.00    +0.000 A 
ATOM      8  C   UNL     1       1.167   8.377  21.613  0.00  0.00    +0.000 A 
ATOM      9  C   UNL     1       0.699   9.662  21.872  0.00  0.00    +0.000 A 
ATOM     10  C   UNL     1       0.655  10.625  20.859  0.00  0.00    +0.000 A 
ATOM     11  C   UNL     1       0.248  11.930  21.171  0.00  0.00    +0.000 A 
ATOM     12  C   UNL     1       0.217  12.919  20.194  0.00  0.00    +0.000 A 
ATOM     13  C   UNL     1       0.580  12.608  18.891  0.00  0.00    +0.000 A 
ATOM     14  C   UNL     1       0.982  11.308  18.572  0.00  0.00    +0.000 A 
ATOM     15  C   UNL     1       1.039  10.278  19.542  0.00  0.00    +0.000 A 
ATOM     16  C   UNL     1       1.488   8.942  19.269  0.00  0.00    +0.000 A 
BRANCH  16  17
ATOM     17  C   UNL     1       1.924   8.561  17.865  0.00  0.00    +0.000 C 
BRANCH  17  18
ATOM     18  O   UNL     1       3.219   7.959  17.826  0.00  0.00    +0.000 OA
ATOM     19  H   UNL     1       3.416   7.748  16.898  0.00  0.00    +0.000 HD
ENDBRANCH  17  18
ENDBRANCH  16  17
ENDBRANCH   6   7
ENDBRANCH   5   6
ENDBRANCH   2   5
BRANCH   3  20
ATOM     20  C   UNL     1       2.188   3.473  17.677  0.00  0.00    +0.000 C 
BRANCH  20  21
ATOM     21  C   UNL     1       3.572   2.814  17.658  0.00  0.00    +0.000 C 
BRANCH  21  22
ATOM     22  C   UNL     1       4.657   3.832  17.793  0.00  0.00    +0.000 A 
ATOM     23  N   UNL     1       5.489   3.946  18.808  0.00  0.00    +0.000 NA
ATOM     24  C   UNL     1       6.274   5.031  18.522  0.00  0.00    +0.000 A 
ATOM     25  C   UNL     1       7.312   5.601  19.269  0.00  0.00    +0.000 A 
ATOM     26  C   UNL     1       7.963   6.728  18.763  0.00  0.00    +0.000 A 
ATOM     27  C   UNL     1       7.582   7.282  17.534  0.00  0.00    +0.000 A 
ATOM     28  C   UNL     1       6.545   6.725  16.771  0.00  0.00    +0.000 A 
ATOM     29  C   UNL     1       5.917   5.597  17.305  0.00  0.00    +0.000 A 
ATOM     30  N   UNL     1       4.888   4.805  16.854  0.00  0.00    +0.000 N 
ATOM     31  H   UNL     1       4.381   4.929  15.989  0.00  0.00    +0.000 HD
ENDBRANCH  21  22
ENDBRANCH  20  21
ENDBRANCH   3  20
TORSDOF 8
ENDMDL
MODEL 6
REMARK VINA RESULT:      -8.0      2.329     10.201
REMARK  Name = 
REMARK  8 active torsions:
REMARK  status: ('A' for Active; 'I' for Inactive)
REMARK    1  A    between atoms: C_2  and  C_3
REMARK    2  A    between atoms: C_3  and  O_4
REMARK    3  A    between atoms: O_4  and  C_5
REMARK    4  A    between atoms: C_14  and  C_15
REMARK    5  A    between atoms: C_15  and  O_16
REMARK    6  A    between atoms: N_17  and  C_18
REMARK    7  A    between atoms: C_18  and  C_19
REMARK    8  A    between atoms: C_19  and  C_20
REMARK                            x       y       z     vdW  Elec       q    Type
REMARK                         _______ _______ _______ _____ _____    ______ ____
ROOT
ATOM      1  O   UNL     1       5.298   7.389  16.734  0.00  0.00    +0.000 OA
ATOM      2  C   UNL     1       6.365   6.792  16.615  0.00  0.00    +0.000 C 
ATOM      3  N   UNL     1       7.572   7.336  16.990  0.00  0.00    +0.000 N 
ATOM      4  H   UNL     1       8.404   6.755  17.012  0.00  0.00    +0.000 HD
ENDROOT
BRANCH   2   5
ATOM      5  C   UNL     1       6.456   5.369  16.061  0.00  0.00    +0.000 C 
BRANCH   5   6
ATOM      6  O   UNL     1       6.285   4.397  17.093  0.00  0.00    +0.000 OA
BRANCH   6   7
ATOM      7  C   UNL     1       4.992   4.095  17.458  0.00  0.00    +0.000 A 
ATOM      8  C   UNL     1       4.135   3.343  16.648  0.00  0.00    +0.000 A 
ATOM      9  C   UNL     1       2.860   2.998  17.087  0.00  0.00    +0.000 A 
ATOM     10  C   UNL     1       2.411   3.382  18.355  0.00  0.00    +0.000 A 
ATOM     11  C   UNL     1       1.149   2.955  18.793  0.00  0.00    +0.000 A 
ATOM     12  C   UNL     1       0.681   3.297  20.058  0.00  0.00    +0.000 A 
ATOM     13  C   UNL     1       1.466   4.081  20.891  0.00  0.00    +0.000 A 
ATOM     14  C   UNL     1       2.723   4.514  20.458  0.00  0.00    +0.000 A 
ATOM     15  C   UNL     1       3.238   4.176  19.183  0.00  0.00    +0.000 A 
ATOM     16  C   UNL     1       4.540   4.560  18.715  0.00  0.00    +0.000 A 
BRANCH  16  17
ATOM     17  C   UNL     1       5.449   5.394  19.602  0.00  0.00    +0.000 C 
BRANCH  17  18
ATOM     18  O   UNL     1       6.766   4.854  19.718  0.00  0.00    +0.000 OA
ATOM     19  H   UNL     1       6.679   3.893  19.833  0.00  0.00    +0.000 HD
ENDBRANCH  17  18
ENDBRANCH  16  17
ENDBRANCH   6   7
ENDBRANCH   5   6
ENDBRANCH   2   5
BRANCH   3  20
ATOM     20  C   UNL     1       7.700   8.663  17.572  0.00  0.00    +0.000 C 
BRANCH  20  21
ATOM     21  C   UNL     1       8.693   8.721  18.739  0.00  0.00    +0.000 C 
BRANCH  21  22
ATOM     22  C   UNL     1       9.156  10.120  18.984  0.00  0.00    +0.000 A 
ATOM     23  N   UNL     1       9.469  11.006  18.060  0.00  0.00    +0.000 NA
ATOM     24  C   UNL     1       9.873  12.122  18.741  0.00  0.00    +0.000 A 
ATOM     25  C   UNL     1      10.325  13.352  18.246  0.00  0.00    +0.000 A 
ATOM     26  C   UNL     1      10.696  14.345  19.154  0.00  0.00    +0.000 A 
ATOM     27  C   UNL     1      10.625  14.117  20.534  0.00  0.00    +0.000 A 
ATOM     28  C   UNL     1      10.175  12.892  21.048  0.00  0.00    +0.000 A 
ATOM     29  C   UNL     1       9.809  11.921  20.114  0.00  0.00    +0.000 A 
ATOM     30  N   UNL     1       9.336  10.637  20.243  0.00  0.00    +0.000 N 
ATOM     31  H   UNL     1       9.167  10.153  21.114  0.00  0.00    +0.000 HD
ENDBRANCH  21  22
ENDBRANCH  20  21
ENDBRANCH   3  20
TORSDOF 8
ENDMDL
MODEL 7
REMARK VINA RESULT:      -7.9      6.269      7.337
REMARK  Name = 
REMARK  8 active torsions:
REMARK  status: ('A' for Active; 'I' for Inactive)
REMARK    1  A    between atoms: C_2  and  C_3
REMARK    2  A    between atoms: C_3  and  O_4
REMARK    3  A    between atoms: O_4  and  C_5
REMARK    4  A    between atoms: C_14  and  C_15
REMARK    5  A    between atoms: C_15  and  O_16
REMARK    6  A    between atoms: N_17  and  C_18
REMARK    7  A    between atoms: C_18  and  C_19
REMARK    8  A    between atoms: C_19  and  C_20
REMARK                            x       y       z     vdW  Elec       q    Type
REMARK                         _______ _______ _______ _____ _____    ______ ____
ROOT
ATOM      1  O   UNL     1       6.305   7.122  16.912  0.00  0.00    +0.000 OA
ATOM      2  C   UNL     1       5.144   6.843  16.624  0.00  0.00    +0.000 C 
ATOM      3  N   UNL     1       4.767   5.605  16.154  0.00  0.00    +0.000 N 
ATOM      4  H   UNL     1       3.782   5.373  16.071  0.00  0.00    +0.000 HD
ENDROOT
BRANCH   2   5
ATOM      5  C   UNL     1       3.992   7.837  16.786  0.00  0.00    +0.000 C 
BRANCH   5   6
ATOM      6  O   UNL     1       2.992   7.334  17.671  0.00  0.00    +0.000 OA
BRANCH   6   7
ATOM      7  C   UNL     1       2.306   8.258  18.428  0.00  0.00    +0.000 A 
ATOM      8  C   UNL     1       2.005   9.542  17.963  0.00  0.00    +0.000 A 
ATOM      9  C   UNL     1       1.247  10.420  18.732  0.00  0.00    +0.000 A 
ATOM     10  C   UNL     1       0.754  10.033  19.982  0.00  0.00    +0.000 A 
ATOM     11  C   UNL     1      -0.068  10.916  20.698  0.00  0.00    +0.000 A 
ATOM     12  C   UNL     1      -0.596  10.555  21.933  0.00  0.00    +0.000 A 
ATOM     13  C   UNL     1      -0.297   9.311  22.470  0.00  0.00    +0.000 A 
ATOM     14  C   UNL     1       0.526   8.428  21.764  0.00  0.00    +0.000 A 
ATOM     15  C   UNL     1       1.072   8.755  20.499  0.00  0.00    +0.000 A 
ATOM     16  C   UNL     1       1.883   7.863  19.720  0.00  0.00    +0.000 A 
BRANCH  16  17
ATOM     17  C   UNL     1       2.215   6.480  20.252  0.00  0.00    +0.000 C 
BRANCH  17  18
ATOM     18  O   UNL     1       3.579   6.112  20.039  0.00  0.00    +0.000 OA
ATOM     19  H   UNL     1       4.104   6.929  20.026  0.00  0.00    +0.000 HD
ENDBRANCH  17  18
ENDBRANCH  16  17
ENDBRANCH   6   7
ENDBRANCH   5   6
ENDBRANCH   2   5
BRANCH   3  20
ATOM     20  C   UNL     1       5.703   4.508  15.962  0.00  0.00    +0.000 C 
BRANCH  20  21
ATOM     21  C   UNL     1       6.021   3.748  17.255  0.00  0.00    +0.000 C 
BRANCH  21  22
ATOM     22  C   UNL     1       4.776   3.452  18.027  0.00  0.00    +0.000 A 
ATOM     23  N   UNL     1       3.551   3.437  17.543  0.00  0.00    +0.000 NA
ATOM     24  C   UNL     1       2.737   3.162  18.609  0.00  0.00    +0.000 A 
ATOM     25  C   UNL     1       1.342   3.042  18.657  0.00  0.00    +0.000 A 
ATOM     26  C   UNL     1       0.734   2.765  19.882  0.00  0.00    +0.000 A 
ATOM     27  C   UNL     1       1.502   2.613  21.044  0.00  0.00    +0.000 A 
ATOM     28  C   UNL     1       2.900   2.729  21.016  0.00  0.00    +0.000 A 
ATOM     29  C   UNL     1       3.476   3.005  19.774  0.00  0.00    +0.000 A 
ATOM     30  N   UNL     1       4.779   3.184  19.373  0.00  0.00    +0.000 N 
ATOM     31  H   UNL     1       5.593   3.142  19.970  0.00  0.00    +0.000 HD
ENDBRANCH  21  22
ENDBRANCH  20  21
ENDBRANCH   3  20
TORSDOF 8
ENDMDL
MODEL 8
REMARK VINA RESULT:      -7.9      6.641      8.771
REMARK  Name = 
REMARK  8 active torsions:
REMARK  status: ('A' for Active; 'I' for Inactive)
REMARK    1  A    between atoms: C_2  and  C_3
REMARK    2  A    between atoms: C_3  and  O_4
REMARK    3  A    between atoms: O_4  and  C_5
REMARK    4  A    between atoms: C_14  and  C_15
REMARK    5  A    between atoms: C_15  and  O_16
REMARK    6  A    between atoms: N_17  and  C_18
REMARK    7  A    between atoms: C_18  and  C_19
REMARK    8  A    between atoms: C_19  and  C_20
REMARK                            x       y       z     vdW  Elec       q    Type
REMARK                         _______ _______ _______ _____ _____    ______ ____
ROOT
ATOM      1  O   UNL     1       2.012   5.613  18.043  0.00  0.00    +0.000 OA
ATOM      2  C   UNL     1       2.360   5.951  19.172  0.00  0.00    +0.000 C 
ATOM      3  N   UNL     1       2.459   5.064  20.221  0.00  0.00    +0.000 N 
ATOM      4  H   UNL     1       2.890   5.357  21.092  0.00  0.00    +0.000 HD
ENDROOT
BRANCH   2   5
ATOM      5  C   UNL     1       2.746   7.390  19.520  0.00  0.00    +0.000 C 
BRANCH   5   6
ATOM      6  O   UNL     1       1.733   8.312  19.119  0.00  0.00    +0.000 OA
BRANCH   6   7
ATOM      7  C   UNL     1       0.972   8.877  20.118  0.00  0.00    +0.000 A 
ATOM      8  C   UNL     1       0.928   8.362  21.417  0.00  0.00    +0.000 A 
ATOM      9  C   UNL     1       0.203   9.007  22.416  0.00  0.00    +0.000 A 
ATOM     10  C   UNL     1      -0.486  10.194  22.146  0.00  0.00    +0.000 A 
ATOM     11  C   UNL     1      -1.146  10.855  23.192  0.00  0.00    +0.000 A 
ATOM     12  C   UNL     1      -1.819  12.051  22.966  0.00  0.00    +0.000 A 
ATOM     13  C   UNL     1      -1.851  12.589  21.688  0.00  0.00    +0.000 A 
ATOM     14  C   UNL     1      -1.200  11.932  20.640  0.00  0.00    +0.000 A 
ATOM     15  C   UNL     1      -0.494  10.721  20.834  0.00  0.00    +0.000 A 
ATOM     16  C   UNL     1       0.226  10.036  19.797  0.00  0.00    +0.000 A 
BRANCH  16  17
ATOM     17  C   UNL     1       0.245  10.601  18.387  0.00  0.00    +0.000 C 
BRANCH  17  18
ATOM     18  O   UNL     1      -0.525   9.827  17.464  0.00  0.00    +0.000 OA
ATOM     19  H   UNL     1      -1.169  10.424  17.049  0.00  0.00    +0.000 HD
ENDBRANCH  17  18
ENDBRANCH  16  17
ENDBRANCH   6   7
ENDBRANCH   5   6
ENDBRANCH   2   5
BRANCH   3  20
ATOM     20  C   UNL     1       2.171   3.644  20.092  0.00  0.00    +0.000 C 
BRANCH  20  21
ATOM     21  C   UNL     1       3.428   2.783  19.920  0.00  0.00    +0.000 C 
BRANCH  21  22
ATOM     22  C   UNL     1       4.335   3.355  18.880  0.00  0.00    +0.000 A 
ATOM     23  N   UNL     1       5.462   3.999  19.106  0.00  0.00    +0.000 NA
ATOM     24  C   UNL     1       5.928   4.371  17.873  0.00  0.00    +0.000 A 
ATOM     25  C   UNL     1       7.082   5.089  17.536  0.00  0.00    +0.000 A 
ATOM     26  C   UNL     1       7.337   5.358  16.191  0.00  0.00    +0.000 A 
ATOM     27  C   UNL     1       6.454   4.921  15.195  0.00  0.00    +0.000 A 
ATOM     28  C   UNL     1       5.294   4.200  15.512  0.00  0.00    +0.000 A 
ATOM     29  C   UNL     1       5.070   3.947  16.867  0.00  0.00    +0.000 A 
ATOM     30  N   UNL     1       4.065   3.289  17.536  0.00  0.00    +0.000 N 
ATOM     31  H   UNL     1       3.260   2.850  17.112  0.00  0.00    +0.000 HD
ENDBRANCH  21  22
ENDBRANCH  20  21
ENDBRANCH   3  20
TORSDOF 8
ENDMDL
MODEL 9
REMARK VINA RESULT:      -7.9      5.370      8.080
REMARK  Name = 
REMARK  8 active torsions:
REMARK  status: ('A' for Active; 'I' for Inactive)
REMARK    1  A    between atoms: C_2  and  C_3
REMARK    2  A    between atoms: C_3  and  O_4
REMARK    3  A    between atoms: O_4  and  C_5
REMARK    4  A    between atoms: C_14  and  C_15
REMARK    5  A    between atoms: C_15  and  O_16
REMARK    6  A    between atoms: N_17  and  C_18
REMARK    7  A    between atoms: C_18  and  C_19
REMARK    8  A    between atoms: C_19  and  C_20
REMARK                            x       y       z     vdW  Elec       q    Type
REMARK                         _______ _______ _______ _____ _____    ______ ____
ROOT
ATOM      1  O   UNL     1       1.046   3.221  20.484  0.00  0.00    +0.000 OA
ATOM      2  C   UNL     1       1.466   4.259  19.979  0.00  0.00    +0.000 C 
ATOM      3  N   UNL     1       2.063   4.300  18.739  0.00  0.00    +0.000 N 
ATOM      4  H   UNL     1       2.259   5.195  18.301  0.00  0.00    +0.000 HD
ENDROOT
BRANCH   2   5
ATOM      5  C   UNL     1       1.342   5.620  20.668  0.00  0.00    +0.000 C 
BRANCH   5   6
ATOM      6  O   UNL     1       2.366   6.516  20.237  0.00  0.00    +0.000 OA
BRANCH   6   7
ATOM      7  C   UNL     1       1.959   7.705  19.674  0.00  0.00    +0.000 A 
ATOM      8  C   UNL     1       2.066   7.968  18.305  0.00  0.00    +0.000 A 
ATOM      9  C   UNL     1       1.576   9.154  17.765  0.00  0.00    +0.000 A 
ATOM     10  C   UNL     1       0.950  10.104  18.579  0.00  0.00    +0.000 A 
ATOM     11  C   UNL     1       0.402  11.255  17.991  0.00  0.00    +0.000 A 
ATOM     12  C   UNL     1      -0.250  12.208  18.766  0.00  0.00    +0.000 A 
ATOM     13  C   UNL     1      -0.349  12.026  20.138  0.00  0.00    +0.000 A 
ATOM     14  C   UNL     1       0.199  10.885  20.730  0.00  0.00    +0.000 A 
ATOM     15  C   UNL     1       0.859   9.887  19.973  0.00  0.00    +0.000 A 
ATOM     16  C   UNL     1       1.396   8.678  20.533  0.00  0.00    +0.000 A 
BRANCH  16  17
ATOM     17  C   UNL     1       1.287   8.420  22.026  0.00  0.00    +0.000 C 
BRANCH  17  18
ATOM     18  O   UNL     1       2.164   9.241  22.800  0.00  0.00    +0.000 OA
ATOM     19  H   UNL     1       1.707  10.082  22.966  0.00  0.00    +0.000 HD
ENDBRANCH  17  18
ENDBRANCH  16  17
ENDBRANCH   6   7
ENDBRANCH   5   6
ENDBRANCH   2   5
BRANCH   3  20
ATOM     20  C   UNL     1       2.245   3.122  17.905  0.00  0.00    +0.000 C 
BRANCH  20  21
ATOM     21  C   UNL     1       3.705   2.664  17.814  0.00  0.00    +0.000 C 
BRANCH  21  22
ATOM     22  C   UNL     1       4.640   3.828  17.859  0.00  0.00    +0.000 A 
ATOM     23  N   UNL     1       4.553   4.920  17.126  0.00  0.00    +0.000 NA
ATOM     24  C   UNL     1       5.634   5.685  17.473  0.00  0.00    +0.000 A 
ATOM     25  C   UNL     1       6.030   6.938  16.989  0.00  0.00    +0.000 A 
ATOM     26  C   UNL     1       7.194   7.516  17.497  0.00  0.00    +0.000 A 
ATOM     27  C   UNL     1       7.955   6.856  18.470  0.00  0.00    +0.000 A 
ATOM     28  C   UNL     1       7.574   5.600  18.967  0.00  0.00    +0.000 A 
ATOM     29  C   UNL     1       6.404   5.051  18.439  0.00  0.00    +0.000 A 
ATOM     30  N   UNL     1       5.741   3.871  18.677  0.00  0.00    +0.000 N 
ATOM     31  H   UNL     1       6.025   3.153  19.330  0.00  0.00    +0.000 HD
ENDBRANCH  21  22
ENDBRANCH  20  21
ENDBRANCH   3  20
TORSDOF 8
ENDMDL
