MODEL 1
REMARK VINA RESULT:      -9.3      0.000      0.000
REMARK  Name = 
REMARK  9 active torsions:
REMARK  status: ('A' for Active; 'I' for Inactive)
REMARK    1  A    between atoms: C_1  and  C_2
REMARK    2  A    between atoms: C_5  and  C_6
REMARK    3  A    between atoms: N_8  and  C_9
REMARK    4  A    between atoms: C_9  and  C_10
REMARK    5  A    between atoms: C_10  and  C_11
REMARK    6  A    between atoms: C_16  and  C_17
REMARK    7  A    between atoms: C_18  and  C_19
REMARK    8  A    between atoms: C_22  and  O_23
REMARK    9  A    between atoms: C_25  and  N_26
REMARK                            x       y       z     vdW  Elec       q    Type
REMARK                         _______ _______ _______ _____ _____    ______ ____
ROOT
ATOM      1  C   UNL     1       8.152   8.127  18.376  0.00  0.00    +0.000 C 
ENDROOT
BRANCH   1   4
ATOM      2  C   UNL     1       9.116  10.330  18.864  0.00  0.00    +0.000 C 
ATOM      3  O   UNL     1       9.242  10.058  20.053  0.00  0.00    +0.000 OA
ATOM      4  N   UNL     1       8.565   9.458  17.943  0.00  0.00    +0.000 N 
ATOM      5  H   UNL     1       8.607   9.662  16.953  0.00  0.00    +0.000 HD
BRANCH   2  10
ATOM      6  C   UNL     1      11.223  15.371  16.846  0.00  0.00    +0.000 C 
ATOM      7  C   UNL     1      10.645  14.099  17.400  0.00  0.00    +0.000 A 
ATOM      8  C   UNL     1      11.317  12.891  17.167  0.00  0.00    +0.000 A 
ATOM      9  C   UNL     1      10.803  11.682  17.649  0.00  0.00    +0.000 A 
ATOM     10  C   UNL     1       9.597  11.646  18.363  0.00  0.00    +0.000 A 
ATOM     11  C   UNL     1       8.915  12.837  18.617  0.00  0.00    +0.000 A 
ATOM     12  C   UNL     1       9.446  14.045  18.134  0.00  0.00    +0.000 A 
BRANCH  12  13
ATOM     13  N   UNL     1       8.688  15.253  18.424  0.00  0.00    +0.000 N 
ATOM     14  O   UNL     1       7.823  15.596  17.610  0.00  0.00    +0.000 OA
ATOM     15  O   UNL     1       9.001  15.874  19.450  0.00  0.00    +0.000 OA
ENDBRANCH  12  13
ENDBRANCH   2  10
ENDBRANCH   1   4
BRANCH   1  16
ATOM     16  C   UNL     1       7.512   7.300  17.259  0.00  0.00    +0.000 C 
BRANCH  16  17
ATOM     17  C   UNL     1       6.491   6.316  17.767  0.00  0.00    +0.000 A 
ATOM     18  C   UNL     1       5.127   6.523  17.555  0.00  0.00    +0.000 A 
ATOM     19  C   UNL     1       4.182   5.599  18.032  0.00  0.00    +0.000 A 
ATOM     20  C   UNL     1       2.811   5.796  17.818  0.00  0.00    +0.000 A 
ATOM     21  C   UNL     1       1.881   4.880  18.302  0.00  0.00    +0.000 A 
ATOM     22  C   UNL     1       2.303   3.749  19.008  0.00  0.00    +0.000 A 
ATOM     23  C   UNL     1       1.265   2.792  19.529  0.00  0.00    +0.000 C 
ATOM     24  C   UNL     1       3.688   3.544  19.217  0.00  0.00    +0.000 A 
ATOM     25  C   UNL     1       4.203   2.336  19.967  0.00  0.00    +0.000 C 
ATOM     26  C   UNL     1       4.638   4.463  18.735  0.00  0.00    +0.000 A 
ATOM     27  N   UNL     1       5.955   4.262  18.945  0.00  0.00    +0.000 NA
ATOM     28  C   UNL     1       6.822   5.173  18.469  0.00  0.00    +0.000 A 
BRANCH  28  29
ATOM     29  O   UNL     1       8.108   4.854  18.747  0.00  0.00    +0.000 OA
ATOM     30  H   UNL     1       8.205   4.078  18.168  0.00  0.00    +0.000 HD
ENDBRANCH  28  29
ENDBRANCH  16  17
ENDBRANCH   1  16
TORSDOF 6
ENDMDL
MODEL 2
REMARK VINA RESULT:      -9.1      5.157      7.992
REMARK  Name = 
REMARK  9 active torsions:
REMARK  status: ('A' for Active; 'I' for Inactive)
REMARK    1  A    between atoms: C_1  and  C_2
REMARK    2  A    between atoms: C_5  and  C_6
REMARK    3  A    between atoms: N_8  and  C_9
REMARK    4  A    between atoms: C_9  and  C_10
REMARK    5  A    between atoms: C_10  and  C_11
REMARK    6  A    between atoms: C_16  and  C_17
REMARK    7  A    between atoms: C_18  and  C_19
REMARK    8  A    between atoms: C_22  and  O_23
REMARK    9  A    between atoms: C_25  and  N_26
REMARK                            x       y       z     vdW  Elec       q    Type
REMARK                         _______ _______ _______ _____ _____    ______ ____
ROOT
ATOM      1  C   UNL     1       1.431   2.561  19.157  0.00  0.00    +0.000 C 
ENDROOT
BRANCH   1   4
ATOM      2  C   UNL     1       1.693   4.740  20.253  0.00  0.00    +0.000 C 
ATOM      3  O   UNL     1       2.235   4.231  21.229  0.00  0.00    +0.000 OA
ATOM      4  N   UNL     1       1.231   4.006  19.176  0.00  0.00    +0.000 N 
ATOM      5  H   UNL     1       0.920   4.471  18.333  0.00  0.00    +0.000 HD
BRANCH   2  10
ATOM      6  C   UNL     1       1.230  10.529  19.803  0.00  0.00    +0.000 C 
ATOM      7  C   UNL     1       1.344   9.040  19.974  0.00  0.00    +0.000 A 
ATOM      8  C   UNL     1       1.814   8.268  18.903  0.00  0.00    +0.000 A 
ATOM      9  C   UNL     1       1.917   6.877  19.015  0.00  0.00    +0.000 A 
ATOM     10  C   UNL     1       1.540   6.219  20.194  0.00  0.00    +0.000 A 
ATOM     11  C   UNL     1       1.080   6.967  21.278  0.00  0.00    +0.000 A 
ATOM     12  C   UNL     1       0.989   8.363  21.156  0.00  0.00    +0.000 A 
BRANCH  12  13
ATOM     13  N   UNL     1       0.496   9.090  22.318  0.00  0.00    +0.000 N 
ATOM     14  O   UNL     1       1.334   9.549  23.103  0.00  0.00    +0.000 OA
ATOM     15  O   UNL     1      -0.734   9.156  22.453  0.00  0.00    +0.000 OA
ENDBRANCH  12  13
ENDBRANCH   2  10
ENDBRANCH   1   4
BRANCH   1  16
ATOM     16  C   UNL     1       2.639   2.129  18.323  0.00  0.00    +0.000 C 
BRANCH  16  17
ATOM     17  C   UNL     1       3.751   3.144  18.328  0.00  0.00    +0.000 A 
ATOM     18  C   UNL     1       3.764   4.200  17.417  0.00  0.00    +0.000 A 
ATOM     19  C   UNL     1       4.806   5.143  17.429  0.00  0.00    +0.000 A 
ATOM     20  C   UNL     1       4.824   6.210  16.521  0.00  0.00    +0.000 A 
ATOM     21  C   UNL     1       5.865   7.134  16.536  0.00  0.00    +0.000 A 
ATOM     22  C   UNL     1       6.908   7.010  17.459  0.00  0.00    +0.000 A 
ATOM     23  C   UNL     1       8.024   8.020  17.431  0.00  0.00    +0.000 C 
ATOM     24  C   UNL     1       6.888   5.938  18.383  0.00  0.00    +0.000 A 
ATOM     25  C   UNL     1       7.985   5.757  19.408  0.00  0.00    +0.000 C 
ATOM     26  C   UNL     1       5.843   4.996  18.377  0.00  0.00    +0.000 A 
ATOM     27  N   UNL     1       5.835   3.974  19.258  0.00  0.00    +0.000 NA
ATOM     28  C   UNL     1       4.816   3.098  19.207  0.00  0.00    +0.000 A 
BRANCH  28  29
ATOM     29  O   UNL     1       4.929   2.124  20.141  0.00  0.00    +0.000 OA
ATOM     30  H   UNL     1       5.896   2.123  20.251  0.00  0.00    +0.000 HD
ENDBRANCH  28  29
ENDBRANCH  16  17
ENDBRANCH   1  16
TORSDOF 6
ENDMDL
MODEL 3
REMARK VINA RESULT:      -8.8      2.212     10.453
REMARK  Name = 
REMARK  9 active torsions:
REMARK  status: ('A' for Active; 'I' for Inactive)
REMARK    1  A    between atoms: C_1  and  C_2
REMARK    2  A    between atoms: C_5  and  C_6
REMARK    3  A    between atoms: N_8  and  C_9
REMARK    4  A    between atoms: C_9  and  C_10
REMARK    5  A    between atoms: C_10  and  C_11
REMARK    6  A    between atoms: C_16  and  C_17
REMARK    7  A    between atoms: C_18  and  C_19
REMARK    8  A    between atoms: C_22  and  O_23
REMARK    9  A    between atoms: C_25  and  N_26
REMARK                            x       y       z     vdW  Elec       q    Type
REMARK                         _______ _______ _______ _____ _____    ______ ____
ROOT
ATOM      1  C   UNL     1       8.163   8.849  17.689  0.00  0.00    +0.000 C 
ENDROOT
BRANCH   1   4
ATOM      2  C   UNL     1       6.697   6.926  17.271  0.00  0.00    +0.000 C 
ATOM      3  O   UNL     1       7.505   6.425  16.497  0.00  0.00    +0.000 OA
ATOM      4  N   UNL     1       6.907   8.139  17.903  0.00  0.00    +0.000 N 
ATOM      5  H   UNL     1       6.284   8.449  18.638  0.00  0.00    +0.000 HD
BRANCH   2  10
ATOM      6  C   UNL     1       1.637   4.304  18.473  0.00  0.00    +0.000 C 
ATOM      7  C   UNL     1       2.969   4.939  18.189  0.00  0.00    +0.000 A 
ATOM      8  C   UNL     1       3.007   6.275  17.764  0.00  0.00    +0.000 A 
ATOM      9  C   UNL     1       4.226   6.897  17.470  0.00  0.00    +0.000 A 
ATOM     10  C   UNL     1       5.437   6.199  17.580  0.00  0.00    +0.000 A 
ATOM     11  C   UNL     1       5.425   4.872  18.011  0.00  0.00    +0.000 A 
ATOM     12  C   UNL     1       4.197   4.260  18.310  0.00  0.00    +0.000 A 
BRANCH  12  13
ATOM     13  N   UNL     1       4.246   2.873  18.749  0.00  0.00    +0.000 N 
ATOM     14  O   UNL     1       4.753   2.640  19.853  0.00  0.00    +0.000 OA
ATOM     15  O   UNL     1       3.813   2.023  17.958  0.00  0.00    +0.000 OA
ENDBRANCH  12  13
ENDBRANCH   2  10
ENDBRANCH   1   4
BRANCH   1  16
ATOM     16  C   UNL     1       8.949   9.088  18.980  0.00  0.00    +0.000 C 
BRANCH  16  17
ATOM     17  C   UNL     1       9.449  10.503  19.111  0.00  0.00    +0.000 A 
ATOM     18  C   UNL     1       9.871  11.222  17.993  0.00  0.00    +0.000 A 
ATOM     19  C   UNL     1      10.336  12.541  18.126  0.00  0.00    +0.000 A 
ATOM     20  C   UNL     1      10.757  13.273  17.007  0.00  0.00    +0.000 A 
ATOM     21  C   UNL     1      11.224  14.577  17.149  0.00  0.00    +0.000 A 
ATOM     22  C   UNL     1      11.278  15.175  18.412  0.00  0.00    +0.000 A 
ATOM     23  C   UNL     1      11.805  16.581  18.525  0.00  0.00    +0.000 C 
ATOM     24  C   UNL     1      10.845  14.441  19.542  0.00  0.00    +0.000 A 
ATOM     25  C   UNL     1      10.874  15.038  20.931  0.00  0.00    +0.000 C 
ATOM     26  C   UNL     1      10.373  13.122  19.413  0.00  0.00    +0.000 A 
ATOM     27  N   UNL     1       9.968  12.428  20.496  0.00  0.00    +0.000 NA
ATOM     28  C   UNL     1       9.531  11.169  20.319  0.00  0.00    +0.000 A 
BRANCH  28  29
ATOM     29  O   UNL     1       9.157  10.586  21.482  0.00  0.00    +0.000 OA
ATOM     30  H   UNL     1       8.417  10.046  21.156  0.00  0.00    +0.000 HD
ENDBRANCH  28  29
ENDBRANCH  16  17
ENDBRANCH   1  16
TORSDOF 6
ENDMDL
MODEL 4
REMARK VINA RESULT:      -8.7      2.250      2.718
REMARK  Name = 
REMARK  9 active torsions:
REMARK  status: ('A' for Active; 'I' for Inactive)
REMARK    1  A    between atoms: C_1  and  C_2
REMARK    2  A    between atoms: C_5  and  C_6
REMARK    3  A    between atoms: N_8  and  C_9
REMARK    4  A    between atoms: C_9  and  C_10
REMARK    5  A    between atoms: C_10  and  C_11
REMARK    6  A    between atoms: C_16  and  C_17
REMARK    7  A    between atoms: C_18  and  C_19
REMARK    8  A    between atoms: C_22  and  O_23
REMARK    9  A    between atoms: C_25  and  N_26
REMARK                            x       y       z     vdW  Elec       q    Type
REMARK                         _______ _______ _______ _____ _____    ______ ____
ROOT
ATOM      1  C   UNL     1       7.259   6.685  16.751  0.00  0.00    +0.000 C 
ENDROOT
BRANCH   1   4
ATOM      2  C   UNL     1       8.271   8.411  18.171  0.00  0.00    +0.000 C 
ATOM      3  O   UNL     1       8.669   7.575  18.975  0.00  0.00    +0.000 OA
ATOM      4  N   UNL     1       7.539   8.086  17.043  0.00  0.00    +0.000 N 
ATOM      5  H   UNL     1       7.351   8.784  16.335  0.00  0.00    +0.000 HD
BRANCH   2  10
ATOM      6  C   UNL     1       9.474  14.077  18.781  0.00  0.00    +0.000 C 
ATOM      7  C   UNL     1       9.204  12.604  18.660  0.00  0.00    +0.000 A 
ATOM      8  C   UNL     1       8.412  12.144  17.598  0.00  0.00    +0.000 A 
ATOM      9  C   UNL     1       8.121  10.782  17.461  0.00  0.00    +0.000 A 
ATOM     10  C   UNL     1       8.601   9.845  18.387  0.00  0.00    +0.000 A 
ATOM     11  C   UNL     1       9.399  10.277  19.447  0.00  0.00    +0.000 A 
ATOM     12  C   UNL     1       9.691  11.646  19.570  0.00  0.00    +0.000 A 
BRANCH  12  13
ATOM     13  N   UNL     1      10.523  12.038  20.698  0.00  0.00    +0.000 N 
ATOM     14  O   UNL     1      11.749  12.031  20.535  0.00  0.00    +0.000 OA
ATOM     15  O   UNL     1       9.936  12.310  21.754  0.00  0.00    +0.000 OA
ENDBRANCH  12  13
ENDBRANCH   2  10
ENDBRANCH   1   4
BRANCH   1  16
ATOM     16  C   UNL     1       5.848   6.450  16.208  0.00  0.00    +0.000 C 
BRANCH  16  17
ATOM     17  C   UNL     1       5.012   5.572  17.101  0.00  0.00    +0.000 A 
ATOM     18  C   UNL     1       4.203   6.121  18.096  0.00  0.00    +0.000 A 
ATOM     19  C   UNL     1       3.427   5.292  18.925  0.00  0.00    +0.000 A 
ATOM     20  C   UNL     1       2.607   5.837  19.923  0.00  0.00    +0.000 A 
ATOM     21  C   UNL     1       1.848   5.007  20.744  0.00  0.00    +0.000 A 
ATOM     22  C   UNL     1       1.892   3.619  20.582  0.00  0.00    +0.000 A 
ATOM     23  C   UNL     1       1.069   2.756  21.501  0.00  0.00    +0.000 C 
ATOM     24  C   UNL     1       2.712   3.068  19.569  0.00  0.00    +0.000 A 
ATOM     25  C   UNL     1       2.795   1.575  19.343  0.00  0.00    +0.000 C 
ATOM     26  C   UNL     1       3.486   3.894  18.734  0.00  0.00    +0.000 A 
ATOM     27  N   UNL     1       4.270   3.360  17.774  0.00  0.00    +0.000 NA
ATOM     28  C   UNL     1       4.994   4.193  17.007  0.00  0.00    +0.000 A 
BRANCH  28  29
ATOM     29  O   UNL     1       5.735   3.531  16.087  0.00  0.00    +0.000 OA
ATOM     30  H   UNL     1       6.271   2.981  16.684  0.00  0.00    +0.000 HD
ENDBRANCH  28  29
ENDBRANCH  16  17
ENDBRANCH   1  16
TORSDOF 6
ENDMDL
MODEL 5
REMARK VINA RESULT:      -8.4      6.663      9.894
REMARK  Name = 
REMARK  9 active torsions:
REMARK  status: ('A' for Active; 'I' for Inactive)
REMARK    1  A    between atoms: C_1  and  C_2
REMARK    2  A    between atoms: C_5  and  C_6
REMARK    3  A    between atoms: N_8  and  C_9
REMARK    4  A    between atoms: C_9  and  C_10
REMARK    5  A    between atoms: C_10  and  C_11
REMARK    6  A    between atoms: C_16  and  C_17
REMARK    7  A    between atoms: C_18  and  C_19
REMARK    8  A    between atoms: C_22  and  O_23
REMARK    9  A    between atoms: C_25  and  N_26
REMARK                            x       y       z     vdW  Elec       q    Type
REMARK                         _______ _______ _______ _____ _____    ______ ____
ROOT
ATOM      1  C   UNL     1       1.148   7.405  20.996  0.00  0.00    +0.000 C 
ENDROOT
BRANCH   1   4
ATOM      2  C   UNL     1       2.220   5.599  19.728  0.00  0.00    +0.000 C 
ATOM      3  O   UNL     1       1.566   4.743  20.314  0.00  0.00    +0.000 OA
ATOM      4  N   UNL     1       2.114   6.951  20.001  0.00  0.00    +0.000 N 
ATOM      5  H   UNL     1       2.563   7.632  19.403  0.00  0.00    +0.000 HD
BRANCH   2  10
ATOM      6  C   UNL     1       5.876   3.739  15.592  0.00  0.00    +0.000 C 
ATOM      7  C   UNL     1       4.957   4.269  16.657  0.00  0.00    +0.000 A 
ATOM      8  C   UNL     1       4.191   3.363  17.405  0.00  0.00    +0.000 A 
ATOM      9  C   UNL     1       3.309   3.816  18.392  0.00  0.00    +0.000 A 
ATOM     10  C   UNL     1       3.159   5.186  18.651  0.00  0.00    +0.000 A 
ATOM     11  C   UNL     1       3.919   6.106  17.928  0.00  0.00    +0.000 A 
ATOM     12  C   UNL     1       4.806   5.639  16.944  0.00  0.00    +0.000 A 
BRANCH  12  13
ATOM     13  N   UNL     1       5.567   6.645  16.218  0.00  0.00    +0.000 N 
ATOM     14  O   UNL     1       5.113   7.037  15.136  0.00  0.00    +0.000 OA
ATOM     15  O   UNL     1       6.640   7.002  16.723  0.00  0.00    +0.000 OA
ENDBRANCH  12  13
ENDBRANCH   2  10
ENDBRANCH   1   4
BRANCH   1  16
ATOM     16  C   UNL     1       1.582   8.682  21.720  0.00  0.00    +0.000 C 
BRANCH  16  17
ATOM     17  C   UNL     1       0.467   9.682  21.869  0.00  0.00    +0.000 A 
ATOM     18  C   UNL     1       0.009  10.417  20.775  0.00  0.00    +0.000 A 
ATOM     19  C   UNL     1      -1.033  11.348  20.924  0.00  0.00    +0.000 A 
ATOM     20  C   UNL     1      -1.502  12.086  19.829  0.00  0.00    +0.000 A 
ATOM     21  C   UNL     1      -2.529  13.013  19.989  0.00  0.00    +0.000 A 
ATOM     22  C   UNL     1      -3.108  13.218  21.245  0.00  0.00    +0.000 A 
ATOM     23  C   UNL     1      -4.204  14.241  21.379  0.00  0.00    +0.000 C 
ATOM     24  C   UNL     1      -2.641  12.467  22.351  0.00  0.00    +0.000 A 
ATOM     25  C   UNL     1      -3.233  12.642  23.731  0.00  0.00    +0.000 C 
ATOM     26  C   UNL     1      -1.602  11.530  22.204  0.00  0.00    +0.000 A 
ATOM     27  N   UNL     1      -1.160  10.823  23.264  0.00  0.00    +0.000 NA
ATOM     28  C   UNL     1      -0.161   9.944  23.071  0.00  0.00    +0.000 A 
BRANCH  28  29
ATOM     29  O   UNL     1       0.187   9.303  24.212  0.00  0.00    +0.000 OA
ATOM     30  H   UNL     1      -0.642   9.410  24.711  0.00  0.00    +0.000 HD
ENDBRANCH  28  29
ENDBRANCH  16  17
ENDBRANCH   1  16
TORSDOF 6
ENDMDL
MODEL 6
REMARK VINA RESULT:      -8.4      6.454      9.827
REMARK  Name = 
REMARK  9 active torsions:
REMARK  status: ('A' for Active; 'I' for Inactive)
REMARK    1  A    between atoms: C_1  and  C_2
REMARK    2  A    between atoms: C_5  and  C_6
REMARK    3  A    between atoms: N_8  and  C_9
REMARK    4  A    between atoms: C_9  and  C_10
REMARK    5  A    between atoms: C_10  and  C_11
REMARK    6  A    between atoms: C_16  and  C_17
REMARK    7  A    between atoms: C_18  and  C_19
REMARK    8  A    between atoms: C_22  and  O_23
REMARK    9  A    between atoms: C_25  and  N_26
REMARK                            x       y       z     vdW  Elec       q    Type
REMARK                         _______ _______ _______ _____ _____    ______ ____
ROOT
ATOM      1  C   UNL     1       1.229   7.350  20.990  0.00  0.00    +0.000 C 
ENDROOT
BRANCH   1   4
ATOM      2  C   UNL     1       2.655   5.622  19.990  0.00  0.00    +0.000 C 
ATOM      3  O   UNL     1       2.292   4.788  20.812  0.00  0.00    +0.000 OA
ATOM      4  N   UNL     1       2.212   6.933  19.996  0.00  0.00    +0.000 N 
ATOM      5  H   UNL     1       2.424   7.550  19.223  0.00  0.00    +0.000 HD
BRANCH   2  10
ATOM      6  C   UNL     1       6.159   3.893  15.670  0.00  0.00    +0.000 C 
ATOM      7  C   UNL     1       5.300   4.350  16.816  0.00  0.00    +0.000 A 
ATOM      8  C   UNL     1       3.928   4.061  16.793  0.00  0.00    +0.000 A 
ATOM      9  C   UNL     1       3.090   4.485  17.830  0.00  0.00    +0.000 A 
ATOM     10  C   UNL     1       3.598   5.220  18.911  0.00  0.00    +0.000 A 
ATOM     11  C   UNL     1       4.961   5.510  18.963  0.00  0.00    +0.000 A 
ATOM     12  C   UNL     1       5.793   5.072  17.919  0.00  0.00    +0.000 A 
BRANCH  12  13
ATOM     13  N   UNL     1       7.206   5.409  18.023  0.00  0.00    +0.000 N 
ATOM     14  O   UNL     1       7.563   6.516  17.604  0.00  0.00    +0.000 OA
ATOM     15  O   UNL     1       7.953   4.537  18.488  0.00  0.00    +0.000 OA
ENDBRANCH  12  13
ENDBRANCH   2  10
ENDBRANCH   1   4
BRANCH   1  16
ATOM     16  C   UNL     1       1.637   8.613  21.751  0.00  0.00    +0.000 C 
BRANCH  16  17
ATOM     17  C   UNL     1       0.523   9.621  21.859  0.00  0.00    +0.000 A 
ATOM     18  C   UNL     1       0.021  10.262  20.726  0.00  0.00    +0.000 A 
ATOM     19  C   UNL     1      -1.018  11.201  20.837  0.00  0.00    +0.000 A 
ATOM     20  C   UNL     1      -1.532  11.845  19.703  0.00  0.00    +0.000 A 
ATOM     21  C   UNL     1      -2.557  12.780  19.824  0.00  0.00    +0.000 A 
ATOM     22  C   UNL     1      -3.088  13.088  21.080  0.00  0.00    +0.000 A 
ATOM     23  C   UNL     1      -4.183  14.117  21.170  0.00  0.00    +0.000 C 
ATOM     24  C   UNL     1      -2.577  12.432  22.226  0.00  0.00    +0.000 A 
ATOM     25  C   UNL     1      -3.118  12.719  23.608  0.00  0.00    +0.000 C 
ATOM     26  C   UNL     1      -1.541  11.487  22.118  0.00  0.00    +0.000 A 
ATOM     27  N   UNL     1      -1.056  10.871  23.215  0.00  0.00    +0.000 NA
ATOM     28  C   UNL     1      -0.061   9.980  23.058  0.00  0.00    +0.000 A 
BRANCH  28  29
ATOM     29  O   UNL     1       0.333   9.436  24.235  0.00  0.00    +0.000 OA
ATOM     30  H   UNL     1       0.984   8.796  23.901  0.00  0.00    +0.000 HD
ENDBRANCH  28  29
ENDBRANCH  16  17
ENDBRANCH   1  16
TORSDOF 6
ENDMDL
MODEL 7
REMARK VINA RESULT:      -8.4      6.906     10.961
REMARK  Name = 
REMARK  9 active torsions:
REMARK  status: ('A' for Active; 'I' for Inactive)
REMARK    1  A    between atoms: C_1  and  C_2
REMARK    2  A    between atoms: C_5  and  C_6
REMARK    3  A    between atoms: N_8  and  C_9
REMARK    4  A    between atoms: C_9  and  C_10
REMARK    5  A    between atoms: C_10  and  C_11
REMARK    6  A    between atoms: C_16  and  C_17
REMARK    7  A    between atoms: C_18  and  C_19
REMARK    8  A    between atoms: C_22  and  O_23
REMARK    9  A    between atoms: C_25  and  N_26
REMARK                            x       y       z     vdW  Elec       q    Type
REMARK                         _______ _______ _______ _____ _____    ______ ____
ROOT
ATOM      1  C   UNL     1       1.833   9.642  18.155  0.00  0.00    +0.000 C 
ENDROOT
BRANCH   1   4
ATOM      2  C   UNL     1       2.255   7.396  19.048  0.00  0.00    +0.000 C 
ATOM      3  O   UNL     1       2.045   7.768  20.198  0.00  0.00    +0.000 OA
ATOM      4  N   UNL     1       2.202   8.245  17.957  0.00  0.00    +0.000 N 
ATOM      5  H   UNL     1       2.242   7.875  17.017  0.00  0.00    +0.000 HD
BRANCH   2  10
ATOM      6  C   UNL     1       3.604   1.857  17.857  0.00  0.00    +0.000 C 
ATOM      7  C   UNL     1       3.207   3.269  18.183  0.00  0.00    +0.000 A 
ATOM      8  C   UNL     1       3.974   4.326  17.672  0.00  0.00    +0.000 A 
ATOM      9  C   UNL     1       3.649   5.654  17.967  0.00  0.00    +0.000 A 
ATOM     10  C   UNL     1       2.557   5.963  18.791  0.00  0.00    +0.000 A 
ATOM     11  C   UNL     1       1.771   4.929  19.302  0.00  0.00    +0.000 A 
ATOM     12  C   UNL     1       2.104   3.600  18.993  0.00  0.00    +0.000 A 
BRANCH  12  13
ATOM     13  N   UNL     1       1.252   2.564  19.559  0.00  0.00    +0.000 N 
ATOM     14  O   UNL     1       0.307   2.159  18.871  0.00  0.00    +0.000 OA
ATOM     15  O   UNL     1       1.516   2.196  20.713  0.00  0.00    +0.000 OA
ENDBRANCH  12  13
ENDBRANCH   2  10
ENDBRANCH   1   4
BRANCH   1  16
ATOM     16  C   UNL     1       0.414   9.965  17.684  0.00  0.00    +0.000 C 
BRANCH  16  17
ATOM     17  C   UNL     1      -0.388  10.725  18.708  0.00  0.00    +0.000 A 
ATOM     18  C   UNL     1      -0.254  10.455  20.070  0.00  0.00    +0.000 A 
ATOM     19  C   UNL     1      -1.007  11.170  21.018  0.00  0.00    +0.000 A 
ATOM     20  C   UNL     1      -0.874  10.909  22.389  0.00  0.00    +0.000 A 
ATOM     21  C   UNL     1      -1.630  11.617  23.320  0.00  0.00    +0.000 A 
ATOM     22  C   UNL     1      -2.531  12.600  22.899  0.00  0.00    +0.000 A 
ATOM     23  C   UNL     1      -3.341  13.330  23.935  0.00  0.00    +0.000 C 
ATOM     24  C   UNL     1      -2.660  12.871  21.516  0.00  0.00    +0.000 A 
ATOM     25  C   UNL     1      -3.612  13.927  21.003  0.00  0.00    +0.000 C 
ATOM     26  C   UNL     1      -1.904  12.162  20.564  0.00  0.00    +0.000 A 
ATOM     27  N   UNL     1      -2.037  12.423  19.248  0.00  0.00    +0.000 NA
ATOM     28  C   UNL     1      -1.296  11.713  18.379  0.00  0.00    +0.000 A 
BRANCH  28  29
ATOM     29  O   UNL     1      -1.525  12.072  17.094  0.00  0.00    +0.000 OA
ATOM     30  H   UNL     1      -1.114  12.955  17.102  0.00  0.00    +0.000 HD
ENDBRANCH  28  29
ENDBRANCH  16  17
ENDBRANCH   1  16
TORSDOF 6
ENDMDL
MODEL 8
REMARK VINA RESULT:      -8.3      5.339      8.084
REMARK  Name = 
REMARK  9 active torsions:
REMARK  status: ('A' for Active; 'I' for Inactive)
REMARK    1  A    between atoms: C_1  and  C_2
REMARK    2  A    between atoms: C_5  and  C_6
REMARK    3  A    between atoms: N_8  and  C_9
REMARK    4  A    between atoms: C_9  and  C_10
REMARK    5  A    between atoms: C_10  and  C_11
REMARK    6  A    between atoms: C_16  and  C_17
REMARK    7  A    between atoms: C_18  and  C_19
REMARK    8  A    between atoms: C_22  and  O_23
REMARK    9  A    between atoms: C_25  and  N_26
REMARK                            x       y       z     vdW  Elec       q    Type
REMARK                         _______ _______ _______ _____ _____    ______ ____
ROOT
ATOM      1  C   UNL     1       1.534   2.449  19.937  0.00  0.00    +0.000 C 
ENDROOT
BRANCH   1   4
ATOM      2  C   UNL     1       1.822   4.773  20.667  0.00  0.00    +0.000 C 
ATOM      3  O   UNL     1       2.423   4.425  21.678  0.00  0.00    +0.000 OA
ATOM      4  N   UNL     1       1.313   3.878  19.744  0.00  0.00    +0.000 N 
ATOM      5  H   UNL     1       0.950   4.205  18.858  0.00  0.00    +0.000 HD
BRANCH   2  10
ATOM      6  C   UNL     1       1.268  10.424  19.369  0.00  0.00    +0.000 C 
ATOM      7  C   UNL     1       1.403   8.978  19.757  0.00  0.00    +0.000 A 
ATOM      8  C   UNL     1       1.929   8.072  18.826  0.00  0.00    +0.000 A 
ATOM      9  C   UNL     1       2.053   6.714  19.142  0.00  0.00    +0.000 A 
ATOM     10  C   UNL     1       1.643   6.224  20.390  0.00  0.00    +0.000 A 
ATOM     11  C   UNL     1       1.127   7.108  21.337  0.00  0.00    +0.000 A 
ATOM     12  C   UNL     1       1.014   8.470  21.011  0.00  0.00    +0.000 A 
BRANCH  12  13
ATOM     13  N   UNL     1       0.463   9.344  22.036  0.00  0.00    +0.000 N 
ATOM     14  O   UNL     1      -0.748   9.593  21.987  0.00  0.00    +0.000 OA
ATOM     15  O   UNL     1       1.263   9.809  22.860  0.00  0.00    +0.000 OA
ENDBRANCH  12  13
ENDBRANCH   2  10
ENDBRANCH   1   4
BRANCH   1  16
ATOM     16  C   UNL     1       2.795   1.932  19.241  0.00  0.00    +0.000 C 
BRANCH  16  17
ATOM     17  C   UNL     1       3.631   3.034  18.645  0.00  0.00    +0.000 A 
ATOM     18  C   UNL     1       4.754   3.524  19.312  0.00  0.00    +0.000 A 
ATOM     19  C   UNL     1       5.528   4.552  18.748  0.00  0.00    +0.000 A 
ATOM     20  C   UNL     1       6.661   5.047  19.409  0.00  0.00    +0.000 A 
ATOM     21  C   UNL     1       7.417   6.071  18.845  0.00  0.00    +0.000 A 
ATOM     22  C   UNL     1       7.057   6.620  17.611  0.00  0.00    +0.000 A 
ATOM     23  C   UNL     1       7.891   7.738  17.044  0.00  0.00    +0.000 C 
ATOM     24  C   UNL     1       5.918   6.116  16.937  0.00  0.00    +0.000 A 
ATOM     25  C   UNL     1       5.485   6.666  15.598  0.00  0.00    +0.000 C 
ATOM     26  C   UNL     1       5.144   5.083  17.496  0.00  0.00    +0.000 A 
ATOM     27  N   UNL     1       4.058   4.613  16.850  0.00  0.00    +0.000 NA
ATOM     28  C   UNL     1       3.348   3.628  17.430  0.00  0.00    +0.000 A 
BRANCH  28  29
ATOM     29  O   UNL     1       2.286   3.250  16.681  0.00  0.00    +0.000 OA
ATOM     30  H   UNL     1       2.717   3.204  15.810  0.00  0.00    +0.000 HD
ENDBRANCH  28  29
ENDBRANCH  16  17
ENDBRANCH   1  16
TORSDOF 6
ENDMDL
MODEL 9
REMARK VINA RESULT:      -8.3      4.698      7.814
REMARK  Name = 
REMARK  9 active torsions:
REMARK  status: ('A' for Active; 'I' for Inactive)
REMARK    1  A    between atoms: C_1  and  C_2
REMARK    2  A    between atoms: C_5  and  C_6
REMARK    3  A    between atoms: N_8  and  C_9
REMARK    4  A    between atoms: C_9  and  C_10
REMARK    5  A    between atoms: C_10  and  C_11
REMARK    6  A    between atoms: C_16  and  C_17
REMARK    7  A    between atoms: C_18  and  C_19
REMARK    8  A    between atoms: C_22  and  O_23
REMARK    9  A    between atoms: C_25  and  N_26
REMARK                            x       y       z     vdW  Elec       q    Type
REMARK                         _______ _______ _______ _____ _____    ______ ____
ROOT
ATOM      1  C   UNL     1       1.352   2.662  19.430  0.00  0.00    +0.000 C 
ENDROOT
BRANCH   1   4
ATOM      2  C   UNL     1       1.664   4.860  20.473  0.00  0.00    +0.000 C 
ATOM      3  O   UNL     1       2.268   4.372  21.422  0.00  0.00    +0.000 OA
ATOM      4  N   UNL     1       1.143   4.105  19.438  0.00  0.00    +0.000 N 
ATOM      5  H   UNL     1       0.777   4.554  18.609  0.00  0.00    +0.000 HD
BRANCH   2  10
ATOM      6  C   UNL     1       0.893  10.634  20.420  0.00  0.00    +0.000 C 
ATOM      7  C   UNL     1       1.091   9.144  20.378  0.00  0.00    +0.000 A 
ATOM      8  C   UNL     1       0.903   8.401  21.552  0.00  0.00    +0.000 A 
ATOM      9  C   UNL     1       1.096   7.015  21.560  0.00  0.00    +0.000 A 
ATOM     10  C   UNL     1       1.496   6.337  20.400  0.00  0.00    +0.000 A 
ATOM     11  C   UNL     1       1.680   7.053  19.217  0.00  0.00    +0.000 A 
ATOM     12  C   UNL     1       1.475   8.443  19.220  0.00  0.00    +0.000 A 
BRANCH  12  13
ATOM     13  N   UNL     1       1.687   9.137  17.958  0.00  0.00    +0.000 N 
ATOM     14  O   UNL     1       0.687   9.519  17.339  0.00  0.00    +0.000 OA
ATOM     15  O   UNL     1       2.861   9.255  17.578  0.00  0.00    +0.000 OA
ENDBRANCH  12  13
ENDBRANCH   2  10
ENDBRANCH   1   4
BRANCH   1  16
ATOM     16  C   UNL     1       2.496   2.222  18.513  0.00  0.00    +0.000 C 
BRANCH  16  17
ATOM     17  C   UNL     1       3.633   3.208  18.476  0.00  0.00    +0.000 A 
ATOM     18  C   UNL     1       3.618   4.289  17.594  0.00  0.00    +0.000 A 
ATOM     19  C   UNL     1       4.684   5.204  17.567  0.00  0.00    +0.000 A 
ATOM     20  C   UNL     1       4.675   6.296  16.688  0.00  0.00    +0.000 A 
ATOM     21  C   UNL     1       5.740   7.193  16.663  0.00  0.00    +0.000 A 
ATOM     22  C   UNL     1       6.833   7.017  17.516  0.00  0.00    +0.000 A 
ATOM     23  C   UNL     1       7.972   7.998  17.446  0.00  0.00    +0.000 C 
ATOM     24  C   UNL     1       6.841   5.920  18.411  0.00  0.00    +0.000 A 
ATOM     25  C   UNL     1       7.993   5.683  19.360  0.00  0.00    +0.000 C 
ATOM     26  C   UNL     1       5.773   5.005  18.445  0.00  0.00    +0.000 A 
ATOM     27  N   UNL     1       5.791   3.959  19.297  0.00  0.00    +0.000 NA
ATOM     28  C   UNL     1       4.748   3.111  19.286  0.00  0.00    +0.000 A 
BRANCH  28  29
ATOM     29  O   UNL     1       4.892   2.108  20.185  0.00  0.00    +0.000 OA
ATOM     30  H   UNL     1       4.435   1.398  19.702  0.00  0.00    +0.000 HD
ENDBRANCH  28  29
ENDBRANCH  16  17
ENDBRANCH   1  16
TORSDOF 6
ENDMDL
