MODEL 1
REMARK VINA RESULT:      -8.2      0.000      0.000
REMARK  Name = 
REMARK  8 active torsions:
REMARK  status: ('A' for Active; 'I' for Inactive)
REMARK    1  A    between atoms: C_2  and  O_3
REMARK    2  A    between atoms: C_2  and  C_4
REMARK    3  A    between atoms: C_4  and  C_5
REMARK    4  A    between atoms: C_9  and  O_10
REMARK    5  A    between atoms: O_10  and  C_11
REMARK    6  A    between atoms: C_17  and  N_18
REMARK    7  A    between atoms: N_18  and  S_19
REMARK    8  A    between atoms: S_19  and  C_22
REMARK                            x       y       z     vdW  Elec       q    Type
REMARK                         _______ _______ _______ _____ _____    ______ ____
ROOT
ATOM      1  C   UNL     1       2.606   6.481  18.444  0.00  0.00    +0.000 A 
ATOM      2  C   UNL     1       2.358   7.614  17.654  0.00  0.00    +0.000 A 
ATOM      3  C   UNL     1       1.813   8.766  18.220  0.00  0.00    +0.000 A 
ATOM      4  C   UNL     1       1.541   8.801  19.584  0.00  0.00    +0.000 A 
ATOM      5 CL   UNL     1       0.790  10.187  20.269  0.00  0.00    +0.000 Cl
ATOM      6  C   UNL     1       1.871   7.722  20.399  0.00  0.00    +0.000 A 
ATOM      7  C   UNL     1       2.435   6.568  19.847  0.00  0.00    +0.000 A 
ENDROOT
BRANCH   7   8
ATOM      8  N   UNL     1       2.786   5.537  20.791  0.00  0.00    +0.000 N 
ATOM      9  H   UNL     1       3.029   5.864  21.731  0.00  0.00    +0.000 HD
BRANCH   8  10
ATOM     10  S   UNL     1       1.824   4.142  20.927  0.00  0.00    +0.000 S 
ATOM     11  O   UNL     1       2.021   3.674  22.273  0.00  0.00    +0.000 OA
ATOM     12  O   UNL     1       0.500   4.451  20.434  0.00  0.00    +0.000 OA
BRANCH  10  13
ATOM     13  C   UNL     1       2.522   2.880  19.837  0.00  0.00    +0.000 A 
ATOM     14  C   UNL     1       1.882   2.546  18.636  0.00  0.00    +0.000 A 
ATOM     15  C   UNL     1       2.546   1.733  17.701  0.00  0.00    +0.000 A 
ATOM     16  C   UNL     1       3.840   1.276  17.948  0.00  0.00    +0.000 A 
ATOM     17  C   UNL     1       4.487   1.633  19.138  0.00  0.00    +0.000 A 
ATOM     18  C   UNL     1       3.832   2.435  20.079  0.00  0.00    +0.000 A 
ENDBRANCH  10  13
ENDBRANCH   8  10
ENDBRANCH   7   8
BRANCH   1  19
ATOM     19  O   UNL     1       3.041   5.303  17.867  0.00  0.00    +0.000 OA
BRANCH  19  24
ATOM     20  C   UNL     1       6.773   5.612  17.989  0.00  0.00    +0.000 A 
ATOM     21  C   UNL     1       7.069   4.976  16.772  0.00  0.00    +0.000 A 
ATOM     22  C   UNL     1       6.060   4.392  16.009  0.00  0.00    +0.000 A 
ATOM     23  C   UNL     1       4.726   4.470  16.431  0.00  0.00    +0.000 A 
ATOM     24  C   UNL     1       4.400   5.109  17.630  0.00  0.00    +0.000 A 
ATOM     25  C   UNL     1       5.428   5.656  18.423  0.00  0.00    +0.000 A 
BRANCH  20  26
ATOM     26  C   UNL     1       7.873   6.418  18.654  0.00  0.00    +0.000 C 
BRANCH  26  28
ATOM     27  O   UNL     1       7.606   8.278  17.147  0.00  0.00    +0.000 OA
ATOM     28  C   UNL     1       8.067   7.838  18.191  0.00  0.00    +0.000 C 
BRANCH  28  29
ATOM     29  O   UNL     1       8.855   8.583  18.997  0.00  0.00    +0.000 OA
ATOM     30  H   UNL     1       8.394   8.929  19.786  0.00  0.00    +0.000 HD
ENDBRANCH  28  29
ENDBRANCH  26  28
ENDBRANCH  20  26
ENDBRANCH  19  24
ENDBRANCH   1  19
TORSDOF 8
ENDMDL
MODEL 2
REMARK VINA RESULT:      -8.0      1.535      2.396
REMARK  Name = 
REMARK  8 active torsions:
REMARK  status: ('A' for Active; 'I' for Inactive)
REMARK    1  A    between atoms: C_2  and  O_3
REMARK    2  A    between atoms: C_2  and  C_4
REMARK    3  A    between atoms: C_4  and  C_5
REMARK    4  A    between atoms: C_9  and  O_10
REMARK    5  A    between atoms: O_10  and  C_11
REMARK    6  A    between atoms: C_17  and  N_18
REMARK    7  A    between atoms: N_18  and  S_19
REMARK    8  A    between atoms: S_19  and  C_22
REMARK                            x       y       z     vdW  Elec       q    Type
REMARK                         _______ _______ _______ _____ _____    ______ ____
ROOT
ATOM      1  C   UNL     1       2.495   6.518  18.753  0.00  0.00    +0.000 A 
ATOM      2  C   UNL     1       2.285   7.703  18.030  0.00  0.00    +0.000 A 
ATOM      3  C   UNL     1       1.736   8.824  18.650  0.00  0.00    +0.000 A 
ATOM      4  C   UNL     1       1.419   8.775  20.004  0.00  0.00    +0.000 A 
ATOM      5 CL   UNL     1       0.663  10.125  20.752  0.00  0.00    +0.000 Cl
ATOM      6  C   UNL     1       1.711   7.643  20.759  0.00  0.00    +0.000 A 
ATOM      7  C   UNL     1       2.279   6.519  20.153  0.00  0.00    +0.000 A 
ENDROOT
BRANCH   7   8
ATOM      8  N   UNL     1       2.588   5.426  21.039  0.00  0.00    +0.000 N 
ATOM      9  H   UNL     1       2.749   5.684  22.018  0.00  0.00    +0.000 HD
BRANCH   8  10
ATOM     10  S   UNL     1       1.660   4.001  20.993  0.00  0.00    +0.000 S 
ATOM     11  O   UNL     1       1.789   3.420  22.302  0.00  0.00    +0.000 OA
ATOM     12  O   UNL     1       0.359   4.322  20.447  0.00  0.00    +0.000 OA
BRANCH  10  13
ATOM     13  C   UNL     1       2.458   2.858  19.842  0.00  0.00    +0.000 A 
ATOM     14  C   UNL     1       1.861   2.558  18.611  0.00  0.00    +0.000 A 
ATOM     15  C   UNL     1       2.593   1.850  17.641  0.00  0.00    +0.000 A 
ATOM     16  C   UNL     1       3.910   1.464  17.886  0.00  0.00    +0.000 A 
ATOM     17  C   UNL     1       4.513   1.789  19.108  0.00  0.00    +0.000 A 
ATOM     18  C   UNL     1       3.791   2.486  20.082  0.00  0.00    +0.000 A 
ENDBRANCH  10  13
ENDBRANCH   8  10
ENDBRANCH   7   8
BRANCH   1  19
ATOM     19  O   UNL     1       2.935   5.373  18.116  0.00  0.00    +0.000 OA
BRANCH  19  24
ATOM     20  C   UNL     1       5.999   4.562  16.117  0.00  0.00    +0.000 A 
ATOM     21  C   UNL     1       6.958   4.777  17.121  0.00  0.00    +0.000 A 
ATOM     22  C   UNL     1       6.585   5.264  18.372  0.00  0.00    +0.000 A 
ATOM     23  C   UNL     1       5.234   5.507  18.656  0.00  0.00    +0.000 A 
ATOM     24  C   UNL     1       4.257   5.288  17.682  0.00  0.00    +0.000 A 
ATOM     25  C   UNL     1       4.643   4.842  16.403  0.00  0.00    +0.000 A 
BRANCH  20  26
ATOM     26  C   UNL     1       6.435   3.823  14.866  0.00  0.00    +0.000 C 
BRANCH  26  28
ATOM     27  O   UNL     1       7.822   5.606  14.031  0.00  0.00    +0.000 OA
ATOM     28  C   UNL     1       7.132   4.623  13.797  0.00  0.00    +0.000 C 
BRANCH  28  29
ATOM     29  O   UNL     1       6.883   4.204  12.537  0.00  0.00    +0.000 OA
ATOM     30  H   UNL     1       6.532   3.294  12.488  0.00  0.00    +0.000 HD
ENDBRANCH  28  29
ENDBRANCH  26  28
ENDBRANCH  20  26
ENDBRANCH  19  24
ENDBRANCH   1  19
TORSDOF 8
ENDMDL
MODEL 3
REMARK VINA RESULT:      -7.8      2.375      5.000
REMARK  Name = 
REMARK  8 active torsions:
REMARK  status: ('A' for Active; 'I' for Inactive)
REMARK    1  A    between atoms: C_2  and  O_3
REMARK    2  A    between atoms: C_2  and  C_4
REMARK    3  A    between atoms: C_4  and  C_5
REMARK    4  A    between atoms: C_9  and  O_10
REMARK    5  A    between atoms: O_10  and  C_11
REMARK    6  A    between atoms: C_17  and  N_18
REMARK    7  A    between atoms: N_18  and  S_19
REMARK    8  A    between atoms: S_19  and  C_22
REMARK                            x       y       z     vdW  Elec       q    Type
REMARK                         _______ _______ _______ _____ _____    ______ ____
ROOT
ATOM      1  C   UNL     1       2.801   3.445  17.638  0.00  0.00    +0.000 A 
ATOM      2  C   UNL     1       2.858   2.130  18.125  0.00  0.00    +0.000 A 
ATOM      3  C   UNL     1       2.364   1.821  19.392  0.00  0.00    +0.000 A 
ATOM      4  C   UNL     1       1.785   2.821  20.167  0.00  0.00    +0.000 A 
ATOM      5 CL   UNL     1       1.253   2.463  21.762  0.00  0.00    +0.000 Cl
ATOM      6  C   UNL     1       1.630   4.108  19.662  0.00  0.00    +0.000 A 
ATOM      7  C   UNL     1       2.105   4.426  18.386  0.00  0.00    +0.000 A 
ENDROOT
BRANCH   7   8
ATOM      8  N   UNL     1       1.843   5.772  17.945  0.00  0.00    +0.000 N 
ATOM      9  H   UNL     1       0.872   6.087  18.040  0.00  0.00    +0.000 HD
BRANCH   8  10
ATOM     10  S   UNL     1       2.878   7.039  18.410  0.00  0.00    +0.000 S 
ATOM     11  O   UNL     1       3.588   6.547  19.560  0.00  0.00    +0.000 OA
ATOM     12  O   UNL     1       3.590   7.500  17.238  0.00  0.00    +0.000 OA
BRANCH  10  13
ATOM     13  C   UNL     1       1.850   8.410  18.987  0.00  0.00    +0.000 A 
ATOM     14  C   UNL     1       1.413   8.460  20.317  0.00  0.00    +0.000 A 
ATOM     15  C   UNL     1       0.809   9.632  20.804  0.00  0.00    +0.000 A 
ATOM     16  C   UNL     1       0.660  10.749  19.983  0.00  0.00    +0.000 A 
ATOM     17  C   UNL     1       1.121  10.705  18.661  0.00  0.00    +0.000 A 
ATOM     18  C   UNL     1       1.717   9.541  18.165  0.00  0.00    +0.000 A 
ENDBRANCH  10  13
ENDBRANCH   8  10
ENDBRANCH   7   8
BRANCH   1  19
ATOM     19  O   UNL     1       3.387   3.775  16.431  0.00  0.00    +0.000 OA
BRANCH  19  24
ATOM     20  C   UNL     1       6.850   4.947  17.255  0.00  0.00    +0.000 A 
ATOM     21  C   UNL     1       7.403   4.863  15.966  0.00  0.00    +0.000 A 
ATOM     22  C   UNL     1       6.665   4.345  14.905  0.00  0.00    +0.000 A 
ATOM     23  C   UNL     1       5.340   3.936  15.106  0.00  0.00    +0.000 A 
ATOM     24  C   UNL     1       4.757   4.022  16.373  0.00  0.00    +0.000 A 
ATOM     25  C   UNL     1       5.523   4.501  17.454  0.00  0.00    +0.000 A 
BRANCH  20  26
ATOM     26  C   UNL     1       7.618   5.723  18.308  0.00  0.00    +0.000 C 
BRANCH  26  28
ATOM     27  O   UNL     1       7.210   7.826  17.207  0.00  0.00    +0.000 OA
ATOM     28  C   UNL     1       7.775   7.206  18.097  0.00  0.00    +0.000 C 
BRANCH  28  29
ATOM     29  O   UNL     1       8.650   7.798  18.940  0.00  0.00    +0.000 OA
ATOM     30  H   UNL     1       8.717   7.359  19.809  0.00  0.00    +0.000 HD
ENDBRANCH  28  29
ENDBRANCH  26  28
ENDBRANCH  20  26
ENDBRANCH  19  24
ENDBRANCH   1  19
TORSDOF 8
ENDMDL
MODEL 4
REMARK VINA RESULT:      -7.7      3.216      6.590
REMARK  Name = 
REMARK  8 active torsions:
REMARK  status: ('A' for Active; 'I' for Inactive)
REMARK    1  A    between atoms: C_2  and  O_3
REMARK    2  A    between atoms: C_2  and  C_4
REMARK    3  A    between atoms: C_4  and  C_5
REMARK    4  A    between atoms: C_9  and  O_10
REMARK    5  A    between atoms: O_10  and  C_11
REMARK    6  A    between atoms: C_17  and  N_18
REMARK    7  A    between atoms: N_18  and  S_19
REMARK    8  A    between atoms: S_19  and  C_22
REMARK                            x       y       z     vdW  Elec       q    Type
REMARK                         _______ _______ _______ _____ _____    ______ ____
ROOT
ATOM      1  C   UNL     1       2.460   5.448  19.529  0.00  0.00    +0.000 A 
ATOM      2  C   UNL     1       1.552   4.914  20.455  0.00  0.00    +0.000 A 
ATOM      3  C   UNL     1       0.891   3.715  20.188  0.00  0.00    +0.000 A 
ATOM      4  C   UNL     1       1.156   3.030  19.007  0.00  0.00    +0.000 A 
ATOM      5 CL   UNL     1       0.281   1.599  18.635  0.00  0.00    +0.000 Cl
ATOM      6  C   UNL     1       2.127   3.494  18.124  0.00  0.00    +0.000 A 
ATOM      7  C   UNL     1       2.810   4.685  18.388  0.00  0.00    +0.000 A 
ENDROOT
BRANCH   7   8
ATOM      8  N   UNL     1       3.829   5.040  17.434  0.00  0.00    +0.000 N 
ATOM      9  H   UNL     1       3.838   6.022  17.143  0.00  0.00    +0.000 HD
BRANCH   8  10
ATOM     10  S   UNL     1       5.432   4.522  17.666  0.00  0.00    +0.000 S 
ATOM     11  O   UNL     1       5.408   3.737  18.871  0.00  0.00    +0.000 OA
ATOM     12  O   UNL     1       5.915   3.960  16.423  0.00  0.00    +0.000 OA
BRANCH  10  13
ATOM     13  C   UNL     1       6.439   5.981  18.022  0.00  0.00    +0.000 A 
ATOM     14  C   UNL     1       7.485   5.912  18.951  0.00  0.00    +0.000 A 
ATOM     15  C   UNL     1       8.392   6.982  19.053  0.00  0.00    +0.000 A 
ATOM     16  C   UNL     1       8.273   8.096  18.223  0.00  0.00    +0.000 A 
ATOM     17  C   UNL     1       7.242   8.150  17.277  0.00  0.00    +0.000 A 
ATOM     18  C   UNL     1       6.329   7.095  17.174  0.00  0.00    +0.000 A 
ENDBRANCH  10  13
ENDBRANCH   8  10
ENDBRANCH   7   8
BRANCH   1  19
ATOM     19  O   UNL     1       3.033   6.688  19.740  0.00  0.00    +0.000 OA
BRANCH  19  24
ATOM     20  C   UNL     1       0.558   9.475  20.119  0.00  0.00    +0.000 A 
ATOM     21  C   UNL     1       0.530   9.904  18.782  0.00  0.00    +0.000 A 
ATOM     22  C   UNL     1       1.379   9.338  17.833  0.00  0.00    +0.000 A 
ATOM     23  C   UNL     1       2.247   8.300  18.198  0.00  0.00    +0.000 A 
ATOM     24  C   UNL     1       2.285   7.842  19.518  0.00  0.00    +0.000 A 
ATOM     25  C   UNL     1       1.461   8.450  20.485  0.00  0.00    +0.000 A 
BRANCH  20  26
ATOM     26  C   UNL     1      -0.538   9.967  21.045  0.00  0.00    +0.000 C 
BRANCH  26  28
ATOM     27  O   UNL     1       0.164  10.048  23.348  0.00  0.00    +0.000 OA
ATOM     28  C   UNL     1      -0.114  10.649  22.319  0.00  0.00    +0.000 C 
BRANCH  28  29
ATOM     29  O   UNL     1      -0.125  11.999  22.258  0.00  0.00    +0.000 OA
ATOM     30  H   UNL     1       0.034  12.433  23.119  0.00  0.00    +0.000 HD
ENDBRANCH  28  29
ENDBRANCH  26  28
ENDBRANCH  20  26
ENDBRANCH  19  24
ENDBRANCH   1  19
TORSDOF 8
ENDMDL
MODEL 5
REMARK VINA RESULT:      -7.6      2.598      5.039
REMARK  Name = 
REMARK  8 active torsions:
REMARK  status: ('A' for Active; 'I' for Inactive)
REMARK    1  A    between atoms: C_2  and  O_3
REMARK    2  A    between atoms: C_2  and  C_4
REMARK    3  A    between atoms: C_4  and  C_5
REMARK    4  A    between atoms: C_9  and  O_10
REMARK    5  A    between atoms: O_10  and  C_11
REMARK    6  A    between atoms: C_17  and  N_18
REMARK    7  A    between atoms: N_18  and  S_19
REMARK    8  A    between atoms: S_19  and  C_22
REMARK                            x       y       z     vdW  Elec       q    Type
REMARK                         _______ _______ _______ _____ _____    ______ ____
ROOT
ATOM      1  C   UNL     1       2.866   3.449  17.504  0.00  0.00    +0.000 A 
ATOM      2  C   UNL     1       2.926   2.133  17.986  0.00  0.00    +0.000 A 
ATOM      3  C   UNL     1       2.451   1.823  19.260  0.00  0.00    +0.000 A 
ATOM      4  C   UNL     1       1.887   2.822  20.046  0.00  0.00    +0.000 A 
ATOM      5 CL   UNL     1       1.379   2.461  21.648  0.00  0.00    +0.000 Cl
ATOM      6  C   UNL     1       1.729   4.111  19.547  0.00  0.00    +0.000 A 
ATOM      7  C   UNL     1       2.185   4.431  18.265  0.00  0.00    +0.000 A 
ENDROOT
BRANCH   7   8
ATOM      8  N   UNL     1       1.921   5.780  17.831  0.00  0.00    +0.000 N 
ATOM      9  H   UNL     1       0.943   6.077  17.888  0.00  0.00    +0.000 HD
BRANCH   8  10
ATOM     10  S   UNL     1       2.914   7.055  18.360  0.00  0.00    +0.000 S 
ATOM     11  O   UNL     1       3.602   6.548  19.516  0.00  0.00    +0.000 OA
ATOM     12  O   UNL     1       3.649   7.563  17.222  0.00  0.00    +0.000 OA
BRANCH  10  13
ATOM     13  C   UNL     1       1.840   8.387  18.943  0.00  0.00    +0.000 A 
ATOM     14  C   UNL     1       1.214   9.246  18.030  0.00  0.00    +0.000 A 
ATOM     15  C   UNL     1       0.216  10.128  18.482  0.00  0.00    +0.000 A 
ATOM     16  C   UNL     1      -0.170  10.138  19.822  0.00  0.00    +0.000 A 
ATOM     17  C   UNL     1       0.439   9.259  20.727  0.00  0.00    +0.000 A 
ATOM     18  C   UNL     1       1.439   8.384  20.289  0.00  0.00    +0.000 A 
ENDBRANCH  10  13
ENDBRANCH   8  10
ENDBRANCH   7   8
BRANCH   1  19
ATOM     19  O   UNL     1       3.436   3.781  16.289  0.00  0.00    +0.000 OA
BRANCH  19  24
ATOM     20  C   UNL     1       6.845   5.115  17.086  0.00  0.00    +0.000 A 
ATOM     21  C   UNL     1       7.397   5.044  15.796  0.00  0.00    +0.000 A 
ATOM     22  C   UNL     1       6.678   4.482  14.743  0.00  0.00    +0.000 A 
ATOM     23  C   UNL     1       5.373   4.017  14.953  0.00  0.00    +0.000 A 
ATOM     24  C   UNL     1       4.793   4.088  16.222  0.00  0.00    +0.000 A 
ATOM     25  C   UNL     1       5.540   4.612  17.295  0.00  0.00    +0.000 A 
BRANCH  20  26
ATOM     26  C   UNL     1       7.582   5.934  18.129  0.00  0.00    +0.000 C 
BRANCH  26  28
ATOM     27  O   UNL     1       6.504   5.210  20.158  0.00  0.00    +0.000 OA
ATOM     28  C   UNL     1       7.541   5.442  19.552  0.00  0.00    +0.000 C 
BRANCH  28  29
ATOM     29  O   UNL     1       8.754   5.335  20.138  0.00  0.00    +0.000 OA
ATOM     30  H   UNL     1       8.729   4.912  21.018  0.00  0.00    +0.000 HD
ENDBRANCH  28  29
ENDBRANCH  26  28
ENDBRANCH  20  26
ENDBRANCH  19  24
ENDBRANCH   1  19
TORSDOF 8
ENDMDL
MODEL 6
REMARK VINA RESULT:      -7.6      0.679      1.212
REMARK  Name = 
REMARK  8 active torsions:
REMARK  status: ('A' for Active; 'I' for Inactive)
REMARK    1  A    between atoms: C_2  and  O_3
REMARK    2  A    between atoms: C_2  and  C_4
REMARK    3  A    between atoms: C_4  and  C_5
REMARK    4  A    between atoms: C_9  and  O_10
REMARK    5  A    between atoms: O_10  and  C_11
REMARK    6  A    between atoms: C_17  and  N_18
REMARK    7  A    between atoms: N_18  and  S_19
REMARK    8  A    between atoms: S_19  and  C_22
REMARK                            x       y       z     vdW  Elec       q    Type
REMARK                         _______ _______ _______ _____ _____    ______ ____
ROOT
ATOM      1  C   UNL     1       2.518   6.764  18.445  0.00  0.00    +0.000 A 
ATOM      2  C   UNL     1       2.221   7.877  17.644  0.00  0.00    +0.000 A 
ATOM      3  C   UNL     1       1.606   9.002  18.194  0.00  0.00    +0.000 A 
ATOM      4  C   UNL     1       1.312   9.030  19.553  0.00  0.00    +0.000 A 
ATOM      5 CL   UNL     1       0.477  10.377  20.217  0.00  0.00    +0.000 Cl
ATOM      6  C   UNL     1       1.688   7.976  20.380  0.00  0.00    +0.000 A 
ATOM      7  C   UNL     1       2.322   6.850  19.845  0.00  0.00    +0.000 A 
ENDROOT
BRANCH   7   8
ATOM      8  N   UNL     1       2.715   5.847  20.801  0.00  0.00    +0.000 N 
ATOM      9  H   UNL     1       2.845   6.179  21.761  0.00  0.00    +0.000 HD
BRANCH   8  10
ATOM     10  S   UNL     1       1.911   4.349  20.843  0.00  0.00    +0.000 S 
ATOM     11  O   UNL     1       2.171   3.814  22.153  0.00  0.00    +0.000 OA
ATOM     12  O   UNL     1       0.555   4.545  20.376  0.00  0.00    +0.000 OA
BRANCH  10  13
ATOM     13  C   UNL     1       2.729   3.248  19.666  0.00  0.00    +0.000 A 
ATOM     14  C   UNL     1       3.980   2.691  19.965  0.00  0.00    +0.000 A 
ATOM     15  C   UNL     1       4.497   1.671  19.148  0.00  0.00    +0.000 A 
ATOM     16  C   UNL     1       3.769   1.195  18.058  0.00  0.00    +0.000 A 
ATOM     17  C   UNL     1       2.508   1.736  17.777  0.00  0.00    +0.000 A 
ATOM     18  C   UNL     1       1.987   2.757  18.579  0.00  0.00    +0.000 A 
ENDBRANCH  10  13
ENDBRANCH   8  10
ENDBRANCH   7   8
BRANCH   1  19
ATOM     19  O   UNL     1       3.025   5.608  17.883  0.00  0.00    +0.000 OA
BRANCH  19  24
ATOM     20  C   UNL     1       6.568   6.564  17.124  0.00  0.00    +0.000 A 
ATOM     21  C   UNL     1       6.859   5.546  16.201  0.00  0.00    +0.000 A 
ATOM     22  C   UNL     1       5.932   4.541  15.932  0.00  0.00    +0.000 A 
ATOM     23  C   UNL     1       4.677   4.558  16.554  0.00  0.00    +0.000 A 
ATOM     24  C   UNL     1       4.354   5.567  17.466  0.00  0.00    +0.000 A 
ATOM     25  C   UNL     1       5.311   6.554  17.772  0.00  0.00    +0.000 A 
BRANCH  20  26
ATOM     26  C   UNL     1       7.518   7.743  17.202  0.00  0.00    +0.000 C 
BRANCH  26  28
ATOM     27  O   UNL     1       8.788   8.989  18.827  0.00  0.00    +0.000 OA
ATOM     28  C   UNL     1       8.293   7.925  18.481  0.00  0.00    +0.000 C 
BRANCH  28  29
ATOM     29  O   UNL     1       8.457   6.791  19.199  0.00  0.00    +0.000 OA
ATOM     30  H   UNL     1       9.277   6.778  19.729  0.00  0.00    +0.000 HD
ENDBRANCH  28  29
ENDBRANCH  26  28
ENDBRANCH  20  26
ENDBRANCH  19  24
ENDBRANCH   1  19
TORSDOF 8
ENDMDL
MODEL 7
REMARK VINA RESULT:      -7.6      3.702      5.202
REMARK  Name = 
REMARK  8 active torsions:
REMARK  status: ('A' for Active; 'I' for Inactive)
REMARK    1  A    between atoms: C_2  and  O_3
REMARK    2  A    between atoms: C_2  and  C_4
REMARK    3  A    between atoms: C_4  and  C_5
REMARK    4  A    between atoms: C_9  and  O_10
REMARK    5  A    between atoms: O_10  and  C_11
REMARK    6  A    between atoms: C_17  and  N_18
REMARK    7  A    between atoms: N_18  and  S_19
REMARK    8  A    between atoms: S_19  and  C_22
REMARK                            x       y       z     vdW  Elec       q    Type
REMARK                         _______ _______ _______ _____ _____    ______ ____
ROOT
ATOM      1  C   UNL     1       5.397   4.920  16.969  0.00  0.00    +0.000 A 
ATOM      2  C   UNL     1       4.965   6.130  16.404  0.00  0.00    +0.000 A 
ATOM      3  C   UNL     1       4.038   6.931  17.070  0.00  0.00    +0.000 A 
ATOM      4  C   UNL     1       3.560   6.541  18.317  0.00  0.00    +0.000 A 
ATOM      5 CL   UNL     1       2.354   7.482  19.100  0.00  0.00    +0.000 Cl
ATOM      6  C   UNL     1       4.052   5.396  18.936  0.00  0.00    +0.000 A 
ATOM      7  C   UNL     1       4.995   4.593  18.288  0.00  0.00    +0.000 A 
ENDROOT
BRANCH   7   8
ATOM      8  N   UNL     1       5.473   3.463  19.044  0.00  0.00    +0.000 N 
ATOM      9  H   UNL     1       5.800   3.674  19.991  0.00  0.00    +0.000 HD
BRANCH   8  10
ATOM     10  S   UNL     1       4.572   2.021  19.083  0.00  0.00    +0.000 S 
ATOM     11  O   UNL     1       4.433   1.622  17.708  0.00  0.00    +0.000 OA
ATOM     12  O   UNL     1       5.173   1.135  20.056  0.00  0.00    +0.000 OA
BRANCH  10  13
ATOM     13  C   UNL     1       2.912   2.421  19.674  0.00  0.00    +0.000 A 
ATOM     14  C   UNL     1       2.712   2.863  20.988  0.00  0.00    +0.000 A 
ATOM     15  C   UNL     1       1.459   3.378  21.363  0.00  0.00    +0.000 A 
ATOM     16  C   UNL     1       0.423   3.473  20.434  0.00  0.00    +0.000 A 
ATOM     17  C   UNL     1       0.634   3.055  19.114  0.00  0.00    +0.000 A 
ATOM     18  C   UNL     1       1.874   2.533  18.733  0.00  0.00    +0.000 A 
ENDBRANCH  10  13
ENDBRANCH   8  10
ENDBRANCH   7   8
BRANCH   1  19
ATOM     19  O   UNL     1       6.230   4.072  16.265  0.00  0.00    +0.000 OA
BRANCH  19  24
ATOM     20  C   UNL     1       5.973   3.464  12.576  0.00  0.00    +0.000 A 
ATOM     21  C   UNL     1       7.010   4.315  12.159  0.00  0.00    +0.000 A 
ATOM     22  C   UNL     1       7.686   5.119  13.074  0.00  0.00    +0.000 A 
ATOM     23  C   UNL     1       7.363   5.055  14.436  0.00  0.00    +0.000 A 
ATOM     24  C   UNL     1       6.347   4.207  14.883  0.00  0.00    +0.000 A 
ATOM     25  C   UNL     1       5.633   3.432  13.948  0.00  0.00    +0.000 A 
BRANCH  20  26
ATOM     26  C   UNL     1       5.436   2.458  11.577  0.00  0.00    +0.000 C 
BRANCH  26  28
ATOM     27  O   UNL     1       5.875   0.116  11.219  0.00  0.00    +0.000 OA
ATOM     28  C   UNL     1       6.299   1.263  11.265  0.00  0.00    +0.000 C 
BRANCH  28  29
ATOM     29  O   UNL     1       7.609   1.551  11.098  0.00  0.00    +0.000 OA
ATOM     30  H   UNL     1       8.209   0.874  11.466  0.00  0.00    +0.000 HD
ENDBRANCH  28  29
ENDBRANCH  26  28
ENDBRANCH  20  26
ENDBRANCH  19  24
ENDBRANCH   1  19
TORSDOF 8
ENDMDL
MODEL 8
REMARK VINA RESULT:      -7.6      3.302      6.530
REMARK  Name = 
REMARK  8 active torsions:
REMARK  status: ('A' for Active; 'I' for Inactive)
REMARK    1  A    between atoms: C_2  and  O_3
REMARK    2  A    between atoms: C_2  and  C_4
REMARK    3  A    between atoms: C_4  and  C_5
REMARK    4  A    between atoms: C_9  and  O_10
REMARK    5  A    between atoms: O_10  and  C_11
REMARK    6  A    between atoms: C_17  and  N_18
REMARK    7  A    between atoms: N_18  and  S_19
REMARK    8  A    between atoms: S_19  and  C_22
REMARK                            x       y       z     vdW  Elec       q    Type
REMARK                         _______ _______ _______ _____ _____    ______ ____
ROOT
ATOM      1  C   UNL     1       2.404   5.594  19.502  0.00  0.00    +0.000 A 
ATOM      2  C   UNL     1       1.555   5.043  20.474  0.00  0.00    +0.000 A 
ATOM      3  C   UNL     1       0.907   3.830  20.243  0.00  0.00    +0.000 A 
ATOM      4  C   UNL     1       1.128   3.147  19.051  0.00  0.00    +0.000 A 
ATOM      5 CL   UNL     1       0.266   1.696  18.727  0.00  0.00    +0.000 Cl
ATOM      6  C   UNL     1       2.042   3.629  18.119  0.00  0.00    +0.000 A 
ATOM      7  C   UNL     1       2.712   4.835  18.345  0.00  0.00    +0.000 A 
ENDROOT
BRANCH   7   8
ATOM      8  N   UNL     1       3.673   5.210  17.340  0.00  0.00    +0.000 N 
ATOM      9  H   UNL     1       3.829   6.216  17.232  0.00  0.00    +0.000 HD
BRANCH   8  10
ATOM     10  S   UNL     1       5.172   4.410  17.254  0.00  0.00    +0.000 S 
ATOM     11  O   UNL     1       5.181   3.499  18.367  0.00  0.00    +0.000 OA
ATOM     12  O   UNL     1       5.357   3.933  15.901  0.00  0.00    +0.000 OA
BRANCH  10  13
ATOM     13  C   UNL     1       6.468   5.628  17.576  0.00  0.00    +0.000 A 
ATOM     14  C   UNL     1       6.449   6.873  16.933  0.00  0.00    +0.000 A 
ATOM     15  C   UNL     1       7.329   7.884  17.356  0.00  0.00    +0.000 A 
ATOM     16  C   UNL     1       8.203   7.667  18.421  0.00  0.00    +0.000 A 
ATOM     17  C   UNL     1       8.201   6.430  19.079  0.00  0.00    +0.000 A 
ATOM     18  C   UNL     1       7.335   5.415  18.660  0.00  0.00    +0.000 A 
ENDBRANCH  10  13
ENDBRANCH   8  10
ENDBRANCH   7   8
BRANCH   1  19
ATOM     19  O   UNL     1       2.959   6.847  19.681  0.00  0.00    +0.000 OA
BRANCH  19  24
ATOM     20  C   UNL     1       0.457   9.584  20.216  0.00  0.00    +0.000 A 
ATOM     21  C   UNL     1       0.329  10.004  18.881  0.00  0.00    +0.000 A 
ATOM     22  C   UNL     1       1.122   9.449  17.879  0.00  0.00    +0.000 A 
ATOM     23  C   UNL     1       2.034   8.432  18.189  0.00  0.00    +0.000 A 
ATOM     24  C   UNL     1       2.173   7.984  19.504  0.00  0.00    +0.000 A 
ATOM     25  C   UNL     1       1.405   8.580  20.523  0.00  0.00    +0.000 A 
BRANCH  20  26
ATOM     26  C   UNL     1      -0.583  10.059  21.212  0.00  0.00    +0.000 C 
BRANCH  26  28
ATOM     27  O   UNL     1      -0.681  11.363  23.235  0.00  0.00    +0.000 OA
ATOM     28  C   UNL     1      -0.201  11.197  22.122  0.00  0.00    +0.000 C 
BRANCH  28  29
ATOM     29  O   UNL     1       0.678  12.070  21.583  0.00  0.00    +0.000 OA
ATOM     30  H   UNL     1       0.260  12.870  21.210  0.00  0.00    +0.000 HD
ENDBRANCH  28  29
ENDBRANCH  26  28
ENDBRANCH  20  26
ENDBRANCH  19  24
ENDBRANCH   1  19
TORSDOF 8
ENDMDL
MODEL 9
REMARK VINA RESULT:      -7.5      3.429      6.564
REMARK  Name = 
REMARK  8 active torsions:
REMARK  status: ('A' for Active; 'I' for Inactive)
REMARK    1  A    between atoms: C_2  and  O_3
REMARK    2  A    between atoms: C_2  and  C_4
REMARK    3  A    between atoms: C_4  and  C_5
REMARK    4  A    between atoms: C_9  and  O_10
REMARK    5  A    between atoms: O_10  and  C_11
REMARK    6  A    between atoms: C_17  and  N_18
REMARK    7  A    between atoms: N_18  and  S_19
REMARK    8  A    between atoms: S_19  and  C_22
REMARK                            x       y       z     vdW  Elec       q    Type
REMARK                         _______ _______ _______ _____ _____    ______ ____
ROOT
ATOM      1  C   UNL     1       3.325   5.660  18.320  0.00  0.00    +0.000 A 
ATOM      2  C   UNL     1       2.204   4.875  18.012  0.00  0.00    +0.000 A 
ATOM      3  C   UNL     1       2.284   3.483  18.046  0.00  0.00    +0.000 A 
ATOM      4  C   UNL     1       3.477   2.870  18.415  0.00  0.00    +0.000 A 
ATOM      5 CL   UNL     1       3.604   1.157  18.375  0.00  0.00    +0.000 Cl
ATOM      6  C   UNL     1       4.569   3.633  18.818  0.00  0.00    +0.000 A 
ATOM      7  C   UNL     1       4.497   5.029  18.807  0.00  0.00    +0.000 A 
ENDROOT
BRANCH   7   8
ATOM      8  N   UNL     1       5.665   5.715  19.295  0.00  0.00    +0.000 N 
ATOM      9  H   UNL     1       5.911   5.528  20.272  0.00  0.00    +0.000 HD
BRANCH   8  10
ATOM     10  S   UNL     1       7.090   5.739  18.367  0.00  0.00    +0.000 S 
ATOM     11  O   UNL     1       7.522   7.111  18.367  0.00  0.00    +0.000 OA
ATOM     12  O   UNL     1       7.962   4.686  18.841  0.00  0.00    +0.000 OA
BRANCH  10  13
ATOM     13  C   UNL     1       6.646   5.339  16.661  0.00  0.00    +0.000 A 
ATOM     14  C   UNL     1       6.908   4.066  16.138  0.00  0.00    +0.000 A 
ATOM     15  C   UNL     1       6.361   3.703  14.895  0.00  0.00    +0.000 A 
ATOM     16  C   UNL     1       5.544   4.587  14.191  0.00  0.00    +0.000 A 
ATOM     17  C   UNL     1       5.263   5.849  14.729  0.00  0.00    +0.000 A 
ATOM     18  C   UNL     1       5.810   6.224  15.961  0.00  0.00    +0.000 A 
ENDBRANCH  10  13
ENDBRANCH   8  10
ENDBRANCH   7   8
BRANCH   1  19
ATOM     19  O   UNL     1       3.281   7.035  18.181  0.00  0.00    +0.000 OA
BRANCH  19  24
ATOM     20  C   UNL     1       0.901   9.749  19.183  0.00  0.00    +0.000 A 
ATOM     21  C   UNL     1       0.686   9.348  20.513  0.00  0.00    +0.000 A 
ATOM     22  C   UNL     1       1.244   8.169  21.001  0.00  0.00    +0.000 A 
ATOM     23  C   UNL     1       2.064   7.386  20.178  0.00  0.00    +0.000 A 
ATOM     24  C   UNL     1       2.308   7.768  18.856  0.00  0.00    +0.000 A 
ATOM     25  C   UNL     1       1.702   8.935  18.350  0.00  0.00    +0.000 A 
BRANCH  20  26
ATOM     26  C   UNL     1       0.458  11.143  18.782  0.00  0.00    +0.000 C 
BRANCH  26  28
ATOM     27  O   UNL     1      -1.761  12.080  18.773  0.00  0.00    +0.000 OA
ATOM     28  C   UNL     1      -0.953  11.304  18.281  0.00  0.00    +0.000 C 
BRANCH  28  29
ATOM     29  O   UNL     1      -1.284  10.469  17.271  0.00  0.00    +0.000 OA
ATOM     30  H   UNL     1      -1.847  10.882  16.588  0.00  0.00    +0.000 HD
ENDBRANCH  28  29
ENDBRANCH  26  28
ENDBRANCH  20  26
ENDBRANCH  19  24
ENDBRANCH   1  19
TORSDOF 8
ENDMDL
