MODEL 1
REMARK VINA RESULT:      -7.5      0.000      0.000
REMARK  Name = 
REMARK  9 active torsions:
REMARK  status: ('A' for Active; 'I' for Inactive)
REMARK    1  A    between atoms: C_1  and  O_2
REMARK    2  A    between atoms: O_2  and  C_3
REMARK    3  A    between atoms: C_8  and  O_9
REMARK    4  A    between atoms: O_9  and  C_10
REMARK    5  A    between atoms: N_13  and  C_14
REMARK    6  A    between atoms: C_14  and  C_15
REMARK    7  A    between atoms: C_15  and  N_16
REMARK    8  A    between atoms: C_22  and  O_23
REMARK    9  A    between atoms: O_23  and  C_24
REMARK                            x       y       z     vdW  Elec       q    Type
REMARK                         _______ _______ _______ _____ _____    ______ ____
ROOT
ATOM      1  C   UNL     1       2.621   7.007  18.574  0.00  0.00    +0.000 C 
ENDROOT
BRANCH   1  10
ATOM      2  C   UNL     1      -0.783  12.167  20.691  0.00  0.00    +0.000 A 
ATOM      3  C   UNL     1      -0.561  10.899  21.261  0.00  0.00    +0.000 A 
ATOM      4  C   UNL     1       0.226   9.941  20.611  0.00  0.00    +0.000 A 
ATOM      5  C   UNL     1       0.792  10.256  19.370  0.00  0.00    +0.000 A 
ATOM      6  C   UNL     1       0.576  11.521  18.798  0.00  0.00    +0.000 A 
ATOM      7  C   UNL     1      -0.203  12.485  19.450  0.00  0.00    +0.000 A 
ATOM      8  C   UNL     1       1.593   9.250  18.618  0.00  0.00    +0.000 C 
ATOM      9  O   UNL     1       1.932   9.481  17.462  0.00  0.00    +0.000 OA
ATOM     10  N   UNL     1       1.887   8.059  19.280  0.00  0.00    +0.000 N 
ATOM     11  C   UNL     1       1.743   7.976  20.728  0.00  0.00    +0.000 C 
ATOM     12  C   UNL     1       0.410   8.564  21.184  0.00  0.00    +0.000 C 
BRANCH   2  14
ATOM     13  C   UNL     1      -1.134  13.115  22.854  0.00  0.00    +0.000 C 
ATOM     14  O   UNL     1      -1.536  12.984  21.496  0.00  0.00    +0.000 OA
ENDBRANCH   2  14
BRANCH   7  15
ATOM     15  O   UNL     1      -0.411  13.741  18.941  0.00  0.00    +0.000 OA
ATOM     16  C   UNL     1       0.596  14.724  19.157  0.00  0.00    +0.000 C 
ENDBRANCH   7  15
ENDBRANCH   1  10
BRANCH   1  17
ATOM     17  C   UNL     1       1.726   6.019  17.791  0.00  0.00    +0.000 C 
BRANCH  17  18
ATOM     18  N   UNL     1       1.791   4.628  18.296  0.00  0.00    +0.000 NA
ATOM     19  C   UNL     1       2.758   4.509  19.410  0.00  0.00    +0.000 C 
ATOM     20  C   UNL     1       3.535   3.214  19.149  0.00  0.00    +0.000 C 
ATOM     21  C   UNL     1       4.909   3.102  19.781  0.00  0.00    +0.000 C 
ATOM     22  C   UNL     1       5.862   4.198  19.315  0.00  0.00    +0.000 C 
ATOM     23  C   UNL     1       5.807   4.513  17.840  0.00  0.00    +0.000 A 
ATOM     24  C   UNL     1       6.796   5.311  17.224  0.00  0.00    +0.000 A 
ATOM     25  C   UNL     1       6.755   5.539  15.842  0.00  0.00    +0.000 A 
ATOM     26  C   UNL     1       5.749   4.988  15.057  0.00  0.00    +0.000 A 
ATOM     27  C   UNL     1       4.764   4.214  15.653  0.00  0.00    +0.000 A 
ATOM     28  C   UNL     1       4.750   4.000  17.043  0.00  0.00    +0.000 A 
ATOM     29  C   UNL     1       3.619   3.163  17.630  0.00  0.00    +0.000 C 
ATOM     30  C   UNL     1       2.213   3.655  17.264  0.00  0.00    +0.000 C 
BRANCH  24  31
ATOM     31  O   UNL     1       7.925   5.814  17.818  0.00  0.00    +0.000 OA
ATOM     32  C   UNL     1       7.901   7.179  18.214  0.00  0.00    +0.000 C 
ENDBRANCH  24  31
ENDBRANCH  17  18
ENDBRANCH   1  17
TORSDOF 6
ENDMDL
MODEL 2
REMARK VINA RESULT:      -7.5      1.150      2.086
REMARK  Name = 
REMARK  9 active torsions:
REMARK  status: ('A' for Active; 'I' for Inactive)
REMARK    1  A    between atoms: C_1  and  O_2
REMARK    2  A    between atoms: O_2  and  C_3
REMARK    3  A    between atoms: C_8  and  O_9
REMARK    4  A    between atoms: O_9  and  C_10
REMARK    5  A    between atoms: N_13  and  C_14
REMARK    6  A    between atoms: C_14  and  C_15
REMARK    7  A    between atoms: C_15  and  N_16
REMARK    8  A    between atoms: C_22  and  O_23
REMARK    9  A    between atoms: O_23  and  C_24
REMARK                            x       y       z     vdW  Elec       q    Type
REMARK                         _______ _______ _______ _____ _____    ______ ____
ROOT
ATOM      1  C   UNL     1       2.588   6.893  18.556  0.00  0.00    +0.000 C 
ENDROOT
BRANCH   1  10
ATOM      2  C   UNL     1      -0.059  12.247  21.208  0.00  0.00    +0.000 A 
ATOM      3  C   UNL     1       0.606  12.043  19.983  0.00  0.00    +0.000 A 
ATOM      4  C   UNL     1       1.088  10.780  19.622  0.00  0.00    +0.000 A 
ATOM      5  C   UNL     1       0.908   9.707  20.503  0.00  0.00    +0.000 A 
ATOM      6  C   UNL     1       0.243   9.904  21.725  0.00  0.00    +0.000 A 
ATOM      7  C   UNL     1      -0.249  11.165  22.086  0.00  0.00    +0.000 A 
ATOM      8  C   UNL     1       1.450   8.357  20.185  0.00  0.00    +0.000 C 
ATOM      9  O   UNL     1       1.437   7.477  21.039  0.00  0.00    +0.000 OA
ATOM     10  N   UNL     1       1.987   8.180  18.910  0.00  0.00    +0.000 N 
ATOM     11  C   UNL     1       1.686   9.138  17.855  0.00  0.00    +0.000 C 
ATOM     12  C   UNL     1       1.857  10.573  18.347  0.00  0.00    +0.000 C 
BRANCH   2  14
ATOM     13  C   UNL     1       0.484  14.545  21.559  0.00  0.00    +0.000 C 
ATOM     14  O   UNL     1      -0.500  13.536  21.362  0.00  0.00    +0.000 OA
ENDBRANCH   2  14
BRANCH   7  15
ATOM     15  O   UNL     1      -0.931  11.391  23.253  0.00  0.00    +0.000 OA
ATOM     16  C   UNL     1      -2.312  11.728  23.165  0.00  0.00    +0.000 C 
ENDBRANCH   7  15
ENDBRANCH   1  10
BRANCH   1  17
ATOM     17  C   UNL     1       1.633   5.920  17.826  0.00  0.00    +0.000 C 
BRANCH  17  18
ATOM     18  N   UNL     1       1.712   4.526  18.318  0.00  0.00    +0.000 NA
ATOM     19  C   UNL     1       2.676   4.407  19.435  0.00  0.00    +0.000 C 
ATOM     20  C   UNL     1       3.470   3.125  19.165  0.00  0.00    +0.000 C 
ATOM     21  C   UNL     1       4.843   3.023  19.802  0.00  0.00    +0.000 C 
ATOM     22  C   UNL     1       5.784   4.135  19.351  0.00  0.00    +0.000 C 
ATOM     23  C   UNL     1       5.731   4.464  17.878  0.00  0.00    +0.000 A 
ATOM     24  C   UNL     1       6.713   5.280  17.275  0.00  0.00    +0.000 A 
ATOM     25  C   UNL     1       6.675   5.521  15.895  0.00  0.00    +0.000 A 
ATOM     26  C   UNL     1       5.680   4.966  15.101  0.00  0.00    +0.000 A 
ATOM     27  C   UNL     1       4.701   4.174  15.684  0.00  0.00    +0.000 A 
ATOM     28  C   UNL     1       4.684   3.946  17.072  0.00  0.00    +0.000 A 
ATOM     29  C   UNL     1       3.561   3.090  17.645  0.00  0.00    +0.000 C 
ATOM     30  C   UNL     1       2.151   3.568  17.279  0.00  0.00    +0.000 C 
BRANCH  24  31
ATOM     31  O   UNL     1       7.833   5.791  17.879  0.00  0.00    +0.000 OA
ATOM     32  C   UNL     1       7.879   7.196  18.088  0.00  0.00    +0.000 C 
ENDBRANCH  24  31
ENDBRANCH  17  18
ENDBRANCH   1  17
TORSDOF 6
ENDMDL
MODEL 3
REMARK VINA RESULT:      -7.4      1.679      2.184
REMARK  Name = 
REMARK  9 active torsions:
REMARK  status: ('A' for Active; 'I' for Inactive)
REMARK    1  A    between atoms: C_1  and  O_2
REMARK    2  A    between atoms: O_2  and  C_3
REMARK    3  A    between atoms: C_8  and  O_9
REMARK    4  A    between atoms: O_9  and  C_10
REMARK    5  A    between atoms: N_13  and  C_14
REMARK    6  A    between atoms: C_14  and  C_15
REMARK    7  A    between atoms: C_15  and  N_16
REMARK    8  A    between atoms: C_22  and  O_23
REMARK    9  A    between atoms: O_23  and  C_24
REMARK                            x       y       z     vdW  Elec       q    Type
REMARK                         _______ _______ _______ _____ _____    ______ ____
ROOT
ATOM      1  C   UNL     1       1.645   8.347  19.529  0.00  0.00    +0.000 C 
ENDROOT
BRANCH   1  10
ATOM      2  C   UNL     1      -2.227  12.460  22.815  0.00  0.00    +0.000 A 
ATOM      3  C   UNL     1      -1.504  11.325  23.232  0.00  0.00    +0.000 A 
ATOM      4  C   UNL     1      -0.722  10.594  22.330  0.00  0.00    +0.000 A 
ATOM      5  C   UNL     1      -0.670  11.000  20.992  0.00  0.00    +0.000 A 
ATOM      6  C   UNL     1      -1.387  12.133  20.571  0.00  0.00    +0.000 A 
ATOM      7  C   UNL     1      -2.163  12.873  21.472  0.00  0.00    +0.000 A 
ATOM      8  C   UNL     1       0.107  10.222  19.986  0.00  0.00    +0.000 C 
ATOM      9  O   UNL     1       0.002  10.489  18.794  0.00  0.00    +0.000 OA
ATOM     10  N   UNL     1       0.903   9.186  20.473  0.00  0.00    +0.000 N 
ATOM     11  C   UNL     1       1.234   9.126  21.890  0.00  0.00    +0.000 C 
ATOM     12  C   UNL     1      -0.004   9.344  22.756  0.00  0.00    +0.000 C 
BRANCH   2  14
ATOM     13  C   UNL     1      -4.181  12.569  24.182  0.00  0.00    +0.000 C 
ATOM     14  O   UNL     1      -2.892  13.071  23.846  0.00  0.00    +0.000 OA
ENDBRANCH   2  14
BRANCH   7  15
ATOM     15  O   UNL     1      -2.851  14.001  21.109  0.00  0.00    +0.000 OA
ATOM     16  C   UNL     1      -2.098  15.145  20.719  0.00  0.00    +0.000 C 
ENDBRANCH   7  15
ENDBRANCH   1  10
BRANCH   1  17
ATOM     17  C   UNL     1       2.251   7.068  20.150  0.00  0.00    +0.000 C 
BRANCH  17  18
ATOM     18  N   UNL     1       1.736   5.814  19.554  0.00  0.00    +0.000 NA
ATOM     19  C   UNL     1       2.457   4.635  20.085  0.00  0.00    +0.000 C 
ATOM     20  C   UNL     1       2.722   3.731  18.876  0.00  0.00    +0.000 C 
ATOM     21  C   UNL     1       3.875   2.752  18.994  0.00  0.00    +0.000 C 
ATOM     22  C   UNL     1       5.212   3.446  19.228  0.00  0.00    +0.000 C 
ATOM     23  C   UNL     1       5.446   4.689  18.405  0.00  0.00    +0.000 A 
ATOM     24  C   UNL     1       6.724   5.285  18.324  0.00  0.00    +0.000 A 
ATOM     25  C   UNL     1       6.927   6.403  17.504  0.00  0.00    +0.000 A 
ATOM     26  C   UNL     1       5.885   6.941  16.760  0.00  0.00    +0.000 A 
ATOM     27  C   UNL     1       4.621   6.373  16.841  0.00  0.00    +0.000 A 
ATOM     28  C   UNL     1       4.371   5.277  17.686  0.00  0.00    +0.000 A 
ATOM     29  C   UNL     1       2.952   4.725  17.746  0.00  0.00    +0.000 C 
ATOM     30  C   UNL     1       1.881   5.770  18.082  0.00  0.00    +0.000 C 
BRANCH  24  31
ATOM     31  O   UNL     1       7.884   4.807  18.877  0.00  0.00    +0.000 OA
ATOM     32  C   UNL     1       8.340   5.424  20.073  0.00  0.00    +0.000 C 
ENDBRANCH  24  31
ENDBRANCH  17  18
ENDBRANCH   1  17
TORSDOF 6
ENDMDL
MODEL 4
REMARK VINA RESULT:      -7.3      1.410      1.635
REMARK  Name = 
REMARK  9 active torsions:
REMARK  status: ('A' for Active; 'I' for Inactive)
REMARK    1  A    between atoms: C_1  and  O_2
REMARK    2  A    between atoms: O_2  and  C_3
REMARK    3  A    between atoms: C_8  and  O_9
REMARK    4  A    between atoms: O_9  and  C_10
REMARK    5  A    between atoms: N_13  and  C_14
REMARK    6  A    between atoms: C_14  and  C_15
REMARK    7  A    between atoms: C_15  and  N_16
REMARK    8  A    between atoms: C_22  and  O_23
REMARK    9  A    between atoms: O_23  and  C_24
REMARK                            x       y       z     vdW  Elec       q    Type
REMARK                         _______ _______ _______ _____ _____    ______ ____
ROOT
ATOM      1  C   UNL     1       1.910   7.215  19.961  0.00  0.00    +0.000 C 
ENDROOT
BRANCH   1  10
ATOM      2  C   UNL     1      -0.953  12.900  21.441  0.00  0.00    +0.000 A 
ATOM      3  C   UNL     1      -0.662  11.769  22.228  0.00  0.00    +0.000 A 
ATOM      4  C   UNL     1      -0.023  10.650  21.680  0.00  0.00    +0.000 A 
ATOM      5  C   UNL     1       0.322  10.662  20.324  0.00  0.00    +0.000 A 
ATOM      6  C   UNL     1       0.038  11.789  19.535  0.00  0.00    +0.000 A 
ATOM      7  C   UNL     1      -0.593  12.914  20.081  0.00  0.00    +0.000 A 
ATOM      8  C   UNL     1       0.956   9.474  19.686  0.00  0.00    +0.000 C 
ATOM      9  O   UNL     1       1.092   9.435  18.468  0.00  0.00    +0.000 OA
ATOM     10  N   UNL     1       1.335   8.434  20.534  0.00  0.00    +0.000 N 
ATOM     11  C   UNL     1       1.446   8.667  21.967  0.00  0.00    +0.000 C 
ATOM     12  C   UNL     1       0.227   9.416  22.501  0.00  0.00    +0.000 C 
BRANCH   2  14
ATOM     13  C   UNL     1      -0.670  14.770  22.898  0.00  0.00    +0.000 C 
ATOM     14  O   UNL     1      -1.534  13.911  22.162  0.00  0.00    +0.000 OA
ENDBRANCH   2  14
BRANCH   7  15
ATOM     15  O   UNL     1      -0.859  14.044  19.353  0.00  0.00    +0.000 OA
ATOM     16  C   UNL     1       0.202  14.970  19.147  0.00  0.00    +0.000 C 
ENDBRANCH   7  15
ENDBRANCH   1  10
BRANCH   1  17
ATOM     17  C   UNL     1       1.755   5.957  20.847  0.00  0.00    +0.000 C 
BRANCH  17  18
ATOM     18  N   UNL     1       1.320   4.754  20.102  0.00  0.00    +0.000 NA
ATOM     19  C   UNL     1       2.211   3.604  20.378  0.00  0.00    +0.000 C 
ATOM     20  C   UNL     1       2.448   2.929  19.023  0.00  0.00    +0.000 C 
ATOM     21  C   UNL     1       3.705   2.090  18.887  0.00  0.00    +0.000 C 
ATOM     22  C   UNL     1       4.978   2.897  19.119  0.00  0.00    +0.000 C 
ATOM     23  C   UNL     1       4.995   4.268  18.488  0.00  0.00    +0.000 A 
ATOM     24  C   UNL     1       6.187   5.019  18.398  0.00  0.00    +0.000 A 
ATOM     25  C   UNL     1       6.187   6.263  17.753  0.00  0.00    +0.000 A 
ATOM     26  C   UNL     1       5.025   6.776  17.193  0.00  0.00    +0.000 A 
ATOM     27  C   UNL     1       3.844   6.055  17.286  0.00  0.00    +0.000 A 
ATOM     28  C   UNL     1       3.797   4.822  17.963  0.00  0.00    +0.000 A 
ATOM     29  C   UNL     1       2.458   4.100  18.051  0.00  0.00    +0.000 C 
ATOM     30  C   UNL     1       1.320   4.947  18.635  0.00  0.00    +0.000 C 
BRANCH  24  31
ATOM     31  O   UNL     1       7.441   4.607  18.772  0.00  0.00    +0.000 OA
ATOM     32  C   UNL     1       8.257   5.542  19.462  0.00  0.00    +0.000 C 
ENDBRANCH  24  31
ENDBRANCH  17  18
ENDBRANCH   1  17
TORSDOF 6
ENDMDL
MODEL 5
REMARK VINA RESULT:      -7.2      1.382      2.261
REMARK  Name = 
REMARK  9 active torsions:
REMARK  status: ('A' for Active; 'I' for Inactive)
REMARK    1  A    between atoms: C_1  and  O_2
REMARK    2  A    between atoms: O_2  and  C_3
REMARK    3  A    between atoms: C_8  and  O_9
REMARK    4  A    between atoms: O_9  and  C_10
REMARK    5  A    between atoms: N_13  and  C_14
REMARK    6  A    between atoms: C_14  and  C_15
REMARK    7  A    between atoms: C_15  and  N_16
REMARK    8  A    between atoms: C_22  and  O_23
REMARK    9  A    between atoms: O_23  and  C_24
REMARK                            x       y       z     vdW  Elec       q    Type
REMARK                         _______ _______ _______ _____ _____    ______ ____
ROOT
ATOM      1  C   UNL     1       2.245   7.367  19.651  0.00  0.00    +0.000 C 
ENDROOT
BRANCH   1  10
ATOM      2  C   UNL     1      -0.695  13.006  21.153  0.00  0.00    +0.000 A 
ATOM      3  C   UNL     1      -0.012  12.590  19.993  0.00  0.00    +0.000 A 
ATOM      4  C   UNL     1       0.537  11.306  19.899  0.00  0.00    +0.000 A 
ATOM      5  C   UNL     1       0.407  10.431  20.983  0.00  0.00    +0.000 A 
ATOM      6  C   UNL     1      -0.275  10.840  22.141  0.00  0.00    +0.000 A 
ATOM      7  C   UNL     1      -0.835  12.120  22.236  0.00  0.00    +0.000 A 
ATOM      8  C   UNL     1       1.022   9.074  20.947  0.00  0.00    +0.000 C 
ATOM      9  O   UNL     1       1.049   8.389  21.965  0.00  0.00    +0.000 OA
ATOM     10  N   UNL     1       1.575   8.667  19.734  0.00  0.00    +0.000 N 
ATOM     11  C   UNL     1       1.232   9.370  18.505  0.00  0.00    +0.000 C 
ATOM     12  C   UNL     1       1.325  10.882  18.691  0.00  0.00    +0.000 C 
BRANCH   2  14
ATOM     13  C   UNL     1      -2.566  14.400  20.647  0.00  0.00    +0.000 C 
ATOM     14  O   UNL     1      -1.204  14.274  21.040  0.00  0.00    +0.000 OA
ENDBRANCH   2  14
BRANCH   7  15
ATOM     15  O   UNL     1      -1.535  12.546  23.334  0.00  0.00    +0.000 OA
ATOM     16  C   UNL     1      -2.893  12.134  23.461  0.00  0.00    +0.000 C 
ENDBRANCH   7  15
ENDBRANCH   1  10
BRANCH   1  17
ATOM     17  C   UNL     1       1.968   6.587  18.345  0.00  0.00    +0.000 C 
BRANCH  17  18
ATOM     18  N   UNL     1       1.611   5.167  18.564  0.00  0.00    +0.000 NA
ATOM     19  C   UNL     1       2.413   4.577  19.660  0.00  0.00    +0.000 C 
ATOM     20  C   UNL     1       2.830   3.187  19.167  0.00  0.00    +0.000 C 
ATOM     21  C   UNL     1       4.064   2.577  19.803  0.00  0.00    +0.000 C 
ATOM     22  C   UNL     1       5.314   3.426  19.593  0.00  0.00    +0.000 C 
ATOM     23  C   UNL     1       5.469   4.010  18.210  0.00  0.00    +0.000 A 
ATOM     24  C   UNL     1       6.685   4.595  17.794  0.00  0.00    +0.000 A 
ATOM     25  C   UNL     1       6.822   5.075  16.485  0.00  0.00    +0.000 A 
ATOM     26  C   UNL     1       5.775   4.985  15.577  0.00  0.00    +0.000 A 
ATOM     27  C   UNL     1       4.570   4.424  15.978  0.00  0.00    +0.000 A 
ATOM     28  C   UNL     1       4.383   3.971  17.296  0.00  0.00    +0.000 A 
ATOM     29  C   UNL     1       3.023   3.394  17.672  0.00  0.00    +0.000 C 
ATOM     30  C   UNL     1       1.838   4.321  17.372  0.00  0.00    +0.000 C 
BRANCH  24  31
ATOM     31  O   UNL     1       7.855   4.642  18.508  0.00  0.00    +0.000 OA
ATOM     32  C   UNL     1       8.099   5.805  19.287  0.00  0.00    +0.000 C 
ENDBRANCH  24  31
ENDBRANCH  17  18
ENDBRANCH   1  17
TORSDOF 6
ENDMDL
MODEL 6
REMARK VINA RESULT:      -7.2      2.502      9.626
REMARK  Name = 
REMARK  9 active torsions:
REMARK  status: ('A' for Active; 'I' for Inactive)
REMARK    1  A    between atoms: C_1  and  O_2
REMARK    2  A    between atoms: O_2  and  C_3
REMARK    3  A    between atoms: C_8  and  O_9
REMARK    4  A    between atoms: O_9  and  C_10
REMARK    5  A    between atoms: N_13  and  C_14
REMARK    6  A    between atoms: C_14  and  C_15
REMARK    7  A    between atoms: C_15  and  N_16
REMARK    8  A    between atoms: C_22  and  O_23
REMARK    9  A    between atoms: O_23  and  C_24
REMARK                            x       y       z     vdW  Elec       q    Type
REMARK                         _______ _______ _______ _____ _____    ______ ____
ROOT
ATOM      1  C   UNL     1       1.001   9.895  19.719  0.00  0.00    +0.000 C 
ENDROOT
BRANCH   1  10
ATOM      2  C   UNL     1       3.896   4.141  18.617  0.00  0.00    +0.000 A 
ATOM      3  C   UNL     1       3.240   4.653  19.753  0.00  0.00    +0.000 A 
ATOM      4  C   UNL     1       2.680   5.936  19.749  0.00  0.00    +0.000 A 
ATOM      5  C   UNL     1       2.786   6.719  18.594  0.00  0.00    +0.000 A 
ATOM      6  C   UNL     1       3.437   6.212  17.456  0.00  0.00    +0.000 A 
ATOM      7  C   UNL     1       3.990   4.926  17.453  0.00  0.00    +0.000 A 
ATOM      8  C   UNL     1       2.252   8.110  18.562  0.00  0.00    +0.000 C 
ATOM      9  O   UNL     1       2.505   8.839  17.609  0.00  0.00    +0.000 OA
ATOM     10  N   UNL     1       1.504   8.521  19.665  0.00  0.00    +0.000 N 
ATOM     11  C   UNL     1       0.973   7.532  20.593  0.00  0.00    +0.000 C 
ATOM     12  C   UNL     1       2.039   6.511  20.981  0.00  0.00    +0.000 C 
BRANCH   2  14
ATOM     13  C   UNL     1       3.461   1.805  18.391  0.00  0.00    +0.000 C 
ATOM     14  O   UNL     1       4.333   2.854  18.794  0.00  0.00    +0.000 OA
ENDBRANCH   2  14
BRANCH   7  15
ATOM     15  O   UNL     1       4.604   4.383  16.355  0.00  0.00    +0.000 OA
ATOM     16  C   UNL     1       6.014   4.542  16.231  0.00  0.00    +0.000 C 
ENDBRANCH   7  15
ENDBRANCH   1  10
BRANCH   1  17
ATOM     17  C   UNL     1       0.559  10.359  21.125  0.00  0.00    +0.000 C 
BRANCH  17  18
ATOM     18  N   UNL     1       0.692  11.818  21.341  0.00  0.00    +0.000 NA
ATOM     19  C   UNL     1      -0.473  12.357  22.079  0.00  0.00    +0.000 C 
ATOM     20  C   UNL     1      -0.834  13.672  21.379  0.00  0.00    +0.000 C 
ATOM     21  C   UNL     1      -2.259  14.165  21.542  0.00  0.00    +0.000 C 
ATOM     22  C   UNL     1      -3.288  13.174  21.008  0.00  0.00    +0.000 C 
ATOM     23  C   UNL     1      -2.932  12.522  19.694  0.00  0.00    +0.000 A 
ATOM     24  C   UNL     1      -3.888  11.789  18.957  0.00  0.00    +0.000 A 
ATOM     25  C   UNL     1      -3.549  11.245  17.711  0.00  0.00    +0.000 A 
ATOM     26  C   UNL     1      -2.277  11.416  17.181  0.00  0.00    +0.000 A 
ATOM     27  C   UNL     1      -1.324  12.123  17.901  0.00  0.00    +0.000 A 
ATOM     28  C   UNL     1      -1.617  12.646  19.174  0.00  0.00    +0.000 A 
ATOM     29  C   UNL     1      -0.512  13.385  19.919  0.00  0.00    +0.000 C 
ATOM     30  C   UNL     1       0.786  12.585  20.080  0.00  0.00    +0.000 C 
BRANCH  24  31
ATOM     31  O   UNL     1      -5.217  11.641  19.264  0.00  0.00    +0.000 OA
ATOM     32  C   UNL     1      -6.044  11.009  18.297  0.00  0.00    +0.000 C 
ENDBRANCH  24  31
ENDBRANCH  17  18
ENDBRANCH   1  17
TORSDOF 6
ENDMDL
MODEL 7
REMARK VINA RESULT:      -7.1      3.013      9.877
REMARK  Name = 
REMARK  9 active torsions:
REMARK  status: ('A' for Active; 'I' for Inactive)
REMARK    1  A    between atoms: C_1  and  O_2
REMARK    2  A    between atoms: O_2  and  C_3
REMARK    3  A    between atoms: C_8  and  O_9
REMARK    4  A    between atoms: O_9  and  C_10
REMARK    5  A    between atoms: N_13  and  C_14
REMARK    6  A    between atoms: C_14  and  C_15
REMARK    7  A    between atoms: C_15  and  N_16
REMARK    8  A    between atoms: C_22  and  O_23
REMARK    9  A    between atoms: O_23  and  C_24
REMARK                            x       y       z     vdW  Elec       q    Type
REMARK                         _______ _______ _______ _____ _____    ______ ____
ROOT
ATOM      1  C   UNL     1       0.828   8.667  20.876  0.00  0.00    +0.000 C 
ENDROOT
BRANCH   1  10
ATOM      2  C   UNL     1       4.372   4.462  17.347  0.00  0.00    +0.000 A 
ATOM      3  C   UNL     1       3.954   5.780  17.083  0.00  0.00    +0.000 A 
ATOM      4  C   UNL     1       3.193   6.498  18.013  0.00  0.00    +0.000 A 
ATOM      5  C   UNL     1       2.841   5.885  19.221  0.00  0.00    +0.000 A 
ATOM      6  C   UNL     1       3.259   4.570  19.491  0.00  0.00    +0.000 A 
ATOM      7  C   UNL     1       4.027   3.852  18.567  0.00  0.00    +0.000 A 
ATOM      8  C   UNL     1       1.989   6.591  20.217  0.00  0.00    +0.000 C 
ATOM      9  O   UNL     1       1.547   5.981  21.186  0.00  0.00    +0.000 OA
ATOM     10  N   UNL     1       1.708   7.934  19.964  0.00  0.00    +0.000 N 
ATOM     11  C   UNL     1       2.507   8.674  18.997  0.00  0.00    +0.000 C 
ATOM     12  C   UNL     1       2.687   7.880  17.706  0.00  0.00    +0.000 C 
BRANCH   2  14
ATOM     13  C   UNL     1       5.500   4.810  15.273  0.00  0.00    +0.000 C 
ATOM     14  O   UNL     1       5.147   3.941  16.343  0.00  0.00    +0.000 OA
ENDBRANCH   2  14
BRANCH   7  15
ATOM     15  O   UNL     1       4.481   2.581  18.806  0.00  0.00    +0.000 OA
ATOM     16  C   UNL     1       3.603   1.495  18.528  0.00  0.00    +0.000 C 
ENDBRANCH   7  15
ENDBRANCH   1  10
BRANCH   1  17
ATOM     17  C   UNL     1      -0.225   9.554  20.173  0.00  0.00    +0.000 C 
BRANCH  17  18
ATOM     18  N   UNL     1       0.001  11.006  20.354  0.00  0.00    +0.000 NA
ATOM     19  C   UNL     1      -1.106  11.628  21.117  0.00  0.00    +0.000 C 
ATOM     20  C   UNL     1      -1.411  12.948  20.401  0.00  0.00    +0.000 C 
ATOM     21  C   UNL     1      -2.799  13.528  20.600  0.00  0.00    +0.000 C 
ATOM     22  C   UNL     1      -3.902  12.591  20.119  0.00  0.00    +0.000 C 
ATOM     23  C   UNL     1      -3.628  11.894  18.808  0.00  0.00    +0.000 A 
ATOM     24  C   UNL     1      -4.649  11.206  18.117  0.00  0.00    +0.000 A 
ATOM     25  C   UNL     1      -4.383  10.619  16.873  0.00  0.00    +0.000 A 
ATOM     26  C   UNL     1      -3.121  10.704  16.299  0.00  0.00    +0.000 A 
ATOM     27  C   UNL     1      -2.106  11.366  16.974  0.00  0.00    +0.000 A 
ATOM     28  C   UNL     1      -2.325  11.930  18.244  0.00  0.00    +0.000 A 
ATOM     29  C   UNL     1      -1.155  12.615  18.938  0.00  0.00    +0.000 C 
ATOM     30  C   UNL     1       0.099  11.742  19.075  0.00  0.00    +0.000 C 
BRANCH  24  31
ATOM     31  O   UNL     1      -5.973  11.143  18.469  0.00  0.00    +0.000 OA
ATOM     32  C   UNL     1      -6.868  12.026  17.808  0.00  0.00    +0.000 C 
ENDBRANCH  24  31
ENDBRANCH  17  18
ENDBRANCH   1  17
TORSDOF 6
ENDMDL
MODEL 8
REMARK VINA RESULT:      -7.1      1.245      2.194
REMARK  Name = 
REMARK  9 active torsions:
REMARK  status: ('A' for Active; 'I' for Inactive)
REMARK    1  A    between atoms: C_1  and  O_2
REMARK    2  A    between atoms: O_2  and  C_3
REMARK    3  A    between atoms: C_8  and  O_9
REMARK    4  A    between atoms: O_9  and  C_10
REMARK    5  A    between atoms: N_13  and  C_14
REMARK    6  A    between atoms: C_14  and  C_15
REMARK    7  A    between atoms: C_15  and  N_16
REMARK    8  A    between atoms: C_22  and  O_23
REMARK    9  A    between atoms: O_23  and  C_24
REMARK                            x       y       z     vdW  Elec       q    Type
REMARK                         _______ _______ _______ _____ _____    ______ ____
ROOT
ATOM      1  C   UNL     1       2.089   7.493  19.556  0.00  0.00    +0.000 C 
ENDROOT
BRANCH   1  10
ATOM      2  C   UNL     1      -0.569  13.460  19.769  0.00  0.00    +0.000 A 
ATOM      3  C   UNL     1       0.417  12.907  18.929  0.00  0.00    +0.000 A 
ATOM      4  C   UNL     1       0.827  11.576  19.071  0.00  0.00    +0.000 A 
ATOM      5  C   UNL     1       0.246  10.791  20.073  0.00  0.00    +0.000 A 
ATOM      6  C   UNL     1      -0.741  11.336  20.913  0.00  0.00    +0.000 A 
ATOM      7  C   UNL     1      -1.160  12.664  20.767  0.00  0.00    +0.000 A 
ATOM      8  C   UNL     1       0.688   9.386  20.296  0.00  0.00    +0.000 C 
ATOM      9  O   UNL     1       0.296   8.771  21.283  0.00  0.00    +0.000 OA
ATOM     10  N   UNL     1       1.572   8.850  19.361  0.00  0.00    +0.000 N 
ATOM     11  C   UNL     1       1.742   9.496  18.066  0.00  0.00    +0.000 C 
ATOM     12  C   UNL     1       1.926  11.003  18.222  0.00  0.00    +0.000 C 
BRANCH   2  14
ATOM     13  C   UNL     1       0.210  15.616  19.103  0.00  0.00    +0.000 C 
ATOM     14  O   UNL     1      -0.872  14.757  19.446  0.00  0.00    +0.000 OA
ENDBRANCH   2  14
BRANCH   7  15
ATOM     15  O   UNL     1      -2.141  13.224  21.543  0.00  0.00    +0.000 OA
ATOM     16  C   UNL     1      -3.497  12.965  21.194  0.00  0.00    +0.000 C 
ENDBRANCH   7  15
ENDBRANCH   1  10
BRANCH   1  17
ATOM     17  C   UNL     1       2.063   6.611  18.287  0.00  0.00    +0.000 C 
BRANCH  17  18
ATOM     18  N   UNL     1       1.702   5.199  18.550  0.00  0.00    +0.000 NA
ATOM     19  C   UNL     1       2.507   4.639  19.659  0.00  0.00    +0.000 C 
ATOM     20  C   UNL     1       2.916   3.233  19.207  0.00  0.00    +0.000 C 
ATOM     21  C   UNL     1       4.152   2.638  19.855  0.00  0.00    +0.000 C 
ATOM     22  C   UNL     1       5.403   3.475  19.612  0.00  0.00    +0.000 C 
ATOM     23  C   UNL     1       5.554   4.017  18.211  0.00  0.00    +0.000 A 
ATOM     24  C   UNL     1       6.770   4.585  17.772  0.00  0.00    +0.000 A 
ATOM     25  C   UNL     1       6.902   5.025  16.448  0.00  0.00    +0.000 A 
ATOM     26  C   UNL     1       5.849   4.911  15.550  0.00  0.00    +0.000 A 
ATOM     27  C   UNL     1       4.644   4.367  15.973  0.00  0.00    +0.000 A 
ATOM     28  C   UNL     1       4.462   3.954  17.305  0.00  0.00    +0.000 A 
ATOM     29  C   UNL     1       3.102   3.395  17.704  0.00  0.00    +0.000 C 
ATOM     30  C   UNL     1       1.920   4.317  17.383  0.00  0.00    +0.000 C 
BRANCH  24  31
ATOM     31  O   UNL     1       7.943   4.648  18.479  0.00  0.00    +0.000 OA
ATOM     32  C   UNL     1       8.133   5.769  19.331  0.00  0.00    +0.000 C 
ENDBRANCH  24  31
ENDBRANCH  17  18
ENDBRANCH   1  17
TORSDOF 6
ENDMDL
MODEL 9
REMARK VINA RESULT:      -7.0      2.396      9.935
REMARK  Name = 
REMARK  9 active torsions:
REMARK  status: ('A' for Active; 'I' for Inactive)
REMARK    1  A    between atoms: C_1  and  O_2
REMARK    2  A    between atoms: O_2  and  C_3
REMARK    3  A    between atoms: C_8  and  O_9
REMARK    4  A    between atoms: O_9  and  C_10
REMARK    5  A    between atoms: N_13  and  C_14
REMARK    6  A    between atoms: C_14  and  C_15
REMARK    7  A    between atoms: C_15  and  N_16
REMARK    8  A    between atoms: C_22  and  O_23
REMARK    9  A    between atoms: O_23  and  C_24
REMARK                            x       y       z     vdW  Elec       q    Type
REMARK                         _______ _______ _______ _____ _____    ______ ____
ROOT
ATOM      1  C   UNL     1       0.545  11.375  19.029  0.00  0.00    +0.000 C 
ENDROOT
BRANCH   1  10
ATOM      2  C   UNL     1       2.740   5.278  19.874  0.00  0.00    +0.000 A 
ATOM      3  C   UNL     1       2.129   6.182  20.765  0.00  0.00    +0.000 A 
ATOM      4  C   UNL     1       1.729   7.455  20.344  0.00  0.00    +0.000 A 
ATOM      5  C   UNL     1       1.953   7.832  19.014  0.00  0.00    +0.000 A 
ATOM      6  C   UNL     1       2.560   6.933  18.120  0.00  0.00    +0.000 A 
ATOM      7  C   UNL     1       2.952   5.655  18.535  0.00  0.00    +0.000 A 
ATOM      8  C   UNL     1       1.592   9.196  18.535  0.00  0.00    +0.000 C 
ATOM      9  O   UNL     1       1.951   9.567  17.422  0.00  0.00    +0.000 OA
ATOM     10  N   UNL     1       0.878  10.003  19.419  0.00  0.00    +0.000 N 
ATOM     11  C   UNL     1       0.212   9.410  20.571  0.00  0.00    +0.000 C 
ATOM     12  C   UNL     1       1.138   8.446  21.307  0.00  0.00    +0.000 C 
BRANCH   2  14
ATOM     13  C   UNL     1       2.093   3.583  21.425  0.00  0.00    +0.000 C 
ATOM     14  O   UNL     1       3.015   4.067  20.455  0.00  0.00    +0.000 OA
ENDBRANCH   2  14
BRANCH   7  15
ATOM     15  O   UNL     1       3.518   4.739  17.687  0.00  0.00    +0.000 OA
ATOM     16  C   UNL     1       4.647   5.146  16.922  0.00  0.00    +0.000 C 
ENDBRANCH   7  15
ENDBRANCH   1  10
BRANCH   1  17
ATOM     17  C   UNL     1       1.625  12.421  19.385  0.00  0.00    +0.000 C 
BRANCH  17  18
ATOM     18  N   UNL     1       1.361  13.766  18.823  0.00  0.00    +0.000 NA
ATOM     19  C   UNL     1       1.807  14.829  19.752  0.00  0.00    +0.000 C 
ATOM     20  C   UNL     1       0.695  15.884  19.741  0.00  0.00    +0.000 C 
ATOM     21  C   UNL     1       0.599  16.790  20.953  0.00  0.00    +0.000 C 
ATOM     22  C   UNL     1       0.355  16.019  22.245  0.00  0.00    +0.000 C 
ATOM     23  C   UNL     1      -0.649  14.896  22.145  0.00  0.00    +0.000 A 
ATOM     24  C   UNL     1      -1.165  14.268  23.300  0.00  0.00    +0.000 A 
ATOM     25  C   UNL     1      -2.140  13.270  23.181  0.00  0.00    +0.000 A 
ATOM     26  C   UNL     1      -2.617  12.883  21.935  0.00  0.00    +0.000 A 
ATOM     27  C   UNL     1      -2.109  13.482  20.791  0.00  0.00    +0.000 A 
ATOM     28  C   UNL     1      -1.098  14.458  20.871  0.00  0.00    +0.000 A 
ATOM     29  C   UNL     1      -0.568  15.051  19.571  0.00  0.00    +0.000 C 
ATOM     30  C   UNL     1      -0.073  14.012  18.558  0.00  0.00    +0.000 C 
BRANCH  24  31
ATOM     31  O   UNL     1      -0.910  14.618  24.601  0.00  0.00    +0.000 OA
ATOM     32  C   UNL     1      -1.914  15.348  25.291  0.00  0.00    +0.000 C 
ENDBRANCH  24  31
ENDBRANCH  17  18
ENDBRANCH   1  17
TORSDOF 6
ENDMDL
