MODEL 1
REMARK VINA RESULT:      -8.1      0.000      0.000
REMARK  Name = 
REMARK  4 active torsions:
REMARK  status: ('A' for Active; 'I' for Inactive)
REMARK    1  A    between atoms: C_1  and  C_2
REMARK    2  A    between atoms: C_7  and  N_8
REMARK    3  A    between atoms: C_9  and  C_11
REMARK    4  A    between atoms: C_16  and  C_17
REMARK                            x       y       z     vdW  Elec       q    Type
REMARK                         _______ _______ _______ _____ _____    ______ ____
ROOT
ATOM      1  C   UNL     1      -1.280  11.681  22.846  0.00  0.00    +0.000 C 
ATOM      2  C   UNL     1      -0.488  10.633  22.124  0.00  0.00    +0.000 A 
ATOM      3  C   UNL     1       0.048   9.555  22.812  0.00  0.00    +0.000 A 
ATOM      4  C   UNL     1       0.815   8.636  22.108  0.00  0.00    +0.000 A 
ATOM      5  C   UNL     1       1.043   8.821  20.741  0.00  0.00    +0.000 A 
ATOM      6  C   UNL     1       1.866   7.947  20.010  0.00  0.00    +0.000 A 
ATOM      7  C   UNL     1       2.124   8.158  18.655  0.00  0.00    +0.000 A 
ATOM      8  C   UNL     1       1.474   9.211  18.013  0.00  0.00    +0.000 A 
ATOM      9  C   UNL     1       0.658  10.088  18.749  0.00  0.00    +0.000 A 
ATOM     10  C   UNL     1       0.445   9.927  20.113  0.00  0.00    +0.000 A 
ATOM     11  N   UNL     1      -0.307  10.816  20.790  0.00  0.00    +0.000 NA
ENDROOT
BRANCH   7  12
ATOM     12  N   UNL     1       3.034   7.366  17.913  0.00  0.00    +0.000 N 
ATOM     13  C   UNL     1       3.728   6.278  18.417  0.00  0.00    +0.000 C 
ATOM     14  O   UNL     1       3.623   5.844  19.562  0.00  0.00    +0.000 OA
ATOM     15  H   UNL     1       3.263   7.694  16.986  0.00  0.00    +0.000 HD
BRANCH  13  16
ATOM     16  C   UNL     1       4.680   5.561  17.513  0.00  0.00    +0.000 A 
ATOM     17  C   UNL     1       5.865   6.271  17.231  0.00  0.00    +0.000 A 
ATOM     18  C   UNL     1       6.830   5.763  16.362  0.00  0.00    +0.000 A 
ATOM     19  C   UNL     1       6.634   4.522  15.775  0.00  0.00    +0.000 A 
ATOM     20  C   UNL     1       5.462   3.808  16.033  0.00  0.00    +0.000 A 
ATOM     21  C   UNL     1       4.452   4.326  16.873  0.00  0.00    +0.000 A 
ATOM     22  C   UNL     1       3.186   3.528  16.992  0.00  0.00    +0.000 C 
ENDBRANCH  13  16
ENDBRANCH   7  12
TORSDOF 2
ENDMDL
MODEL 2
REMARK VINA RESULT:      -7.7      0.975      1.461
REMARK  Name = 
REMARK  4 active torsions:
REMARK  status: ('A' for Active; 'I' for Inactive)
REMARK    1  A    between atoms: C_1  and  C_2
REMARK    2  A    between atoms: C_7  and  N_8
REMARK    3  A    between atoms: C_9  and  C_11
REMARK    4  A    between atoms: C_16  and  C_17
REMARK                            x       y       z     vdW  Elec       q    Type
REMARK                         _______ _______ _______ _____ _____    ______ ____
ROOT
ATOM      1  C   UNL     1      -1.626  11.501  22.034  0.00  0.00    +0.000 C 
ATOM      2  C   UNL     1      -0.650  10.506  21.480  0.00  0.00    +0.000 A 
ATOM      3  C   UNL     1      -0.037   9.580  22.313  0.00  0.00    +0.000 A 
ATOM      4  C   UNL     1       0.896   8.712  21.762  0.00  0.00    +0.000 A 
ATOM      5  C   UNL     1       1.207   8.796  20.401  0.00  0.00    +0.000 A 
ATOM      6  C   UNL     1       2.192   7.976  19.823  0.00  0.00    +0.000 A 
ATOM      7  C   UNL     1       2.530   8.090  18.474  0.00  0.00    +0.000 A 
ATOM      8  C   UNL     1       1.803   8.979  17.683  0.00  0.00    +0.000 A 
ATOM      9  C   UNL     1       0.825   9.804  18.266  0.00  0.00    +0.000 A 
ATOM     10  C   UNL     1       0.525   9.746  19.622  0.00  0.00    +0.000 A 
ATOM     11  N   UNL     1      -0.387  10.584  20.150  0.00  0.00    +0.000 NA
ENDROOT
BRANCH   7  12
ATOM     12  N   UNL     1       3.590   7.363  17.882  0.00  0.00    +0.000 N 
ATOM     13  C   UNL     1       3.635   5.982  17.767  0.00  0.00    +0.000 C 
ATOM     14  O   UNL     1       2.750   5.215  18.138  0.00  0.00    +0.000 OA
ATOM     15  H   UNL     1       4.411   7.892  17.628  0.00  0.00    +0.000 HD
BRANCH  13  16
ATOM     16  C   UNL     1       4.844   5.360  17.142  0.00  0.00    +0.000 A 
ATOM     17  C   UNL     1       4.661   4.943  15.808  0.00  0.00    +0.000 A 
ATOM     18  C   UNL     1       5.675   4.297  15.101  0.00  0.00    +0.000 A 
ATOM     19  C   UNL     1       6.899   4.074  15.714  0.00  0.00    +0.000 A 
ATOM     20  C   UNL     1       7.096   4.471  17.039  0.00  0.00    +0.000 A 
ATOM     21  C   UNL     1       6.067   5.085  17.785  0.00  0.00    +0.000 A 
ATOM     22  C   UNL     1       6.348   5.368  19.233  0.00  0.00    +0.000 C 
ENDBRANCH  13  16
ENDBRANCH   7  12
TORSDOF 2
ENDMDL
MODEL 3
REMARK VINA RESULT:      -7.7      5.676      8.413
REMARK  Name = 
REMARK  4 active torsions:
REMARK  status: ('A' for Active; 'I' for Inactive)
REMARK    1  A    between atoms: C_1  and  C_2
REMARK    2  A    between atoms: C_7  and  N_8
REMARK    3  A    between atoms: C_9  and  C_11
REMARK    4  A    between atoms: C_16  and  C_17
REMARK                            x       y       z     vdW  Elec       q    Type
REMARK                         _______ _______ _______ _____ _____    ______ ____
ROOT
ATOM      1  C   UNL     1       4.443   2.702  17.817  0.00  0.00    +0.000 C 
ATOM      2  C   UNL     1       4.992   4.089  17.664  0.00  0.00    +0.000 A 
ATOM      3  C   UNL     1       4.437   4.970  16.747  0.00  0.00    +0.000 A 
ATOM      4  C   UNL     1       5.012   6.226  16.606  0.00  0.00    +0.000 A 
ATOM      5  C   UNL     1       6.133   6.569  17.369  0.00  0.00    +0.000 A 
ATOM      6  C   UNL     1       6.778   7.806  17.208  0.00  0.00    +0.000 A 
ATOM      7  C   UNL     1       7.921   8.130  17.942  0.00  0.00    +0.000 A 
ATOM      8  C   UNL     1       8.362   7.228  18.910  0.00  0.00    +0.000 A 
ATOM      9  C   UNL     1       7.720   5.987  19.062  0.00  0.00    +0.000 A 
ATOM     10  C   UNL     1       6.620   5.627  18.292  0.00  0.00    +0.000 A 
ATOM     11  N   UNL     1       6.061   4.410  18.438  0.00  0.00    +0.000 NA
ENDROOT
BRANCH   7  12
ATOM     12  N   UNL     1       8.663   9.316  17.728  0.00  0.00    +0.000 N 
ATOM     13  C   UNL     1       9.097  10.169  18.731  0.00  0.00    +0.000 C 
ATOM     14  O   UNL     1       8.919   9.990  19.934  0.00  0.00    +0.000 OA
ATOM     15  H   UNL     1       8.783   9.604  16.768  0.00  0.00    +0.000 HD
BRANCH  13  16
ATOM     16  C   UNL     1       9.846  11.403  18.340  0.00  0.00    +0.000 A 
ATOM     17  C   UNL     1      11.187  11.434  18.773  0.00  0.00    +0.000 A 
ATOM     18  C   UNL     1      12.005  12.538  18.536  0.00  0.00    +0.000 A 
ATOM     19  C   UNL     1      11.498  13.625  17.840  0.00  0.00    +0.000 A 
ATOM     20  C   UNL     1      10.169  13.618  17.411  0.00  0.00    +0.000 A 
ATOM     21  C   UNL     1       9.312  12.529  17.682  0.00  0.00    +0.000 A 
ATOM     22  C   UNL     1       7.874  12.673  17.276  0.00  0.00    +0.000 C 
ENDBRANCH  13  16
ENDBRANCH   7  12
TORSDOF 2
ENDMDL
MODEL 4
REMARK VINA RESULT:      -7.6      1.182      1.305
REMARK  Name = 
REMARK  4 active torsions:
REMARK  status: ('A' for Active; 'I' for Inactive)
REMARK    1  A    between atoms: C_1  and  C_2
REMARK    2  A    between atoms: C_7  and  N_8
REMARK    3  A    between atoms: C_9  and  C_11
REMARK    4  A    between atoms: C_16  and  C_17
REMARK                            x       y       z     vdW  Elec       q    Type
REMARK                         _______ _______ _______ _____ _____    ______ ____
ROOT
ATOM      1  C   UNL     1      -1.926  12.545  22.952  0.00  0.00    +0.000 C 
ATOM      2  C   UNL     1      -1.155  11.353  22.470  0.00  0.00    +0.000 A 
ATOM      3  C   UNL     1      -0.836  10.320  23.339  0.00  0.00    +0.000 A 
ATOM      4  C   UNL     1      -0.078   9.261  22.858  0.00  0.00    +0.000 A 
ATOM      5  C   UNL     1       0.356   9.263  21.529  0.00  0.00    +0.000 A 
ATOM      6  C   UNL     1       1.177   8.240  21.025  0.00  0.00    +0.000 A 
ATOM      7  C   UNL     1       1.643   8.265  19.709  0.00  0.00    +0.000 A 
ATOM      8  C   UNL     1       1.203   9.289  18.872  0.00  0.00    +0.000 A 
ATOM      9  C   UNL     1       0.389  10.316  19.381  0.00  0.00    +0.000 A 
ATOM     10  C   UNL     1      -0.029  10.336  20.706  0.00  0.00    +0.000 A 
ATOM     11  N   UNL     1      -0.771  11.361  21.167  0.00  0.00    +0.000 NA
ENDROOT
BRANCH   7  12
ATOM     12  N   UNL     1       2.560   7.315  19.199  0.00  0.00    +0.000 N 
ATOM     13  C   UNL     1       3.112   7.352  17.928  0.00  0.00    +0.000 C 
ATOM     14  O   UNL     1       2.898   8.226  17.092  0.00  0.00    +0.000 OA
ATOM     15  H   UNL     1       2.732   6.503  19.774  0.00  0.00    +0.000 HD
BRANCH  13  16
ATOM     16  C   UNL     1       4.045   6.254  17.526  0.00  0.00    +0.000 A 
ATOM     17  C   UNL     1       5.340   6.687  17.175  0.00  0.00    +0.000 A 
ATOM     18  C   UNL     1       6.311   5.794  16.727  0.00  0.00    +0.000 A 
ATOM     19  C   UNL     1       6.009   4.443  16.643  0.00  0.00    +0.000 A 
ATOM     20  C   UNL     1       4.729   3.995  16.976  0.00  0.00    +0.000 A 
ATOM     21  C   UNL     1       3.718   4.890  17.388  0.00  0.00    +0.000 A 
ATOM     22  C   UNL     1       2.348   4.318  17.613  0.00  0.00    +0.000 C 
ENDBRANCH  13  16
ENDBRANCH   7  12
TORSDOF 2
ENDMDL
MODEL 5
REMARK VINA RESULT:      -7.6      2.452      3.647
REMARK  Name = 
REMARK  4 active torsions:
REMARK  status: ('A' for Active; 'I' for Inactive)
REMARK    1  A    between atoms: C_1  and  C_2
REMARK    2  A    between atoms: C_7  and  N_8
REMARK    3  A    between atoms: C_9  and  C_11
REMARK    4  A    between atoms: C_16  and  C_17
REMARK                            x       y       z     vdW  Elec       q    Type
REMARK                         _______ _______ _______ _____ _____    ______ ____
ROOT
ATOM      1  C   UNL     1      -0.368  15.806  19.167  0.00  0.00    +0.000 C 
ATOM      2  C   UNL     1       0.341  14.499  18.972  0.00  0.00    +0.000 A 
ATOM      3  C   UNL     1       1.719  14.460  18.818  0.00  0.00    +0.000 A 
ATOM      4  C   UNL     1       2.325  13.232  18.590  0.00  0.00    +0.000 A 
ATOM      5  C   UNL     1       1.542  12.075  18.505  0.00  0.00    +0.000 A 
ATOM      6  C   UNL     1       2.114  10.825  18.212  0.00  0.00    +0.000 A 
ATOM      7  C   UNL     1       1.326   9.679  18.088  0.00  0.00    +0.000 A 
ATOM      8  C   UNL     1      -0.040   9.784  18.348  0.00  0.00    +0.000 A 
ATOM      9  C   UNL     1      -0.609  11.037  18.632  0.00  0.00    +0.000 A 
ATOM     10  C   UNL     1       0.155  12.197  18.695  0.00  0.00    +0.000 A 
ATOM     11  N   UNL     1      -0.435  13.386  18.925  0.00  0.00    +0.000 NA
ENDROOT
BRANCH   7  12
ATOM     12  N   UNL     1       1.848   8.426  17.685  0.00  0.00    +0.000 N 
ATOM     13  C   UNL     1       2.318   7.451  18.550  0.00  0.00    +0.000 C 
ATOM     14  O   UNL     1       2.317   7.536  19.775  0.00  0.00    +0.000 OA
ATOM     15  H   UNL     1       1.980   8.292  16.693  0.00  0.00    +0.000 HD
BRANCH  13  16
ATOM     16  C   UNL     1       2.869   6.189  17.966  0.00  0.00    +0.000 A 
ATOM     17  C   UNL     1       2.010   5.075  18.066  0.00  0.00    +0.000 A 
ATOM     18  C   UNL     1       2.397   3.813  17.618  0.00  0.00    +0.000 A 
ATOM     19  C   UNL     1       3.646   3.648  17.039  0.00  0.00    +0.000 A 
ATOM     20  C   UNL     1       4.515   4.736  16.939  0.00  0.00    +0.000 A 
ATOM     21  C   UNL     1       4.160   6.012  17.430  0.00  0.00    +0.000 A 
ATOM     22  C   UNL     1       5.211   7.083  17.374  0.00  0.00    +0.000 C 
ENDBRANCH  13  16
ENDBRANCH   7  12
TORSDOF 2
ENDMDL
MODEL 6
REMARK VINA RESULT:      -7.6      1.851      8.057
REMARK  Name = 
REMARK  4 active torsions:
REMARK  status: ('A' for Active; 'I' for Inactive)
REMARK    1  A    between atoms: C_1  and  C_2
REMARK    2  A    between atoms: C_7  and  N_8
REMARK    3  A    between atoms: C_9  and  C_11
REMARK    4  A    between atoms: C_16  and  C_17
REMARK                            x       y       z     vdW  Elec       q    Type
REMARK                         _______ _______ _______ _____ _____    ______ ____
ROOT
ATOM      1  C   UNL     1       6.239   3.665  15.320  0.00  0.00    +0.000 C 
ATOM      2  C   UNL     1       5.418   4.703  16.025  0.00  0.00    +0.000 A 
ATOM      3  C   UNL     1       5.542   6.045  15.695  0.00  0.00    +0.000 A 
ATOM      4  C   UNL     1       4.797   6.973  16.410  0.00  0.00    +0.000 A 
ATOM      5  C   UNL     1       3.960   6.544  17.446  0.00  0.00    +0.000 A 
ATOM      6  C   UNL     1       3.240   7.460  18.232  0.00  0.00    +0.000 A 
ATOM      7  C   UNL     1       2.437   7.033  19.291  0.00  0.00    +0.000 A 
ATOM      8  C   UNL     1       2.293   5.663  19.500  0.00  0.00    +0.000 A 
ATOM      9  C   UNL     1       3.021   4.749  18.718  0.00  0.00    +0.000 A 
ATOM     10  C   UNL     1       3.874   5.165  17.702  0.00  0.00    +0.000 A 
ATOM     11  N   UNL     1       4.589   4.261  17.005  0.00  0.00    +0.000 NA
ENDROOT
BRANCH   7  12
ATOM     12  N   UNL     1       1.787   7.929  20.173  0.00  0.00    +0.000 N 
ATOM     13  C   UNL     1       1.035   9.024  19.777  0.00  0.00    +0.000 C 
ATOM     14  O   UNL     1       0.813   9.341  18.611  0.00  0.00    +0.000 OA
ATOM     15  H   UNL     1       1.982   7.812  21.157  0.00  0.00    +0.000 HD
BRANCH  13  16
ATOM     16  C   UNL     1       0.435   9.895  20.834  0.00  0.00    +0.000 A 
ATOM     17  C   UNL     1      -0.130   9.192  21.918  0.00  0.00    +0.000 A 
ATOM     18  C   UNL     1      -0.776   9.857  22.960  0.00  0.00    +0.000 A 
ATOM     19  C   UNL     1      -0.849  11.242  22.945  0.00  0.00    +0.000 A 
ATOM     20  C   UNL     1      -0.304  11.955  21.876  0.00  0.00    +0.000 A 
ATOM     21  C   UNL     1       0.313  11.298  20.789  0.00  0.00    +0.000 A 
ATOM     22  C   UNL     1       0.763  12.153  19.640  0.00  0.00    +0.000 C 
ENDBRANCH  13  16
ENDBRANCH   7  12
TORSDOF 2
ENDMDL
MODEL 7
REMARK VINA RESULT:      -7.5      2.430      3.189
REMARK  Name = 
REMARK  4 active torsions:
REMARK  status: ('A' for Active; 'I' for Inactive)
REMARK    1  A    between atoms: C_1  and  C_2
REMARK    2  A    between atoms: C_7  and  N_8
REMARK    3  A    between atoms: C_9  and  C_11
REMARK    4  A    between atoms: C_16  and  C_17
REMARK                            x       y       z     vdW  Elec       q    Type
REMARK                         _______ _______ _______ _____ _____    ______ ____
ROOT
ATOM      1  C   UNL     1      -0.637  15.617  19.320  0.00  0.00    +0.000 C 
ATOM      2  C   UNL     1       0.188  14.387  19.086  0.00  0.00    +0.000 A 
ATOM      3  C   UNL     1       1.565  14.477  18.951  0.00  0.00    +0.000 A 
ATOM      4  C   UNL     1       2.281  13.316  18.686  0.00  0.00    +0.000 A 
ATOM      5  C   UNL     1       1.606  12.099  18.548  0.00  0.00    +0.000 A 
ATOM      6  C   UNL     1       2.289  10.916  18.219  0.00  0.00    +0.000 A 
ATOM      7  C   UNL     1       1.609   9.710  18.041  0.00  0.00    +0.000 A 
ATOM      8  C   UNL     1       0.237   9.683  18.286  0.00  0.00    +0.000 A 
ATOM      9  C   UNL     1      -0.446  10.870  18.607  0.00  0.00    +0.000 A 
ATOM     10  C   UNL     1       0.211  12.089  18.723  0.00  0.00    +0.000 A 
ATOM     11  N   UNL     1      -0.485  13.211  18.988  0.00  0.00    +0.000 NA
ENDROOT
BRANCH   7  12
ATOM     12  N   UNL     1       2.245   8.525  17.600  0.00  0.00    +0.000 N 
ATOM     13  C   UNL     1       2.614   7.472  18.423  0.00  0.00    +0.000 C 
ATOM     14  O   UNL     1       2.412   7.421  19.634  0.00  0.00    +0.000 OA
ATOM     15  H   UNL     1       2.540   8.505  16.635  0.00  0.00    +0.000 HD
BRANCH  13  16
ATOM     16  C   UNL     1       3.308   6.299  17.808  0.00  0.00    +0.000 A 
ATOM     17  C   UNL     1       4.494   6.619  17.116  0.00  0.00    +0.000 A 
ATOM     18  C   UNL     1       5.230   5.645  16.442  0.00  0.00    +0.000 A 
ATOM     19  C   UNL     1       4.801   4.326  16.467  0.00  0.00    +0.000 A 
ATOM     20  C   UNL     1       3.624   3.991  17.139  0.00  0.00    +0.000 A 
ATOM     21  C   UNL     1       2.840   4.970  17.788  0.00  0.00    +0.000 A 
ATOM     22  C   UNL     1       1.537   4.519  18.382  0.00  0.00    +0.000 C 
ENDBRANCH  13  16
ENDBRANCH   7  12
TORSDOF 2
ENDMDL
MODEL 8
REMARK VINA RESULT:      -7.4      2.724      7.986
REMARK  Name = 
REMARK  4 active torsions:
REMARK  status: ('A' for Active; 'I' for Inactive)
REMARK    1  A    between atoms: C_1  and  C_2
REMARK    2  A    between atoms: C_7  and  N_8
REMARK    3  A    between atoms: C_9  and  C_11
REMARK    4  A    between atoms: C_16  and  C_17
REMARK                            x       y       z     vdW  Elec       q    Type
REMARK                         _______ _______ _______ _____ _____    ______ ____
ROOT
ATOM      1  C   UNL     1       3.584   1.779  18.736  0.00  0.00    +0.000 C 
ATOM      2  C   UNL     1       2.971   2.998  19.357  0.00  0.00    +0.000 A 
ATOM      3  C   UNL     1       2.108   2.881  20.438  0.00  0.00    +0.000 A 
ATOM      4  C   UNL     1       1.527   4.035  20.947  0.00  0.00    +0.000 A 
ATOM      5  C   UNL     1       1.806   5.273  20.360  0.00  0.00    +0.000 A 
ATOM      6  C   UNL     1       1.187   6.452  20.808  0.00  0.00    +0.000 A 
ATOM      7  C   UNL     1       1.436   7.681  20.194  0.00  0.00    +0.000 A 
ATOM      8  C   UNL     1       2.385   7.730  19.175  0.00  0.00    +0.000 A 
ATOM      9  C   UNL     1       2.996   6.547  18.722  0.00  0.00    +0.000 A 
ATOM     10  C   UNL     1       2.708   5.308  19.283  0.00  0.00    +0.000 A 
ATOM     11  N   UNL     1       3.281   4.193  18.791  0.00  0.00    +0.000 NA
ENDROOT
BRANCH   7  12
ATOM     12  N   UNL     1       0.749   8.868  20.543  0.00  0.00    +0.000 N 
ATOM     13  C   UNL     1       1.014   9.633  21.668  0.00  0.00    +0.000 C 
ATOM     14  O   UNL     1       1.895   9.395  22.490  0.00  0.00    +0.000 OA
ATOM     15  H   UNL     1      -0.057   9.103  19.982  0.00  0.00    +0.000 HD
BRANCH  13  16
ATOM     16  C   UNL     1       0.177  10.849  21.914  0.00  0.00    +0.000 A 
ATOM     17  C   UNL     1      -0.915  10.639  22.781  0.00  0.00    +0.000 A 
ATOM     18  C   UNL     1      -1.822  11.658  23.070  0.00  0.00    +0.000 A 
ATOM     19  C   UNL     1      -1.638  12.914  22.511  0.00  0.00    +0.000 A 
ATOM     20  C   UNL     1      -0.567  13.139  21.643  0.00  0.00    +0.000 A 
ATOM     21  C   UNL     1       0.335  12.107  21.302  0.00  0.00    +0.000 A 
ATOM     22  C   UNL     1       1.380  12.427  20.273  0.00  0.00    +0.000 C 
ENDBRANCH  13  16
ENDBRANCH   7  12
TORSDOF 2
ENDMDL
MODEL 9
REMARK VINA RESULT:      -7.4      2.214      3.085
REMARK  Name = 
REMARK  4 active torsions:
REMARK  status: ('A' for Active; 'I' for Inactive)
REMARK    1  A    between atoms: C_1  and  C_2
REMARK    2  A    between atoms: C_7  and  N_8
REMARK    3  A    between atoms: C_9  and  C_11
REMARK    4  A    between atoms: C_16  and  C_17
REMARK                            x       y       z     vdW  Elec       q    Type
REMARK                         _______ _______ _______ _____ _____    ______ ____
ROOT
ATOM      1  C   UNL     1      -1.814  14.523  20.443  0.00  0.00    +0.000 C 
ATOM      2  C   UNL     1      -1.393  13.234  19.802  0.00  0.00    +0.000 A 
ATOM      3  C   UNL     1      -2.322  12.236  19.547  0.00  0.00    +0.000 A 
ATOM      4  C   UNL     1      -1.876  11.041  18.998  0.00  0.00    +0.000 A 
ATOM      5  C   UNL     1      -0.514  10.864  18.731  0.00  0.00    +0.000 A 
ATOM      6  C   UNL     1      -0.018   9.647  18.235  0.00  0.00    +0.000 A 
ATOM      7  C   UNL     1       1.346   9.458  18.007  0.00  0.00    +0.000 A 
ATOM      8  C   UNL     1       2.204  10.540  18.200  0.00  0.00    +0.000 A 
ATOM      9  C   UNL     1       1.706  11.754  18.705  0.00  0.00    +0.000 A 
ATOM     10  C   UNL     1       0.359  11.933  18.997  0.00  0.00    +0.000 A 
ATOM     11  N   UNL     1      -0.071  13.096  19.522  0.00  0.00    +0.000 NA
ENDROOT
BRANCH   7  12
ATOM     12  N   UNL     1       1.897   8.214  17.616  0.00  0.00    +0.000 N 
ATOM     13  C   UNL     1       2.347   7.238  18.491  0.00  0.00    +0.000 C 
ATOM     14  O   UNL     1       2.301   7.315  19.716  0.00  0.00    +0.000 OA
ATOM     15  H   UNL     1       2.064   8.088  16.628  0.00  0.00    +0.000 HD
BRANCH  13  16
ATOM     16  C   UNL     1       2.932   5.986  17.919  0.00  0.00    +0.000 A 
ATOM     17  C   UNL     1       2.107   4.848  18.039  0.00  0.00    +0.000 A 
ATOM     18  C   UNL     1       2.529   3.593  17.603  0.00  0.00    +0.000 A 
ATOM     19  C   UNL     1       3.780   3.458  17.020  0.00  0.00    +0.000 A 
ATOM     20  C   UNL     1       4.615   4.571  16.901  0.00  0.00    +0.000 A 
ATOM     21  C   UNL     1       4.225   5.841  17.378  0.00  0.00    +0.000 A 
ATOM     22  C   UNL     1       5.243   6.942  17.303  0.00  0.00    +0.000 C 
ENDBRANCH  13  16
ENDBRANCH   7  12
TORSDOF 2
ENDMDL
