MODEL 1
REMARK VINA RESULT:      -8.2      0.000      0.000
REMARK  Name = 
REMARK  4 active torsions:
REMARK  status: ('A' for Active; 'I' for Inactive)
REMARK    1  A    between atoms: C_1  and  C_2
REMARK    2  A    between atoms: C_3  and  C_4
REMARK    3  A    between atoms: C_9  and  C_10
REMARK    4  A    between atoms: C_24  and  C_25
REMARK                            x       y       z     vdW  Elec       q    Type
REMARK                         _______ _______ _______ _____ _____    ______ ____
ROOT
ATOM      1  C   UNL     1       5.784  14.706  17.885  0.00  0.00    +0.000 C 
ATOM      2  C   UNL     1       5.914  15.473  19.176  0.00  0.00    +0.000 A 
ATOM      3  C   UNL     1       4.839  16.140  19.820  0.00  0.00    +0.000 A 
ATOM      4  C   UNL     1       5.112  16.916  20.949  0.00  0.00    +0.000 A 
ATOM      5  C   UNL     1       6.395  16.940  21.466  0.00  0.00    +0.000 A 
ATOM      6  N   UNL     1       7.442  16.315  20.900  0.00  0.00    +0.000 NA
ATOM      7  C   UNL     1       7.187  15.592  19.774  0.00  0.00    +0.000 A 
ENDROOT
BRANCH   7   8
ATOM      8  C   UNL     1       8.432  15.026  19.140  0.00  0.00    +0.000 A 
ATOM      9  N   UNL     1       8.801  13.796  19.347  0.00  0.00    +0.000 NA
ATOM     10  C   UNL     1       9.904  13.383  18.594  0.00  0.00    +0.000 A 
ATOM     11  C   UNL     1      10.415  12.067  18.628  0.00  0.00    +0.000 A 
ATOM     12  C   UNL     1      11.458  11.922  17.735  0.00  0.00    +0.000 A 
ATOM     13  S   UNL     1      11.800  13.387  16.894  0.00  0.00    +0.000 S 
ATOM     14  C   UNL     1      10.559  14.200  17.715  0.00  0.00    +0.000 A 
ATOM     15  C   UNL     1      10.183  15.569  17.523  0.00  0.00    +0.000 A 
ATOM     16  O   UNL     1      10.702  16.371  16.753  0.00  0.00    +0.000 OA
ATOM     17  N   UNL     1       9.108  15.918  18.311  0.00  0.00    +0.000 N 
ATOM     18  H   UNL     1       8.771  16.872  18.239  0.00  0.00    +0.000 HD
ENDBRANCH   7   8
BRANCH   3  19
ATOM     19  C   UNL     1       3.465  16.211  19.217  0.00  0.00    +0.000 C 
ATOM     20  O   UNL     1       3.283  17.102  18.385  0.00  0.00    +0.000 OA
ATOM     21  N   UNL     1       2.399  15.360  19.599  0.00  0.00    +0.000 N 
ATOM     22  C   UNL     1       1.217  15.424  18.723  0.00  0.00    +0.000 C 
ATOM     23  C   UNL     1      -0.096  14.996  19.380  0.00  0.00    +0.000 C 
ATOM     24  C   UNL     1      -0.002  13.711  20.210  0.00  0.00    +0.000 C 
ATOM     25  C   UNL     1       1.207  13.813  21.143  0.00  0.00    +0.000 C 
ATOM     26  C   UNL     1       2.512  14.133  20.399  0.00  0.00    +0.000 C 
BRANCH  24  27
ATOM     27  C   UNL     1      -0.024  12.437  19.382  0.00  0.00    +0.000 A 
ATOM     28  C   UNL     1       1.068  11.677  18.988  0.00  0.00    +0.000 A 
ATOM     29  N   UNL     1       0.633  10.632  18.232  0.00  0.00    +0.000 N 
ATOM     30  C   UNL     1      -0.725  10.682  18.087  0.00  0.00    +0.000 A 
ATOM     31  C   UNL     1      -1.570   9.836  17.357  0.00  0.00    +0.000 A 
ATOM     32  C   UNL     1      -2.938  10.102  17.388  0.00  0.00    +0.000 A 
ATOM     33  C   UNL     1      -3.438  11.164  18.139  0.00  0.00    +0.000 A 
ATOM     34  C   UNL     1      -2.576  12.005  18.860  0.00  0.00    +0.000 A 
ATOM     35  C   UNL     1      -1.180  11.777  18.824  0.00  0.00    +0.000 A 
ATOM     36  H   UNL     1       1.229   9.925  17.820  0.00  0.00    +0.000 HD
ENDBRANCH  24  27
ENDBRANCH   3  19
TORSDOF 3
ENDMDL
MODEL 2
REMARK VINA RESULT:      -8.0      1.496      1.853
REMARK  Name = 
REMARK  4 active torsions:
REMARK  status: ('A' for Active; 'I' for Inactive)
REMARK    1  A    between atoms: C_1  and  C_2
REMARK    2  A    between atoms: C_3  and  C_4
REMARK    3  A    between atoms: C_9  and  C_10
REMARK    4  A    between atoms: C_24  and  C_25
REMARK                            x       y       z     vdW  Elec       q    Type
REMARK                         _______ _______ _______ _____ _____    ______ ____
ROOT
ATOM      1  C   UNL     1       5.969  14.572  17.898  0.00  0.00    +0.000 C 
ATOM      2  C   UNL     1       6.105  15.685  18.907  0.00  0.00    +0.000 A 
ATOM      3  C   UNL     1       5.021  16.472  19.376  0.00  0.00    +0.000 A 
ATOM      4  C   UNL     1       5.293  17.550  20.222  0.00  0.00    +0.000 A 
ATOM      5  C   UNL     1       6.589  17.767  20.655  0.00  0.00    +0.000 A 
ATOM      6  N   UNL     1       7.645  17.041  20.248  0.00  0.00    +0.000 NA
ATOM      7  C   UNL     1       7.388  16.015  19.390  0.00  0.00    +0.000 A 
ENDROOT
BRANCH   7   8
ATOM      8  C   UNL     1       8.638  15.333  18.893  0.00  0.00    +0.000 A 
ATOM      9  N   UNL     1       8.940  14.121  19.256  0.00  0.00    +0.000 NA
ATOM     10  C   UNL     1      10.061  13.583  18.617  0.00  0.00    +0.000 A 
ATOM     11  C   UNL     1      10.510  12.260  18.825  0.00  0.00    +0.000 A 
ATOM     12  C   UNL     1      11.590  11.974  18.014  0.00  0.00    +0.000 A 
ATOM     13  S   UNL     1      12.039  13.321  17.035  0.00  0.00    +0.000 S 
ATOM     14  C   UNL     1      10.796  14.269  17.690  0.00  0.00    +0.000 A 
ATOM     15  C   UNL     1      10.492  15.620  17.327  0.00  0.00    +0.000 A 
ATOM     16  O   UNL     1      11.085  16.310  16.502  0.00  0.00    +0.000 OA
ATOM     17  N   UNL     1       9.395  16.098  18.010  0.00  0.00    +0.000 N 
ATOM     18  H   UNL     1       9.105  17.050  17.813  0.00  0.00    +0.000 HD
ENDBRANCH   7   8
BRANCH   3  19
ATOM     19  C   UNL     1       3.627  16.318  18.837  0.00  0.00    +0.000 C 
ATOM     20  O   UNL     1       3.383  16.915  17.788  0.00  0.00    +0.000 OA
ATOM     21  N   UNL     1       2.610  15.587  19.498  0.00  0.00    +0.000 N 
ATOM     22  C   UNL     1       1.399  15.351  18.693  0.00  0.00    +0.000 C 
ATOM     23  C   UNL     1       0.127  15.098  19.501  0.00  0.00    +0.000 C 
ATOM     24  C   UNL     1       0.300  14.121  20.670  0.00  0.00    +0.000 C 
ATOM     25  C   UNL     1       1.532  14.534  21.480  0.00  0.00    +0.000 C 
ATOM     26  C   UNL     1       2.799  14.658  20.620  0.00  0.00    +0.000 C 
BRANCH  24  27
ATOM     27  C   UNL     1       0.305  12.659  20.259  0.00  0.00    +0.000 A 
ATOM     28  C   UNL     1       0.564  12.147  18.995  0.00  0.00    +0.000 A 
ATOM     29  N   UNL     1       0.440  10.792  19.031  0.00  0.00    +0.000 N 
ATOM     30  C   UNL     1       0.080  10.379  20.283  0.00  0.00    +0.000 A 
ATOM     31  C   UNL     1      -0.196   9.086  20.745  0.00  0.00    +0.000 A 
ATOM     32  C   UNL     1      -0.529   8.934  22.090  0.00  0.00    +0.000 A 
ATOM     33  C   UNL     1      -0.564  10.037  22.941  0.00  0.00    +0.000 A 
ATOM     34  C   UNL     1      -0.291  11.328  22.459  0.00  0.00    +0.000 A 
ATOM     35  C   UNL     1       0.022  11.516  21.093  0.00  0.00    +0.000 A 
ATOM     36  H   UNL     1       0.577  10.175  18.240  0.00  0.00    +0.000 HD
ENDBRANCH  24  27
ENDBRANCH   3  19
TORSDOF 3
ENDMDL
MODEL 3
REMARK VINA RESULT:      -8.0      3.558      9.425
REMARK  Name = 
REMARK  4 active torsions:
REMARK  status: ('A' for Active; 'I' for Inactive)
REMARK    1  A    between atoms: C_1  and  C_2
REMARK    2  A    between atoms: C_3  and  C_4
REMARK    3  A    between atoms: C_9  and  C_10
REMARK    4  A    between atoms: C_24  and  C_25
REMARK                            x       y       z     vdW  Elec       q    Type
REMARK                         _______ _______ _______ _____ _____    ______ ____
ROOT
ATOM      1  C   UNL     1       3.397  14.236  20.922  0.00  0.00    +0.000 C 
ATOM      2  C   UNL     1       2.509  14.989  19.964  0.00  0.00    +0.000 A 
ATOM      3  C   UNL     1       2.896  16.170  19.279  0.00  0.00    +0.000 A 
ATOM      4  C   UNL     1       1.941  16.841  18.509  0.00  0.00    +0.000 A 
ATOM      5  C   UNL     1       0.681  16.293  18.358  0.00  0.00    +0.000 A 
ATOM      6  N   UNL     1       0.272  15.172  18.976  0.00  0.00    +0.000 NA
ATOM      7  C   UNL     1       1.188  14.538  19.760  0.00  0.00    +0.000 A 
ENDROOT
BRANCH   7   8
ATOM      8  C   UNL     1       0.613  13.361  20.507  0.00  0.00    +0.000 A 
ATOM      9  N   UNL     1       0.877  12.137  20.154  0.00  0.00    +0.000 NA
ATOM     10  C   UNL     1       0.373  11.160  21.016  0.00  0.00    +0.000 A 
ATOM     11  C   UNL     1       0.608   9.778  20.841  0.00  0.00    +0.000 A 
ATOM     12  C   UNL     1       0.054   9.050  21.876  0.00  0.00    +0.000 A 
ATOM     13  S   UNL     1      -0.749  10.059  23.020  0.00  0.00    +0.000 S 
ATOM     14  C   UNL     1      -0.352  11.451  22.139  0.00  0.00    +0.000 A 
ATOM     15  C   UNL     1      -0.684  12.796  22.501  0.00  0.00    +0.000 A 
ATOM     16  O   UNL     1      -1.317  13.155  23.489  0.00  0.00    +0.000 OA
ATOM     17  N   UNL     1      -0.180  13.708  21.599  0.00  0.00    +0.000 N 
ATOM     18  H   UNL     1      -0.366  14.689  21.778  0.00  0.00    +0.000 HD
ENDBRANCH   7   8
BRANCH   3  19
ATOM     19  C   UNL     1       4.223  16.834  19.514  0.00  0.00    +0.000 C 
ATOM     20  O   UNL     1       4.192  17.908  20.117  0.00  0.00    +0.000 OA
ATOM     21  N   UNL     1       5.451  16.317  19.034  0.00  0.00    +0.000 N 
ATOM     22  C   UNL     1       6.650  16.978  19.577  0.00  0.00    +0.000 C 
ATOM     23  C   UNL     1       7.900  16.863  18.705  0.00  0.00    +0.000 C 
ATOM     24  C   UNL     1       8.159  15.458  18.147  0.00  0.00    +0.000 C 
ATOM     25  C   UNL     1       6.863  14.927  17.528  0.00  0.00    +0.000 C 
ATOM     26  C   UNL     1       5.675  14.968  18.500  0.00  0.00    +0.000 C 
BRANCH  24  27
ATOM     27  C   UNL     1       8.791  14.504  19.145  0.00  0.00    +0.000 A 
ATOM     28  C   UNL     1       8.520  14.412  20.503  0.00  0.00    +0.000 A 
ATOM     29  N   UNL     1       9.317  13.456  21.053  0.00  0.00    +0.000 N 
ATOM     30  C   UNL     1      10.138  12.916  20.103  0.00  0.00    +0.000 A 
ATOM     31  C   UNL     1      11.136  11.944  20.243  0.00  0.00    +0.000 A 
ATOM     32  C   UNL     1      11.826  11.552  19.097  0.00  0.00    +0.000 A 
ATOM     33  C   UNL     1      11.511  12.102  17.856  0.00  0.00    +0.000 A 
ATOM     34  C   UNL     1      10.511  13.081  17.735  0.00  0.00    +0.000 A 
ATOM     35  C   UNL     1       9.813  13.518  18.885  0.00  0.00    +0.000 A 
ATOM     36  H   UNL     1       9.317  13.191  22.030  0.00  0.00    +0.000 HD
ENDBRANCH  24  27
ENDBRANCH   3  19
TORSDOF 3
ENDMDL
MODEL 4
REMARK VINA RESULT:      -7.9      2.208      3.350
REMARK  Name = 
REMARK  4 active torsions:
REMARK  status: ('A' for Active; 'I' for Inactive)
REMARK    1  A    between atoms: C_1  and  C_2
REMARK    2  A    between atoms: C_3  and  C_4
REMARK    3  A    between atoms: C_9  and  C_10
REMARK    4  A    between atoms: C_24  and  C_25
REMARK                            x       y       z     vdW  Elec       q    Type
REMARK                         _______ _______ _______ _____ _____    ______ ____
ROOT
ATOM      1  C   UNL     1       4.607  14.513  20.663  0.00  0.00    +0.000 C 
ATOM      2  C   UNL     1       3.893  15.471  19.744  0.00  0.00    +0.000 A 
ATOM      3  C   UNL     1       2.499  15.736  19.796  0.00  0.00    +0.000 A 
ATOM      4  C   UNL     1       1.935  16.554  18.813  0.00  0.00    +0.000 A 
ATOM      5  C   UNL     1       2.756  17.158  17.877  0.00  0.00    +0.000 A 
ATOM      6  N   UNL     1       4.080  16.948  17.796  0.00  0.00    +0.000 NA
ATOM      7  C   UNL     1       4.626  16.118  18.727  0.00  0.00    +0.000 A 
ENDROOT
BRANCH   7   8
ATOM      8  C   UNL     1       6.090  15.844  18.490  0.00  0.00    +0.000 A 
ATOM      9  N   UNL     1       7.006  16.699  18.840  0.00  0.00    +0.000 NA
ATOM     10  C   UNL     1       8.318  16.250  18.668  0.00  0.00    +0.000 A 
ATOM     11  C   UNL     1       9.450  17.003  19.050  0.00  0.00    +0.000 A 
ATOM     12  C   UNL     1      10.612  16.290  18.832  0.00  0.00    +0.000 A 
ATOM     13  S   UNL     1      10.301  14.735  18.156  0.00  0.00    +0.000 S 
ATOM     14  C   UNL     1       8.629  15.018  18.163  0.00  0.00    +0.000 A 
ATOM     15  C   UNL     1       7.622  14.096  17.732  0.00  0.00    +0.000 A 
ATOM     16  O   UNL     1       7.802  12.970  17.278  0.00  0.00    +0.000 OA
ATOM     17  N   UNL     1       6.354  14.608  17.905  0.00  0.00    +0.000 N 
ATOM     18  H   UNL     1       5.575  14.021  17.627  0.00  0.00    +0.000 HD
ENDBRANCH   7   8
BRANCH   3  19
ATOM     19  C   UNL     1       1.580  15.010  20.737  0.00  0.00    +0.000 C 
ATOM     20  O   UNL     1       1.475  15.487  21.867  0.00  0.00    +0.000 OA
ATOM     21  N   UNL     1       0.904  13.812  20.399  0.00  0.00    +0.000 N 
ATOM     22  C   UNL     1      -0.131  13.398  21.362  0.00  0.00    +0.000 C 
ATOM     23  C   UNL     1      -0.460  11.905  21.353  0.00  0.00    +0.000 C 
ATOM     24  C   UNL     1      -0.629  11.300  19.954  0.00  0.00    +0.000 C 
ATOM     25  C   UNL     1       0.557  11.726  19.085  0.00  0.00    +0.000 C 
ATOM     26  C   UNL     1       0.757  13.248  19.050  0.00  0.00    +0.000 C 
BRANCH  24  27
ATOM     27  C   UNL     1      -1.980  11.581  19.318  0.00  0.00    +0.000 A 
ATOM     28  C   UNL     1      -3.020  12.323  19.858  0.00  0.00    +0.000 A 
ATOM     29  N   UNL     1      -4.071  12.313  18.993  0.00  0.00    +0.000 N 
ATOM     30  C   UNL     1      -3.773  11.560  17.892  0.00  0.00    +0.000 A 
ATOM     31  C   UNL     1      -4.576  11.249  16.787  0.00  0.00    +0.000 A 
ATOM     32  C   UNL     1      -4.017  10.465  15.779  0.00  0.00    +0.000 A 
ATOM     33  C   UNL     1      -2.697  10.028  15.869  0.00  0.00    +0.000 A 
ATOM     34  C   UNL     1      -1.908  10.345  16.987  0.00  0.00    +0.000 A 
ATOM     35  C   UNL     1      -2.457  11.115  18.038  0.00  0.00    +0.000 A 
ATOM     36  H   UNL     1      -4.955  12.780  19.147  0.00  0.00    +0.000 HD
ENDBRANCH  24  27
ENDBRANCH   3  19
TORSDOF 3
ENDMDL
MODEL 5
REMARK VINA RESULT:      -7.9      1.751      2.512
REMARK  Name = 
REMARK  4 active torsions:
REMARK  status: ('A' for Active; 'I' for Inactive)
REMARK    1  A    between atoms: C_1  and  C_2
REMARK    2  A    between atoms: C_3  and  C_4
REMARK    3  A    between atoms: C_9  and  C_10
REMARK    4  A    between atoms: C_24  and  C_25
REMARK                            x       y       z     vdW  Elec       q    Type
REMARK                         _______ _______ _______ _____ _____    ______ ____
ROOT
ATOM      1  C   UNL     1       4.349  15.420  18.139  0.00  0.00    +0.000 C 
ATOM      2  C   UNL     1       4.570  15.110  19.598  0.00  0.00    +0.000 A 
ATOM      3  C   UNL     1       3.525  14.899  20.535  0.00  0.00    +0.000 A 
ATOM      4  C   UNL     1       3.857  14.737  21.883  0.00  0.00    +0.000 A 
ATOM      5  C   UNL     1       5.188  14.692  22.256  0.00  0.00    +0.000 A 
ATOM      6  N   UNL     1       6.211  14.874  21.404  0.00  0.00    +0.000 NA
ATOM      7  C   UNL     1       5.889  15.074  20.096  0.00  0.00    +0.000 A 
ENDROOT
BRANCH   7   8
ATOM      8  C   UNL     1       7.086  15.387  19.233  0.00  0.00    +0.000 A 
ATOM      9  N   UNL     1       7.482  16.612  19.040  0.00  0.00    +0.000 NA
ATOM     10  C   UNL     1       8.674  16.732  18.321  0.00  0.00    +0.000 A 
ATOM     11  C   UNL     1       9.302  17.971  18.065  0.00  0.00    +0.000 A 
ATOM     12  C   UNL     1      10.497  17.789  17.399  0.00  0.00    +0.000 A 
ATOM     13  S   UNL     1      10.818  16.123  17.088  0.00  0.00    +0.000 S 
ATOM     14  C   UNL     1       9.374  15.658  17.843  0.00  0.00    +0.000 A 
ATOM     15  C   UNL     1       8.912  14.313  18.014  0.00  0.00    +0.000 A 
ATOM     16  O   UNL     1       9.473  13.291  17.632  0.00  0.00    +0.000 OA
ATOM     17  N   UNL     1       7.722  14.266  18.708  0.00  0.00    +0.000 N 
ATOM     18  H   UNL     1       7.321  13.350  18.877  0.00  0.00    +0.000 HD
ENDBRANCH   7   8
BRANCH   3  19
ATOM     19  C   UNL     1       2.076  15.049  20.167  0.00  0.00    +0.000 C 
ATOM     20  O   UNL     1       1.722  16.172  19.806  0.00  0.00    +0.000 OA
ATOM     21  N   UNL     1       1.131  14.000  20.273  0.00  0.00    +0.000 N 
ATOM     22  C   UNL     1      -0.168  14.275  19.635  0.00  0.00    +0.000 C 
ATOM     23  C   UNL     1      -1.343  13.471  20.190  0.00  0.00    +0.000 C 
ATOM     24  C   UNL     1      -1.052  11.980  20.396  0.00  0.00    +0.000 C 
ATOM     25  C   UNL     1       0.271  11.836  21.152  0.00  0.00    +0.000 C 
ATOM     26  C   UNL     1       1.433  12.576  20.473  0.00  0.00    +0.000 C 
BRANCH  24  27
ATOM     27  C   UNL     1      -1.116  11.156  19.122  0.00  0.00    +0.000 A 
ATOM     28  C   UNL     1      -0.119  10.345  18.599  0.00  0.00    +0.000 A 
ATOM     29  N   UNL     1      -0.554   9.804  17.429  0.00  0.00    +0.000 N 
ATOM     30  C   UNL     1      -1.813  10.249  17.137  0.00  0.00    +0.000 A 
ATOM     31  C   UNL     1      -2.610   9.980  16.017  0.00  0.00    +0.000 A 
ATOM     32  C   UNL     1      -3.879  10.554  15.971  0.00  0.00    +0.000 A 
ATOM     33  C   UNL     1      -4.336  11.351  17.019  0.00  0.00    +0.000 A 
ATOM     34  C   UNL     1      -3.520  11.615  18.132  0.00  0.00    +0.000 A 
ATOM     35  C   UNL     1      -2.217  11.069  18.192  0.00  0.00    +0.000 A 
ATOM     36  H   UNL     1      -0.018   9.174  16.845  0.00  0.00    +0.000 HD
ENDBRANCH  24  27
ENDBRANCH   3  19
TORSDOF 3
ENDMDL
MODEL 6
REMARK VINA RESULT:      -7.8      1.220      1.572
REMARK  Name = 
REMARK  4 active torsions:
REMARK  status: ('A' for Active; 'I' for Inactive)
REMARK    1  A    between atoms: C_1  and  C_2
REMARK    2  A    between atoms: C_3  and  C_4
REMARK    3  A    between atoms: C_9  and  C_10
REMARK    4  A    between atoms: C_24  and  C_25
REMARK                            x       y       z     vdW  Elec       q    Type
REMARK                         _______ _______ _______ _____ _____    ______ ____
ROOT
ATOM      1  C   UNL     1       5.664  14.283  18.019  0.00  0.00    +0.000 C 
ATOM      2  C   UNL     1       5.937  15.346  19.054  0.00  0.00    +0.000 A 
ATOM      3  C   UNL     1       4.969  16.277  19.515  0.00  0.00    +0.000 A 
ATOM      4  C   UNL     1       5.376  17.289  20.388  0.00  0.00    +0.000 A 
ATOM      5  C   UNL     1       6.679  17.305  20.853  0.00  0.00    +0.000 A 
ATOM      6  N   UNL     1       7.626  16.439  20.455  0.00  0.00    +0.000 NA
ATOM      7  C   UNL     1       7.243  15.476  19.572  0.00  0.00    +0.000 A 
ENDROOT
BRANCH   7   8
ATOM      8  C   UNL     1       8.391  14.626  19.088  0.00  0.00    +0.000 A 
ATOM      9  N   UNL     1       9.153  15.009  18.106  0.00  0.00    +0.000 NA
ATOM     10  C   UNL     1      10.246  14.173  17.857  0.00  0.00    +0.000 A 
ATOM     11  C   UNL     1      11.224  14.451  16.877  0.00  0.00    +0.000 A 
ATOM     12  C   UNL     1      12.224  13.498  16.896  0.00  0.00    +0.000 A 
ATOM     13  S   UNL     1      11.939  12.286  18.089  0.00  0.00    +0.000 S 
ATOM     14  C   UNL     1      10.499  13.036  18.573  0.00  0.00    +0.000 A 
ATOM     15  C   UNL     1       9.633  12.589  19.622  0.00  0.00    +0.000 A 
ATOM     16  O   UNL     1       9.782  11.593  20.323  0.00  0.00    +0.000 OA
ATOM     17  N   UNL     1       8.564  13.441  19.800  0.00  0.00    +0.000 N 
ATOM     18  H   UNL     1       7.897  13.203  20.526  0.00  0.00    +0.000 HD
ENDBRANCH   7   8
BRANCH   3  19
ATOM     19  C   UNL     1       3.581  16.339  18.943  0.00  0.00    +0.000 C 
ATOM     20  O   UNL     1       3.390  17.194  18.077  0.00  0.00    +0.000 OA
ATOM     21  N   UNL     1       2.516  15.519  19.388  0.00  0.00    +0.000 N 
ATOM     22  C   UNL     1       1.312  15.560  18.539  0.00  0.00    +0.000 C 
ATOM     23  C   UNL     1       0.012  15.179  19.246  0.00  0.00    +0.000 C 
ATOM     24  C   UNL     1       0.111  13.931  20.129  0.00  0.00    +0.000 C 
ATOM     25  C   UNL     1       1.344  14.059  21.028  0.00  0.00    +0.000 C 
ATOM     26  C   UNL     1       2.633  14.328  20.239  0.00  0.00    +0.000 C 
BRANCH  24  27
ATOM     27  C   UNL     1       0.053  12.622  19.360  0.00  0.00    +0.000 A 
ATOM     28  C   UNL     1       1.126  11.843  18.953  0.00  0.00    +0.000 A 
ATOM     29  N   UNL     1       0.659  10.767  18.263  0.00  0.00    +0.000 N 
ATOM     30  C   UNL     1      -0.704  10.813  18.175  0.00  0.00    +0.000 A 
ATOM     31  C   UNL     1      -1.580   9.938  17.520  0.00  0.00    +0.000 A 
ATOM     32  C   UNL     1      -2.945  10.207  17.598  0.00  0.00    +0.000 A 
ATOM     33  C   UNL     1      -3.412  11.302  18.323  0.00  0.00    +0.000 A 
ATOM     34  C   UNL     1      -2.519  12.173  18.969  0.00  0.00    +0.000 A 
ATOM     35  C   UNL     1      -1.127  11.941  18.883  0.00  0.00    +0.000 A 
ATOM     36  H   UNL     1       1.236  10.042  17.857  0.00  0.00    +0.000 HD
ENDBRANCH  24  27
ENDBRANCH   3  19
TORSDOF 3
ENDMDL
MODEL 7
REMARK VINA RESULT:      -7.8      1.716      2.262
REMARK  Name = 
REMARK  4 active torsions:
REMARK  status: ('A' for Active; 'I' for Inactive)
REMARK    1  A    between atoms: C_1  and  C_2
REMARK    2  A    between atoms: C_3  and  C_4
REMARK    3  A    between atoms: C_9  and  C_10
REMARK    4  A    between atoms: C_24  and  C_25
REMARK                            x       y       z     vdW  Elec       q    Type
REMARK                         _______ _______ _______ _____ _____    ______ ____
ROOT
ATOM      1  C   UNL     1       5.659  14.476  17.905  0.00  0.00    +0.000 C 
ATOM      2  C   UNL     1       5.951  15.555  18.917  0.00  0.00    +0.000 A 
ATOM      3  C   UNL     1       5.016  16.546  19.318  0.00  0.00    +0.000 A 
ATOM      4  C   UNL     1       5.445  17.563  20.175  0.00  0.00    +0.000 A 
ATOM      5  C   UNL     1       6.730  17.528  20.685  0.00  0.00    +0.000 A 
ATOM      6  N   UNL     1       7.646  16.605  20.345  0.00  0.00    +0.000 NA
ATOM      7  C   UNL     1       7.243  15.636  19.476  0.00  0.00    +0.000 A 
ENDROOT
BRANCH   7   8
ATOM      8  C   UNL     1       8.362  14.716  19.057  0.00  0.00    +0.000 A 
ATOM      9  N   UNL     1       9.149  15.011  18.064  0.00  0.00    +0.000 NA
ATOM     10  C   UNL     1      10.211  14.121  17.877  0.00  0.00    +0.000 A 
ATOM     11  C   UNL     1      11.209  14.304  16.895  0.00  0.00    +0.000 A 
ATOM     12  C   UNL     1      12.170  13.316  16.982  0.00  0.00    +0.000 A 
ATOM     13  S   UNL     1      11.828  12.188  18.239  0.00  0.00    +0.000 S 
ATOM     14  C   UNL     1      10.413  13.019  18.661  0.00  0.00    +0.000 A 
ATOM     15  C   UNL     1       9.519  12.668  19.724  0.00  0.00    +0.000 A 
ATOM     16  O   UNL     1       9.623  11.710  20.484  0.00  0.00    +0.000 OA
ATOM     17  N   UNL     1       8.483  13.569  19.839  0.00  0.00    +0.000 N 
ATOM     18  H   UNL     1       7.800  13.400  20.570  0.00  0.00    +0.000 HD
ENDBRANCH   7   8
BRANCH   3  19
ATOM     19  C   UNL     1       3.653  16.659  18.697  0.00  0.00    +0.000 C 
ATOM     20  O   UNL     1       3.568  17.386  17.706  0.00  0.00    +0.000 OA
ATOM     21  N   UNL     1       2.499  16.030  19.225  0.00  0.00    +0.000 N 
ATOM     22  C   UNL     1       1.322  16.061  18.340  0.00  0.00    +0.000 C 
ATOM     23  C   UNL     1      -0.024  15.927  19.052  0.00  0.00    +0.000 C 
ATOM     24  C   UNL     1      -0.072  14.826  20.117  0.00  0.00    +0.000 C 
ATOM     25  C   UNL     1       1.152  14.966  21.027  0.00  0.00    +0.000 C 
ATOM     26  C   UNL     1       2.476  14.978  20.250  0.00  0.00    +0.000 C 
BRANCH  24  27
ATOM     27  C   UNL     1      -0.254  13.428  19.554  0.00  0.00    +0.000 A 
ATOM     28  C   UNL     1      -0.536  13.086  18.239  0.00  0.00    +0.000 A 
ATOM     29  N   UNL     1      -0.654  11.733  18.146  0.00  0.00    +0.000 N 
ATOM     30  C   UNL     1      -0.481  11.155  19.372  0.00  0.00    +0.000 A 
ATOM     31  C   UNL     1      -0.563   9.804  19.735  0.00  0.00    +0.000 A 
ATOM     32  C   UNL     1      -0.325   9.474  21.068  0.00  0.00    +0.000 A 
ATOM     33  C   UNL     1       0.003  10.461  21.995  0.00  0.00    +0.000 A 
ATOM     34  C   UNL     1       0.075  11.811  21.616  0.00  0.00    +0.000 A 
ATOM     35  C   UNL     1      -0.190  12.179  20.276  0.00  0.00    +0.000 A 
ATOM     36  H   UNL     1      -0.857  11.224  17.295  0.00  0.00    +0.000 HD
ENDBRANCH  24  27
ENDBRANCH   3  19
TORSDOF 3
ENDMDL
MODEL 8
REMARK VINA RESULT:      -7.8      2.095      3.352
REMARK  Name = 
REMARK  4 active torsions:
REMARK  status: ('A' for Active; 'I' for Inactive)
REMARK    1  A    between atoms: C_1  and  C_2
REMARK    2  A    between atoms: C_3  and  C_4
REMARK    3  A    between atoms: C_9  and  C_10
REMARK    4  A    between atoms: C_24  and  C_25
REMARK                            x       y       z     vdW  Elec       q    Type
REMARK                         _______ _______ _______ _____ _____    ______ ____
ROOT
ATOM      1  C   UNL     1       3.683  14.977  20.688  0.00  0.00    +0.000 C 
ATOM      2  C   UNL     1       3.184  15.812  19.536  0.00  0.00    +0.000 A 
ATOM      3  C   UNL     1       1.837  16.233  19.381  0.00  0.00    +0.000 A 
ATOM      4  C   UNL     1       1.476  16.903  18.209  0.00  0.00    +0.000 A 
ATOM      5  C   UNL     1       2.449  17.222  17.279  0.00  0.00    +0.000 A 
ATOM      6  N   UNL     1       3.738  16.857  17.388  0.00  0.00    +0.000 NA
ATOM      7  C   UNL     1       4.085  16.166  18.510  0.00  0.00    +0.000 A 
ENDROOT
BRANCH   7   8
ATOM      8  C   UNL     1       5.517  15.694  18.494  0.00  0.00    +0.000 A 
ATOM      9  N   UNL     1       5.840  14.520  18.036  0.00  0.00    +0.000 NA
ATOM     10  C   UNL     1       7.215  14.276  17.974  0.00  0.00    +0.000 A 
ATOM     11  C   UNL     1       7.767  13.089  17.445  0.00  0.00    +0.000 A 
ATOM     12  C   UNL     1       9.147  13.147  17.442  0.00  0.00    +0.000 A 
ATOM     13  S   UNL     1       9.734  14.631  18.094  0.00  0.00    +0.000 S 
ATOM     14  C   UNL     1       8.156  15.186  18.370  0.00  0.00    +0.000 A 
ATOM     15  C   UNL     1       7.799  16.459  18.920  0.00  0.00    +0.000 A 
ATOM     16  O   UNL     1       8.569  17.340  19.291  0.00  0.00    +0.000 OA
ATOM     17  N   UNL     1       6.432  16.626  18.977  0.00  0.00    +0.000 N 
ATOM     18  H   UNL     1       6.087  17.503  19.352  0.00  0.00    +0.000 HD
ENDBRANCH   7   8
BRANCH   3  19
ATOM     19  C   UNL     1       0.750  15.806  20.326  0.00  0.00    +0.000 C 
ATOM     20  O   UNL     1       0.448  16.616  21.204  0.00  0.00    +0.000 OA
ATOM     21  N   UNL     1       0.128  14.535  20.278  0.00  0.00    +0.000 N 
ATOM     22  C   UNL     1      -1.072  14.406  21.123  0.00  0.00    +0.000 C 
ATOM     23  C   UNL     1      -1.417  12.976  21.538  0.00  0.00    +0.000 C 
ATOM     24  C   UNL     1      -1.338  11.949  20.403  0.00  0.00    +0.000 C 
ATOM     25  C   UNL     1      -0.007  12.126  19.669  0.00  0.00    +0.000 C 
ATOM     26  C   UNL     1       0.221  13.564  19.181  0.00  0.00    +0.000 C 
BRANCH  24  27
ATOM     27  C   UNL     1      -2.545  11.951  19.481  0.00  0.00    +0.000 A 
ATOM     28  C   UNL     1      -3.761  12.584  19.697  0.00  0.00    +0.000 A 
ATOM     29  N   UNL     1      -4.592  12.320  18.652  0.00  0.00    +0.000 N 
ATOM     30  C   UNL     1      -3.974  11.504  17.746  0.00  0.00    +0.000 A 
ATOM     31  C   UNL     1      -4.477  10.956  16.559  0.00  0.00    +0.000 A 
ATOM     32  C   UNL     1      -3.622  10.159  15.800  0.00  0.00    +0.000 A 
ATOM     33  C   UNL     1      -2.308   9.938  16.207  0.00  0.00    +0.000 A 
ATOM     34  C   UNL     1      -1.823  10.491  17.404  0.00  0.00    +0.000 A 
ATOM     35  C   UNL     1      -2.676  11.281  18.210  0.00  0.00    +0.000 A 
ATOM     36  H   UNL     1      -5.540  12.663  18.562  0.00  0.00    +0.000 HD
ENDBRANCH  24  27
ENDBRANCH   3  19
TORSDOF 3
ENDMDL
MODEL 9
REMARK VINA RESULT:      -7.8      7.427     10.852
REMARK  Name = 
REMARK  4 active torsions:
REMARK  status: ('A' for Active; 'I' for Inactive)
REMARK    1  A    between atoms: C_1  and  C_2
REMARK    2  A    between atoms: C_3  and  C_4
REMARK    3  A    between atoms: C_9  and  C_10
REMARK    4  A    between atoms: C_24  and  C_25
REMARK                            x       y       z     vdW  Elec       q    Type
REMARK                         _______ _______ _______ _____ _____    ______ ____
ROOT
ATOM      1  C   UNL     1      -0.585  11.627  19.916  0.00  0.00    +0.000 C 
ATOM      2  C   UNL     1      -0.046  10.779  21.040  0.00  0.00    +0.000 A 
ATOM      3  C   UNL     1       0.802   9.656  20.855  0.00  0.00    +0.000 A 
ATOM      4  C   UNL     1       1.139   8.880  21.968  0.00  0.00    +0.000 A 
ATOM      5  C   UNL     1       0.720   9.275  23.226  0.00  0.00    +0.000 A 
ATOM      6  N   UNL     1      -0.073  10.337  23.452  0.00  0.00    +0.000 NA
ATOM      7  C   UNL     1      -0.437  11.070  22.364  0.00  0.00    +0.000 A 
ENDROOT
BRANCH   7   8
ATOM      8  C   UNL     1      -1.420  12.166  22.692  0.00  0.00    +0.000 A 
ATOM      9  N   UNL     1      -2.704  11.960  22.661  0.00  0.00    +0.000 NA
ATOM     10  C   UNL     1      -3.479  13.033  23.108  0.00  0.00    +0.000 A 
ATOM     11  C   UNL     1      -4.886  12.982  23.212  0.00  0.00    +0.000 A 
ATOM     12  C   UNL     1      -5.383  14.153  23.748  0.00  0.00    +0.000 A 
ATOM     13  S   UNL     1      -4.132  15.288  24.094  0.00  0.00    +0.000 S 
ATOM     14  C   UNL     1      -2.944  14.217  23.537  0.00  0.00    +0.000 A 
ATOM     15  C   UNL     1      -1.533  14.462  23.526  0.00  0.00    +0.000 A 
ATOM     16  O   UNL     1      -0.962  15.482  23.899  0.00  0.00    +0.000 OA
ATOM     17  N   UNL     1      -0.830  13.376  23.051  0.00  0.00    +0.000 N 
ATOM     18  H   UNL     1       0.181  13.459  23.010  0.00  0.00    +0.000 HD
ENDBRANCH   7   8
BRANCH   3  19
ATOM     19  C   UNL     1       1.180   9.154  19.491  0.00  0.00    +0.000 C 
ATOM     20  O   UNL     1       1.043   9.952  18.563  0.00  0.00    +0.000 OA
ATOM     21  N   UNL     1       1.616   7.830  19.239  0.00  0.00    +0.000 N 
ATOM     22  C   UNL     1       2.170   7.611  17.892  0.00  0.00    +0.000 C 
ATOM     23  C   UNL     1       2.113   6.165  17.399  0.00  0.00    +0.000 C 
ATOM     24  C   UNL     1       2.555   5.123  18.434  0.00  0.00    +0.000 C 
ATOM     25  C   UNL     1       1.837   5.405  19.756  0.00  0.00    +0.000 C 
ATOM     26  C   UNL     1       2.033   6.846  20.248  0.00  0.00    +0.000 C 
BRANCH  24  27
ATOM     27  C   UNL     1       4.062   4.995  18.576  0.00  0.00    +0.000 A 
ATOM     28  C   UNL     1       4.803   5.099  19.745  0.00  0.00    +0.000 A 
ATOM     29  N   UNL     1       6.124   4.955  19.448  0.00  0.00    +0.000 N 
ATOM     30  C   UNL     1       6.294   4.780  18.104  0.00  0.00    +0.000 A 
ATOM     31  C   UNL     1       7.479   4.639  17.371  0.00  0.00    +0.000 A 
ATOM     32  C   UNL     1       7.373   4.454  15.994  0.00  0.00    +0.000 A 
ATOM     33  C   UNL     1       6.123   4.393  15.380  0.00  0.00    +0.000 A 
ATOM     34  C   UNL     1       4.945   4.542  16.130  0.00  0.00    +0.000 A 
ATOM     35  C   UNL     1       5.023   4.760  17.525  0.00  0.00    +0.000 A 
ATOM     36  H   UNL     1       6.878   4.990  20.123  0.00  0.00    +0.000 HD
ENDBRANCH  24  27
ENDBRANCH   3  19
TORSDOF 3
ENDMDL
