MODEL 1
REMARK VINA RESULT:      -6.6      0.000      0.000
REMARK  Name = 
REMARK  9 active torsions:
REMARK  status: ('A' for Active; 'I' for Inactive)
REMARK    1  A    between atoms: N_2  and  N_3
REMARK    2  A    between atoms: N_3  and  C_4
REMARK    3  A    between atoms: C_4  and  C_5
REMARK    4  A    between atoms: N_9  and  C_10
REMARK    5  A    between atoms: C_12  and  C_13
REMARK    6  A    between atoms: C_13  and  O_14
REMARK    7  A    between atoms: C_15  and  O_16
REMARK    8  A    between atoms: C_17  and  O_18
REMARK    9  A    between atoms: C_19  and  O_20
REMARK                            x       y       z     vdW  Elec       q    Type
REMARK                         _______ _______ _______ _____ _____    ______ ____
ROOT
ATOM      1  C   UNL     1       4.425   3.070  18.742  0.00  0.00    +0.000 C 
ATOM      2  O   UNL     1       3.466   3.996  18.230  0.00  0.00    +0.000 OA
ATOM      3  C   UNL     1       2.114   3.540  18.403  0.00  0.00    +0.000 C 
ATOM      4  C   UNL     1       1.801   3.377  19.901  0.00  0.00    +0.000 C 
ATOM      5  C   UNL     1       2.796   2.388  20.520  0.00  0.00    +0.000 C 
ATOM      6  C   UNL     1       4.245   2.870  20.272  0.00  0.00    +0.000 C 
ENDROOT
BRANCH   1  10
ATOM      7  N   UNL     1       7.436   5.206  18.415  0.00  0.00    +0.000 N 
ATOM      8  C   UNL     1       6.148   4.848  18.817  0.00  0.00    +0.000 C 
ATOM      9  O   UNL     1       5.468   5.553  19.570  0.00  0.00    +0.000 OA
ATOM     10  N   UNL     1       5.684   3.640  18.359  0.00  0.00    +0.000 N 
ATOM     11  H   UNL     1       6.209   3.120  17.676  0.00  0.00    +0.000 HD
BRANCH   7  13
ATOM     12  O   UNL     1       7.993   4.299  16.465  0.00  0.00    +0.000 OA
ATOM     13  N   UNL     1       8.205   4.289  17.681  0.00  0.00    +0.000 NA
ENDBRANCH   7  13
BRANCH   7  14
ATOM     14  C   UNL     1       7.962   6.534  18.745  0.00  0.00    +0.000 C 
BRANCH  14  15
ATOM     15  C   UNL     1       7.731   7.612  17.686  0.00  0.00    +0.000 C 
ATOM     16 CL   UNL     1       8.407   9.191  18.153  0.00  0.00    +0.000 Cl
ENDBRANCH  14  15
ENDBRANCH   7  14
ENDBRANCH   1  10
BRANCH   4  17
ATOM     17  O   UNL     1       1.939   4.607  20.635  0.00  0.00    +0.000 OA
ATOM     18  H   UNL     1       2.826   4.974  20.427  0.00  0.00    +0.000 HD
ENDBRANCH   4  17
BRANCH   5  19
ATOM     19  O   UNL     1       2.525   2.255  21.919  0.00  0.00    +0.000 OA
ATOM     20  H   UNL     1       3.304   1.796  22.294  0.00  0.00    +0.000 HD
ENDBRANCH   5  19
BRANCH   6  21
ATOM     21  O   UNL     1       5.194   1.948  20.823  0.00  0.00    +0.000 OA
ATOM     22  H   UNL     1       6.000   2.435  21.064  0.00  0.00    +0.000 HD
ENDBRANCH   6  21
BRANCH   3  23
ATOM     23  C   UNL     1       1.196   4.554  17.714  0.00  0.00    +0.000 C 
BRANCH  23  24
ATOM     24  O   UNL     1       1.697   5.881  17.884  0.00  0.00    +0.000 OA
ATOM     25  H   UNL     1       2.064   6.140  17.016  0.00  0.00    +0.000 HD
ENDBRANCH  23  24
ENDBRANCH   3  23
TORSDOF 9
ENDMDL
MODEL 2
REMARK VINA RESULT:      -6.6      3.140      6.365
REMARK  Name = 
REMARK  9 active torsions:
REMARK  status: ('A' for Active; 'I' for Inactive)
REMARK    1  A    between atoms: N_2  and  N_3
REMARK    2  A    between atoms: N_3  and  C_4
REMARK    3  A    between atoms: C_4  and  C_5
REMARK    4  A    between atoms: N_9  and  C_10
REMARK    5  A    between atoms: C_12  and  C_13
REMARK    6  A    between atoms: C_13  and  O_14
REMARK    7  A    between atoms: C_15  and  O_16
REMARK    8  A    between atoms: C_17  and  O_18
REMARK    9  A    between atoms: C_19  and  O_20
REMARK                            x       y       z     vdW  Elec       q    Type
REMARK                         _______ _______ _______ _____ _____    ______ ____
ROOT
ATOM      1  C   UNL     1       5.326   3.997  17.023  0.00  0.00    +0.000 C 
ATOM      2  O   UNL     1       5.680   4.850  18.112  0.00  0.00    +0.000 OA
ATOM      3  C   UNL     1       7.095   5.090  18.185  0.00  0.00    +0.000 C 
ATOM      4  C   UNL     1       7.576   5.798  16.905  0.00  0.00    +0.000 C 
ATOM      5  C   UNL     1       7.229   4.931  15.688  0.00  0.00    +0.000 C 
ATOM      6  C   UNL     1       5.710   4.640  15.662  0.00  0.00    +0.000 C 
ENDROOT
BRANCH   1  10
ATOM      7  N   UNL     1       1.992   2.999  18.300  0.00  0.00    +0.000 N 
ATOM      8  C   UNL     1       3.386   3.023  18.216  0.00  0.00    +0.000 C 
ATOM      9  O   UNL     1       4.108   2.428  19.022  0.00  0.00    +0.000 OA
ATOM     10  N   UNL     1       3.919   3.783  17.205  0.00  0.00    +0.000 N 
ATOM     11  H   UNL     1       3.321   4.187  16.503  0.00  0.00    +0.000 HD
BRANCH   7  13
ATOM     12  O   UNL     1       1.437   5.028  17.584  0.00  0.00    +0.000 OA
ATOM     13  N   UNL     1       1.239   3.818  17.442  0.00  0.00    +0.000 NA
ENDBRANCH   7  13
BRANCH   7  14
ATOM     14  C   UNL     1       1.332   2.112  19.262  0.00  0.00    +0.000 C 
BRANCH  14  15
ATOM     15  C   UNL     1       1.277   2.630  20.699  0.00  0.00    +0.000 C 
ATOM     16 CL   UNL     1       1.308   4.407  20.793  0.00  0.00    +0.000 Cl
ENDBRANCH  14  15
ENDBRANCH   7  14
ENDBRANCH   1  10
BRANCH   4  17
ATOM     17  O   UNL     1       6.934   7.069  16.697  0.00  0.00    +0.000 OA
ATOM     18  H   UNL     1       6.567   7.357  17.562  0.00  0.00    +0.000 HD
ENDBRANCH   4  17
BRANCH   5  19
ATOM     19  O   UNL     1       7.651   5.599  14.495  0.00  0.00    +0.000 OA
ATOM     20  H   UNL     1       7.271   5.081  13.757  0.00  0.00    +0.000 HD
ENDBRANCH   5  19
BRANCH   6  21
ATOM     21  O   UNL     1       5.366   3.812  14.545  0.00  0.00    +0.000 OA
ATOM     22  H   UNL     1       6.151   3.703  13.982  0.00  0.00    +0.000 HD
ENDBRANCH   6  21
BRANCH   3  23
ATOM     23  C   UNL     1       7.357   5.913  19.449  0.00  0.00    +0.000 C 
BRANCH  23  24
ATOM     24  O   UNL     1       8.149   5.170  20.377  0.00  0.00    +0.000 OA
ATOM     25  H   UNL     1       9.026   5.601  20.382  0.00  0.00    +0.000 HD
ENDBRANCH  23  24
ENDBRANCH   3  23
TORSDOF 9
ENDMDL
MODEL 3
REMARK VINA RESULT:      -6.6      1.889      2.856
REMARK  Name = 
REMARK  9 active torsions:
REMARK  status: ('A' for Active; 'I' for Inactive)
REMARK    1  A    between atoms: N_2  and  N_3
REMARK    2  A    between atoms: N_3  and  C_4
REMARK    3  A    between atoms: C_4  and  C_5
REMARK    4  A    between atoms: N_9  and  C_10
REMARK    5  A    between atoms: C_12  and  C_13
REMARK    6  A    between atoms: C_13  and  O_14
REMARK    7  A    between atoms: C_15  and  O_16
REMARK    8  A    between atoms: C_17  and  O_18
REMARK    9  A    between atoms: C_19  and  O_20
REMARK                            x       y       z     vdW  Elec       q    Type
REMARK                         _______ _______ _______ _____ _____    ______ ____
ROOT
ATOM      1  C   UNL     1       3.975   4.689  19.186  0.00  0.00    +0.000 C 
ATOM      2  O   UNL     1       3.987   3.474  18.434  0.00  0.00    +0.000 OA
ATOM      3  C   UNL     1       3.374   2.384  19.142  0.00  0.00    +0.000 C 
ATOM      4  C   UNL     1       1.895   2.705  19.423  0.00  0.00    +0.000 C 
ATOM      5  C   UNL     1       1.806   4.004  20.235  0.00  0.00    +0.000 C 
ATOM      6  C   UNL     1       2.521   5.149  19.480  0.00  0.00    +0.000 C 
ENDROOT
BRANCH   1  10
ATOM      7  N   UNL     1       6.642   6.802  17.713  0.00  0.00    +0.000 N 
ATOM      8  C   UNL     1       6.019   5.987  18.662  0.00  0.00    +0.000 C 
ATOM      9  O   UNL     1       6.592   5.606  19.688  0.00  0.00    +0.000 OA
ATOM     10  N   UNL     1       4.735   5.596  18.375  0.00  0.00    +0.000 N 
ATOM     11  H   UNL     1       4.250   5.986  17.584  0.00  0.00    +0.000 HD
BRANCH   7  13
ATOM     12  O   UNL     1       6.092   6.188  15.651  0.00  0.00    +0.000 OA
ATOM     13  N   UNL     1       5.983   7.073  16.504  0.00  0.00    +0.000 NA
ENDBRANCH   7  13
BRANCH   7  14
ATOM     14  C   UNL     1       7.961   7.376  17.996  0.00  0.00    +0.000 C 
BRANCH  14  15
ATOM     15  C   UNL     1       8.061   8.894  17.844  0.00  0.00    +0.000 C 
ATOM     16 CL   UNL     1       9.114   9.640  19.070  0.00  0.00    +0.000 Cl
ENDBRANCH  14  15
ENDBRANCH   7  14
ENDBRANCH   1  10
BRANCH   4  17
ATOM     17  O   UNL     1       1.134   2.922  18.221  0.00  0.00    +0.000 OA
ATOM     18  H   UNL     1       1.750   3.280  17.545  0.00  0.00    +0.000 HD
ENDBRANCH   4  17
BRANCH   5  19
ATOM     19  O   UNL     1       0.431   4.319  20.475  0.00  0.00    +0.000 OA
ATOM     20  H   UNL     1       0.029   3.494  20.814  0.00  0.00    +0.000 HD
ENDBRANCH   5  19
BRANCH   6  21
ATOM     21  O   UNL     1       2.471   6.368  20.231  0.00  0.00    +0.000 OA
ATOM     22  H   UNL     1       1.622   6.410  20.703  0.00  0.00    +0.000 HD
ENDBRANCH   6  21
BRANCH   3  23
ATOM     23  C   UNL     1       3.554   1.125  18.288  0.00  0.00    +0.000 C 
BRANCH  23  24
ATOM     24  O   UNL     1       4.604   0.310  18.811  0.00  0.00    +0.000 OA
ATOM     25  H   UNL     1       5.078  -0.043  18.033  0.00  0.00    +0.000 HD
ENDBRANCH  23  24
ENDBRANCH   3  23
TORSDOF 9
ENDMDL
MODEL 4
REMARK VINA RESULT:      -6.5      3.180      6.037
REMARK  Name = 
REMARK  9 active torsions:
REMARK  status: ('A' for Active; 'I' for Inactive)
REMARK    1  A    between atoms: N_2  and  N_3
REMARK    2  A    between atoms: N_3  and  C_4
REMARK    3  A    between atoms: C_4  and  C_5
REMARK    4  A    between atoms: N_9  and  C_10
REMARK    5  A    between atoms: C_12  and  C_13
REMARK    6  A    between atoms: C_13  and  O_14
REMARK    7  A    between atoms: C_15  and  O_16
REMARK    8  A    between atoms: C_17  and  O_18
REMARK    9  A    between atoms: C_19  and  O_20
REMARK                            x       y       z     vdW  Elec       q    Type
REMARK                         _______ _______ _______ _____ _____    ______ ____
ROOT
ATOM      1  C   UNL     1       4.724   4.983  17.527  0.00  0.00    +0.000 C 
ATOM      2  O   UNL     1       5.238   4.497  16.287  0.00  0.00    +0.000 OA
ATOM      3  C   UNL     1       6.125   5.434  15.655  0.00  0.00    +0.000 C 
ATOM      4  C   UNL     1       7.345   5.696  16.557  0.00  0.00    +0.000 C 
ATOM      5  C   UNL     1       6.864   6.226  17.914  0.00  0.00    +0.000 C 
ATOM      6  C   UNL     1       5.868   5.228  18.549  0.00  0.00    +0.000 C 
ENDROOT
BRANCH   1  10
ATOM      7  N   UNL     1       1.844   3.136  18.957  0.00  0.00    +0.000 N 
ATOM      8  C   UNL     1       2.718   4.208  18.757  0.00  0.00    +0.000 C 
ATOM      9  O   UNL     1       2.536   5.316  19.272  0.00  0.00    +0.000 OA
ATOM     10  N   UNL     1       3.780   3.976  17.919  0.00  0.00    +0.000 N 
ATOM     11  H   UNL     1       3.966   3.046  17.580  0.00  0.00    +0.000 HD
BRANCH   7  13
ATOM     12  O   UNL     1       3.061   1.334  18.504  0.00  0.00    +0.000 OA
ATOM     13  N   UNL     1       2.031   1.953  18.224  0.00  0.00    +0.000 NA
ENDBRANCH   7  13
BRANCH   7  14
ATOM     14  C   UNL     1       0.760   3.249  19.936  0.00  0.00    +0.000 C 
BRANCH  14  15
ATOM     15  C   UNL     1       1.077   2.709  21.331  0.00  0.00    +0.000 C 
ATOM     16 CL   UNL     1       2.825   2.628  21.656  0.00  0.00    +0.000 Cl
ENDBRANCH  14  15
ENDBRANCH   7  14
ENDBRANCH   1  10
BRANCH   4  17
ATOM     17  O   UNL     1       8.101   4.503  16.830  0.00  0.00    +0.000 OA
ATOM     18  H   UNL     1       8.385   4.545  17.770  0.00  0.00    +0.000 HD
ENDBRANCH   4  17
BRANCH   5  19
ATOM     19  O   UNL     1       7.993   6.445  18.765  0.00  0.00    +0.000 OA
ATOM     20  H   UNL     1       8.372   7.302  18.480  0.00  0.00    +0.000 HD
ENDBRANCH   5  19
BRANCH   6  21
ATOM     21  O   UNL     1       5.387   5.713  19.808  0.00  0.00    +0.000 OA
ATOM     22  H   UNL     1       5.087   4.957  20.340  0.00  0.00    +0.000 HD
ENDBRANCH   6  21
BRANCH   3  23
ATOM     23  C   UNL     1       6.513   4.852  14.292  0.00  0.00    +0.000 C 
BRANCH  23  24
ATOM     24  O   UNL     1       7.792   5.340  13.883  0.00  0.00    +0.000 OA
ATOM     25  H   UNL     1       7.852   5.157  12.925  0.00  0.00    +0.000 HD
ENDBRANCH  23  24
ENDBRANCH   3  23
TORSDOF 9
ENDMDL
MODEL 5
REMARK VINA RESULT:      -6.4      3.198      4.251
REMARK  Name = 
REMARK  9 active torsions:
REMARK  status: ('A' for Active; 'I' for Inactive)
REMARK    1  A    between atoms: N_2  and  N_3
REMARK    2  A    between atoms: N_3  and  C_4
REMARK    3  A    between atoms: C_4  and  C_5
REMARK    4  A    between atoms: N_9  and  C_10
REMARK    5  A    between atoms: C_12  and  C_13
REMARK    6  A    between atoms: C_13  and  O_14
REMARK    7  A    between atoms: C_15  and  O_16
REMARK    8  A    between atoms: C_17  and  O_18
REMARK    9  A    between atoms: C_19  and  O_20
REMARK                            x       y       z     vdW  Elec       q    Type
REMARK                         _______ _______ _______ _____ _____    ______ ____
ROOT
ATOM      1  C   UNL     1       3.194   4.514  18.373  0.00  0.00    +0.000 C 
ATOM      2  O   UNL     1       4.053   3.604  19.060  0.00  0.00    +0.000 OA
ATOM      3  C   UNL     1       3.402   2.965  20.170  0.00  0.00    +0.000 C 
ATOM      4  C   UNL     1       2.203   2.137  19.673  0.00  0.00    +0.000 C 
ATOM      5  C   UNL     1       1.232   3.057  18.922  0.00  0.00    +0.000 C 
ATOM      6  C   UNL     1       1.968   3.777  17.768  0.00  0.00    +0.000 C 
ENDROOT
BRANCH   1  10
ATOM      7  N   UNL     1       5.541   5.186  15.583  0.00  0.00    +0.000 N 
ATOM      8  C   UNL     1       4.833   4.427  16.518  0.00  0.00    +0.000 C 
ATOM      9  O   UNL     1       4.868   3.192  16.532  0.00  0.00    +0.000 OA
ATOM     10  N   UNL     1       4.057   5.129  17.406  0.00  0.00    +0.000 N 
ATOM     11  H   UNL     1       4.108   6.134  17.442  0.00  0.00    +0.000 HD
BRANCH   7  13
ATOM     12  O   UNL     1       5.979   7.218  16.367  0.00  0.00    +0.000 OA
ATOM     13  N   UNL     1       5.337   6.575  15.532  0.00  0.00    +0.000 NA
ENDBRANCH   7  13
BRANCH   7  14
ATOM     14  C   UNL     1       6.496   4.534  14.684  0.00  0.00    +0.000 C 
BRANCH  14  15
ATOM     15  C   UNL     1       5.888   3.880  13.443  0.00  0.00    +0.000 C 
ATOM     16 CL   UNL     1       6.990   3.895  12.047  0.00  0.00    +0.000 Cl
ENDBRANCH  14  15
ENDBRANCH   7  14
ENDBRANCH   1  10
BRANCH   4  17
ATOM     17  O   UNL     1       2.586   1.106  18.745  0.00  0.00    +0.000 OA
ATOM     18  H   UNL     1       3.159   1.522  18.064  0.00  0.00    +0.000 HD
ENDBRANCH   4  17
BRANCH   5  19
ATOM     19  O   UNL     1       0.129   2.286  18.435  0.00  0.00    +0.000 OA
ATOM     20  H   UNL     1       0.442   1.358  18.429  0.00  0.00    +0.000 HD
ENDBRANCH   5  19
BRANCH   6  21
ATOM     21  O   UNL     1       1.084   4.659  17.067  0.00  0.00    +0.000 OA
ATOM     22  H   UNL     1       1.331   5.577  17.272  0.00  0.00    +0.000 HD
ENDBRANCH   6  21
BRANCH   3  23
ATOM     23  C   UNL     1       4.451   2.112  20.889  0.00  0.00    +0.000 C 
BRANCH  23  24
ATOM     24  O   UNL     1       5.224   1.367  19.946  0.00  0.00    +0.000 OA
ATOM     25  H   UNL     1       6.141   1.379  20.284  0.00  0.00    +0.000 HD
ENDBRANCH  23  24
ENDBRANCH   3  23
TORSDOF 9
ENDMDL
MODEL 6
REMARK VINA RESULT:      -6.4      1.821      2.195
REMARK  Name = 
REMARK  9 active torsions:
REMARK  status: ('A' for Active; 'I' for Inactive)
REMARK    1  A    between atoms: N_2  and  N_3
REMARK    2  A    between atoms: N_3  and  C_4
REMARK    3  A    between atoms: C_4  and  C_5
REMARK    4  A    between atoms: N_9  and  C_10
REMARK    5  A    between atoms: C_12  and  C_13
REMARK    6  A    between atoms: C_13  and  O_14
REMARK    7  A    between atoms: C_15  and  O_16
REMARK    8  A    between atoms: C_17  and  O_18
REMARK    9  A    between atoms: C_19  and  O_20
REMARK                            x       y       z     vdW  Elec       q    Type
REMARK                         _______ _______ _______ _____ _____    ______ ____
ROOT
ATOM      1  C   UNL     1       3.909   4.413  18.549  0.00  0.00    +0.000 C 
ATOM      2  O   UNL     1       3.358   5.138  19.649  0.00  0.00    +0.000 OA
ATOM      3  C   UNL     1       1.932   4.994  19.742  0.00  0.00    +0.000 C 
ATOM      4  C   UNL     1       1.564   3.517  19.969  0.00  0.00    +0.000 C 
ATOM      5  C   UNL     1       2.126   2.675  18.817  0.00  0.00    +0.000 C 
ATOM      6  C   UNL     1       3.653   2.888  18.700  0.00  0.00    +0.000 C 
ENDROOT
BRANCH   1  10
ATOM      7  N   UNL     1       7.153   6.144  18.071  0.00  0.00    +0.000 N 
ATOM      8  C   UNL     1       5.797   5.870  17.877  0.00  0.00    +0.000 C 
ATOM      9  O   UNL     1       5.074   6.573  17.164  0.00  0.00    +0.000 OA
ATOM     10  N   UNL     1       5.294   4.788  18.556  0.00  0.00    +0.000 N 
ATOM     11  H   UNL     1       5.911   4.172  19.058  0.00  0.00    +0.000 HD
BRANCH   7  13
ATOM     12  O   UNL     1       7.474   5.494  20.171  0.00  0.00    +0.000 OA
ATOM     13  N   UNL     1       7.877   5.390  19.009  0.00  0.00    +0.000 NA
ENDBRANCH   7  13
BRANCH   7  14
ATOM     14  C   UNL     1       7.806   7.195  17.286  0.00  0.00    +0.000 C 
BRANCH  14  15
ATOM     15  C   UNL     1       7.577   8.623  17.783  0.00  0.00    +0.000 C 
ATOM     16 CL   UNL     1       8.900   9.211  18.817  0.00  0.00    +0.000 Cl
ENDBRANCH  14  15
ENDBRANCH   7  14
ENDBRANCH   1  10
BRANCH   4  17
ATOM     17  O   UNL     1       2.132   2.982  21.179  0.00  0.00    +0.000 OA
ATOM     18  H   UNL     1       1.453   2.404  21.591  0.00  0.00    +0.000 HD
ENDBRANCH   4  17
BRANCH   5  19
ATOM     19  O   UNL     1       1.809   1.296  19.039  0.00  0.00    +0.000 OA
ATOM     20  H   UNL     1       0.942   1.155  18.607  0.00  0.00    +0.000 HD
ENDBRANCH   5  19
BRANCH   6  21
ATOM     21  O   UNL     1       4.196   2.128  17.614  0.00  0.00    +0.000 OA
ATOM     22  H   UNL     1       3.802   1.239  17.626  0.00  0.00    +0.000 HD
ENDBRANCH   6  21
BRANCH   3  23
ATOM     23  C   UNL     1       1.453   5.904  20.878  0.00  0.00    +0.000 C 
BRANCH  23  24
ATOM     24  O   UNL     1       2.066   7.190  20.783  0.00  0.00    +0.000 OA
ATOM     25  H   UNL     1       3.017   7.021  20.633  0.00  0.00    +0.000 HD
ENDBRANCH  23  24
ENDBRANCH   3  23
TORSDOF 9
ENDMDL
MODEL 7
REMARK VINA RESULT:      -6.2      1.854      3.227
REMARK  Name = 
REMARK  9 active torsions:
REMARK  status: ('A' for Active; 'I' for Inactive)
REMARK    1  A    between atoms: N_2  and  N_3
REMARK    2  A    between atoms: N_3  and  C_4
REMARK    3  A    between atoms: C_4  and  C_5
REMARK    4  A    between atoms: N_9  and  C_10
REMARK    5  A    between atoms: C_12  and  C_13
REMARK    6  A    between atoms: C_13  and  O_14
REMARK    7  A    between atoms: C_15  and  O_16
REMARK    8  A    between atoms: C_17  and  O_18
REMARK    9  A    between atoms: C_19  and  O_20
REMARK                            x       y       z     vdW  Elec       q    Type
REMARK                         _______ _______ _______ _____ _____    ______ ____
ROOT
ATOM      1  C   UNL     1       3.175   4.612  18.714  0.00  0.00    +0.000 C 
ATOM      2  O   UNL     1       4.056   3.663  19.315  0.00  0.00    +0.000 OA
ATOM      3  C   UNL     1       3.391   2.830  20.279  0.00  0.00    +0.000 C 
ATOM      4  C   UNL     1       2.279   2.015  19.594  0.00  0.00    +0.000 C 
ATOM      5  C   UNL     1       1.289   2.977  18.925  0.00  0.00    +0.000 C 
ATOM      6  C   UNL     1       2.035   3.901  17.934  0.00  0.00    +0.000 C 
ENDROOT
BRANCH   1  10
ATOM      7  N   UNL     1       6.069   6.442  17.292  0.00  0.00    +0.000 N 
ATOM      8  C   UNL     1       5.334   5.733  18.246  0.00  0.00    +0.000 C 
ATOM      9  O   UNL     1       5.816   5.380  19.326  0.00  0.00    +0.000 OA
ATOM     10  N   UNL     1       4.044   5.412  17.900  0.00  0.00    +0.000 N 
ATOM     11  H   UNL     1       3.636   5.783  17.058  0.00  0.00    +0.000 HD
BRANCH   7  13
ATOM     12  O   UNL     1       5.766   5.822  15.181  0.00  0.00    +0.000 OA
ATOM     13  N   UNL     1       5.504   6.680  16.029  0.00  0.00    +0.000 NA
ENDBRANCH   7  13
BRANCH   7  14
ATOM     14  C   UNL     1       7.406   6.942  17.624  0.00  0.00    +0.000 C 
BRANCH  14  15
ATOM     15  C   UNL     1       7.588   8.456  17.506  0.00  0.00    +0.000 C 
ATOM     16 CL   UNL     1       8.745   9.104  18.692  0.00  0.00    +0.000 Cl
ENDBRANCH  14  15
ENDBRANCH   7  14
ENDBRANCH   1  10
BRANCH   4  17
ATOM     17  O   UNL     1       2.779   1.156  18.553  0.00  0.00    +0.000 OA
ATOM     18  H   UNL     1       2.018   0.918  17.980  0.00  0.00    +0.000 HD
ENDBRANCH   4  17
BRANCH   5  19
ATOM     19  O   UNL     1       0.268   2.223  18.264  0.00  0.00    +0.000 OA
ATOM     20  H   UNL     1      -0.356   1.954  18.969  0.00  0.00    +0.000 HD
ENDBRANCH   5  19
BRANCH   6  21
ATOM     21  O   UNL     1       1.132   4.824  17.314  0.00  0.00    +0.000 OA
ATOM     22  H   UNL     1       1.376   5.727  17.580  0.00  0.00    +0.000 HD
ENDBRANCH   6  21
BRANCH   3  23
ATOM     23  C   UNL     1       4.456   1.943  20.931  0.00  0.00    +0.000 C 
BRANCH  23  24
ATOM     24  O   UNL     1       5.269   1.321  19.936  0.00  0.00    +0.000 OA
ATOM     25  H   UNL     1       6.020   0.920  20.418  0.00  0.00    +0.000 HD
ENDBRANCH  23  24
ENDBRANCH   3  23
TORSDOF 9
ENDMDL
MODEL 8
REMARK VINA RESULT:      -6.2      2.723      2.889
REMARK  Name = 
REMARK  9 active torsions:
REMARK  status: ('A' for Active; 'I' for Inactive)
REMARK    1  A    between atoms: N_2  and  N_3
REMARK    2  A    between atoms: N_3  and  C_4
REMARK    3  A    between atoms: C_4  and  C_5
REMARK    4  A    between atoms: N_9  and  C_10
REMARK    5  A    between atoms: C_12  and  C_13
REMARK    6  A    between atoms: C_13  and  O_14
REMARK    7  A    between atoms: C_15  and  O_16
REMARK    8  A    between atoms: C_17  and  O_18
REMARK    9  A    between atoms: C_19  and  O_20
REMARK                            x       y       z     vdW  Elec       q    Type
REMARK                         _______ _______ _______ _____ _____    ______ ____
ROOT
ATOM      1  C   UNL     1       4.190   3.425  18.375  0.00  0.00    +0.000 C 
ATOM      2  O   UNL     1       3.532   4.692  18.330  0.00  0.00    +0.000 OA
ATOM      3  C   UNL     1       2.191   4.633  18.841  0.00  0.00    +0.000 C 
ATOM      4  C   UNL     1       2.208   4.207  20.320  0.00  0.00    +0.000 C 
ATOM      5  C   UNL     1       2.903   2.844  20.444  0.00  0.00    +0.000 C 
ATOM      6  C   UNL     1       4.323   2.916  19.837  0.00  0.00    +0.000 C 
ENDROOT
BRANCH   1  10
ATOM      7  N   UNL     1       6.838   4.417  15.977  0.00  0.00    +0.000 N 
ATOM      8  C   UNL     1       5.544   4.150  16.431  0.00  0.00    +0.000 C 
ATOM      9  O   UNL     1       4.542   4.362  15.741  0.00  0.00    +0.000 OA
ATOM     10  N   UNL     1       5.439   3.669  17.713  0.00  0.00    +0.000 N 
ATOM     11  H   UNL     1       6.265   3.415  18.229  0.00  0.00    +0.000 HD
BRANCH   7  13
ATOM     12  O   UNL     1       7.918   5.111  17.790  0.00  0.00    +0.000 OA
ATOM     13  N   UNL     1       7.916   4.291  16.867  0.00  0.00    +0.000 NA
ENDBRANCH   7  13
BRANCH   7  14
ATOM     14  C   UNL     1       7.057   4.806  14.582  0.00  0.00    +0.000 C 
BRANCH  14  15
ATOM     15  C   UNL     1       6.450   3.869  13.537  0.00  0.00    +0.000 C 
ATOM     16 CL   UNL     1       7.159   4.091  11.920  0.00  0.00    +0.000 Cl
ENDBRANCH  14  15
ENDBRANCH   7  14
ENDBRANCH   1  10
BRANCH   4  17
ATOM     17  O   UNL     1       2.948   5.118  21.153  0.00  0.00    +0.000 OA
ATOM     18  H   UNL     1       2.295   5.635  21.673  0.00  0.00    +0.000 HD
ENDBRANCH   4  17
BRANCH   5  19
ATOM     19  O   UNL     1       2.945   2.457  21.821  0.00  0.00    +0.000 OA
ATOM     20  H   UNL     1       2.278   3.016  22.270  0.00  0.00    +0.000 HD
ENDBRANCH   5  19
BRANCH   6  21
ATOM     21  O   UNL     1       4.983   1.648  19.921  0.00  0.00    +0.000 OA
ATOM     22  H   UNL     1       5.724   1.721  20.545  0.00  0.00    +0.000 HD
ENDBRANCH   6  21
BRANCH   3  23
ATOM     23  C   UNL     1       1.559   6.013  18.631  0.00  0.00    +0.000 C 
BRANCH  23  24
ATOM     24  O   UNL     1       2.520   7.044  18.859  0.00  0.00    +0.000 OA
ATOM     25  H   UNL     1       2.012   7.879  18.892  0.00  0.00    +0.000 HD
ENDBRANCH  23  24
ENDBRANCH   3  23
TORSDOF 9
ENDMDL
MODEL 9
REMARK VINA RESULT:      -6.1      3.592      6.321
REMARK  Name = 
REMARK  9 active torsions:
REMARK  status: ('A' for Active; 'I' for Inactive)
REMARK    1  A    between atoms: N_2  and  N_3
REMARK    2  A    between atoms: N_3  and  C_4
REMARK    3  A    between atoms: C_4  and  C_5
REMARK    4  A    between atoms: N_9  and  C_10
REMARK    5  A    between atoms: C_12  and  C_13
REMARK    6  A    between atoms: C_13  and  O_14
REMARK    7  A    between atoms: C_15  and  O_16
REMARK    8  A    between atoms: C_17  and  O_18
REMARK    9  A    between atoms: C_19  and  O_20
REMARK                            x       y       z     vdW  Elec       q    Type
REMARK                         _______ _______ _______ _____ _____    ______ ____
ROOT
ATOM      1  C   UNL     1       4.467   4.605  16.495  0.00  0.00    +0.000 C 
ATOM      2  O   UNL     1       5.040   3.838  15.435  0.00  0.00    +0.000 OA
ATOM      3  C   UNL     1       5.698   4.659  14.456  0.00  0.00    +0.000 C 
ATOM      4  C   UNL     1       6.859   5.431  15.109  0.00  0.00    +0.000 C 
ATOM      5  C   UNL     1       6.312   6.283  16.262  0.00  0.00    +0.000 C 
ATOM      6  C   UNL     1       5.561   5.387  17.273  0.00  0.00    +0.000 C 
ENDROOT
BRANCH   1  10
ATOM      7  N   UNL     1       1.983   2.789  18.563  0.00  0.00    +0.000 N 
ATOM      8  C   UNL     1       2.581   3.881  17.929  0.00  0.00    +0.000 C 
ATOM      9  O   UNL     1       2.068   5.004  17.919  0.00  0.00    +0.000 OA
ATOM     10  N   UNL     1       3.762   3.630  17.275  0.00  0.00    +0.000 N 
ATOM     11  H   UNL     1       4.213   2.734  17.368  0.00  0.00    +0.000 HD
BRANCH   7  13
ATOM     12  O   UNL     1       3.656   1.374  18.931  0.00  0.00    +0.000 OA
ATOM     13  N   UNL     1       2.547   1.513  18.407  0.00  0.00    +0.000 NA
ENDBRANCH   7  13
BRANCH   7  14
ATOM     14  C   UNL     1       0.794   2.989  19.395  0.00  0.00    +0.000 C 
BRANCH  14  15
ATOM     15  C   UNL     1       1.049   3.617  20.766  0.00  0.00    +0.000 C 
ATOM     16 CL   UNL     1       2.008   2.566  21.835  0.00  0.00    +0.000 Cl
ENDBRANCH  14  15
ENDBRANCH   7  14
ENDBRANCH   1  10
BRANCH   4  17
ATOM     17  O   UNL     1       7.852   4.561  15.681  0.00  0.00    +0.000 OA
ATOM     18  H   UNL     1       7.529   4.289  16.568  0.00  0.00    +0.000 HD
ENDBRANCH   4  17
BRANCH   5  19
ATOM     19  O   UNL     1       7.393   6.981  16.889  0.00  0.00    +0.000 OA
ATOM     20  H   UNL     1       7.261   7.924  16.664  0.00  0.00    +0.000 HD
ENDBRANCH   5  19
BRANCH   6  21
ATOM     21  O   UNL     1       5.022   6.166  18.348  0.00  0.00    +0.000 OA
ATOM     22  H   UNL     1       4.220   6.617  18.036  0.00  0.00    +0.000 HD
ENDBRANCH   6  21
BRANCH   3  23
ATOM     23  C   UNL     1       6.163   3.739  13.324  0.00  0.00    +0.000 C 
BRANCH  23  24
ATOM     24  O   UNL     1       7.195   4.365  12.560  0.00  0.00    +0.000 OA
ATOM     25  H   UNL     1       7.105   4.013  11.652  0.00  0.00    +0.000 HD
ENDBRANCH  23  24
ENDBRANCH   3  23
TORSDOF 9
ENDMDL
