MODEL 1
REMARK VINA RESULT:      -7.5      0.000      0.000
REMARK  Name = 
REMARK  0 active torsions:
REMARK  status: ('A' for Active; 'I' for Inactive)
REMARK                            x       y       z     vdW  Elec       q    Type
REMARK                         _______ _______ _______ _____ _____    ______ ____
ROOT
ATOM      1  N   UNL     1       3.705   1.131  18.547  0.00  0.00    +0.000 NA
ATOM      2  N   UNL     1       3.668   2.265  18.436  0.00  0.00    +0.000 NA
ATOM      3  C   UNL     1       3.645   3.568  18.283  0.00  0.00    +0.000 C 
ATOM      4  C   UNL     1       4.354   4.285  17.222  0.00  0.00    +0.000 A 
ATOM      5  C   UNL     1       5.159   3.819  16.202  0.00  0.00    +0.000 A 
ATOM      6  C   UNL     1       5.703   4.770  15.336  0.00  0.00    +0.000 A 
ATOM      7  C   UNL     1       5.433   6.140  15.510  0.00  0.00    +0.000 A 
ATOM      8  C   UNL     1       4.613   6.588  16.552  0.00  0.00    +0.000 A 
ATOM      9  C   UNL     1       4.072   5.648  17.413  0.00  0.00    +0.000 A 
ATOM     10  C   UNL     1       3.205   5.802  18.564  0.00  0.00    +0.000 A 
ATOM     11  C   UNL     1       2.672   6.953  19.124  0.00  0.00    +0.000 A 
ATOM     12  C   UNL     1       1.853   6.828  20.250  0.00  0.00    +0.000 A 
ATOM     13  C   UNL     1       1.577   5.564  20.801  0.00  0.00    +0.000 A 
ATOM     14  C   UNL     1       2.114   4.401  20.237  0.00  0.00    +0.000 A 
ATOM     15 CL   UNL     1       1.746   2.885  20.953  0.00  0.00    +0.000 Cl
ATOM     16  C   UNL     1       2.923   4.537  19.123  0.00  0.00    +0.000 A 
ENDROOT
TORSDOF 0
ENDMDL
MODEL 2
REMARK VINA RESULT:      -7.4      2.165      3.325
REMARK  Name = 
REMARK  0 active torsions:
REMARK  status: ('A' for Active; 'I' for Inactive)
REMARK                            x       y       z     vdW  Elec       q    Type
REMARK                         _______ _______ _______ _____ _____    ______ ____
ROOT
ATOM      1  N   UNL     1       2.212   7.730  19.361  0.00  0.00    +0.000 NA
ATOM      2  N   UNL     1       2.623   6.781  18.882  0.00  0.00    +0.000 NA
ATOM      3  C   UNL     1       3.114   5.707  18.310  0.00  0.00    +0.000 C 
ATOM      4  C   UNL     1       4.094   5.727  17.223  0.00  0.00    +0.000 A 
ATOM      5  C   UNL     1       4.700   6.785  16.577  0.00  0.00    +0.000 A 
ATOM      6  C   UNL     1       5.606   6.474  15.560  0.00  0.00    +0.000 A 
ATOM      7  C   UNL     1       5.878   5.136  15.222  0.00  0.00    +0.000 A 
ATOM      8  C   UNL     1       5.250   4.079  15.893  0.00  0.00    +0.000 A 
ATOM      9  C   UNL     1       4.350   4.384  16.900  0.00  0.00    +0.000 A 
ATOM     10  C   UNL     1       3.558   3.525  17.757  0.00  0.00    +0.000 A 
ATOM     11  C   UNL     1       3.484   2.140  17.800  0.00  0.00    +0.000 A 
ATOM     12  C   UNL     1       2.628   1.548  18.733  0.00  0.00    +0.000 A 
ATOM     13  C   UNL     1       1.860   2.338  19.606  0.00  0.00    +0.000 A 
ATOM     14  C   UNL     1       1.932   3.735  19.565  0.00  0.00    +0.000 A 
ATOM     15 CL   UNL     1       0.971   4.649  20.653  0.00  0.00    +0.000 Cl
ATOM     16  C   UNL     1       2.783   4.311  18.637  0.00  0.00    +0.000 A 
ENDROOT
TORSDOF 0
ENDMDL
MODEL 3
REMARK VINA RESULT:      -7.4      1.169      1.378
REMARK  Name = 
REMARK  0 active torsions:
REMARK  status: ('A' for Active; 'I' for Inactive)
REMARK                            x       y       z     vdW  Elec       q    Type
REMARK                         _______ _______ _______ _____ _____    ______ ____
ROOT
ATOM      1  N   UNL     1       4.558   2.260  19.900  0.00  0.00    +0.000 NA
ATOM      2  N   UNL     1       4.445   3.213  19.284  0.00  0.00    +0.000 NA
ATOM      3  C   UNL     1       4.336   4.298  18.553  0.00  0.00    +0.000 C 
ATOM      4  C   UNL     1       5.037   4.511  17.285  0.00  0.00    +0.000 A 
ATOM      5  C   UNL     1       5.913   3.700  16.594  0.00  0.00    +0.000 A 
ATOM      6  C   UNL     1       6.424   4.195  15.392  0.00  0.00    +0.000 A 
ATOM      7  C   UNL     1       6.051   5.467  14.921  0.00  0.00    +0.000 A 
ATOM      8  C   UNL     1       5.159   6.271  15.640  0.00  0.00    +0.000 A 
ATOM      9  C   UNL     1       4.651   5.784  16.833  0.00  0.00    +0.000 A 
ATOM     10  C   UNL     1       3.729   6.372  17.783  0.00  0.00    +0.000 A 
ATOM     11  C   UNL     1       3.092   7.604  17.755  0.00  0.00    +0.000 A 
ATOM     12  C   UNL     1       2.239   7.937  18.810  0.00  0.00    +0.000 A 
ATOM     13  C   UNL     1       2.031   7.043  19.875  0.00  0.00    +0.000 A 
ATOM     14  C   UNL     1       2.672   5.799  19.906  0.00  0.00    +0.000 A 
ATOM     15 CL   UNL     1       2.382   4.748  21.232  0.00  0.00    +0.000 Cl
ATOM     16  C   UNL     1       3.514   5.480  18.856  0.00  0.00    +0.000 A 
ENDROOT
TORSDOF 0
ENDMDL
MODEL 4
REMARK VINA RESULT:      -7.1      1.244      1.244
REMARK  Name = 
REMARK  0 active torsions:
REMARK  status: ('A' for Active; 'I' for Inactive)
REMARK                            x       y       z     vdW  Elec       q    Type
REMARK                         _______ _______ _______ _____ _____    ______ ____
ROOT
ATOM      1  N   UNL     1       5.042   1.707  20.188  0.00  0.00    +0.000 NA
ATOM      2  N   UNL     1       4.789   2.749  19.800  0.00  0.00    +0.000 NA
ATOM      3  C   UNL     1       4.523   3.946  19.332  0.00  0.00    +0.000 C 
ATOM      4  C   UNL     1       5.292   4.608  18.278  0.00  0.00    +0.000 A 
ATOM      5  C   UNL     1       6.396   4.183  17.567  0.00  0.00    +0.000 A 
ATOM      6  C   UNL     1       6.912   5.061  16.610  0.00  0.00    +0.000 A 
ATOM      7  C   UNL     1       6.321   6.318  16.393  0.00  0.00    +0.000 A 
ATOM      8  C   UNL     1       5.201   6.726  17.127  0.00  0.00    +0.000 A 
ATOM      9  C   UNL     1       4.687   5.860  18.077  0.00  0.00    +0.000 A 
ATOM     10  C   UNL     1       3.560   5.998  18.977  0.00  0.00    +0.000 A 
ATOM     11  C   UNL     1       2.674   7.054  19.133  0.00  0.00    +0.000 A 
ATOM     12  C   UNL     1       1.659   6.936  20.086  0.00  0.00    +0.000 A 
ATOM     13  C   UNL     1       1.539   5.773  20.868  0.00  0.00    +0.000 A 
ATOM     14  C   UNL     1       2.431   4.706  20.712  0.00  0.00    +0.000 A 
ATOM     15 CL   UNL     1       2.238   3.312  21.694  0.00  0.00    +0.000 Cl
ATOM     16  C   UNL     1       3.432   4.834  19.765  0.00  0.00    +0.000 A 
ENDROOT
TORSDOF 0
ENDMDL
MODEL 5
REMARK VINA RESULT:      -7.0      2.452      3.304
REMARK  Name = 
REMARK  0 active torsions:
REMARK  status: ('A' for Active; 'I' for Inactive)
REMARK                            x       y       z     vdW  Elec       q    Type
REMARK                         _______ _______ _______ _____ _____    ______ ____
ROOT
ATOM      1  N   UNL     1       2.605   8.682  18.029  0.00  0.00    +0.000 NA
ATOM      2  N   UNL     1       2.987   7.608  18.055  0.00  0.00    +0.000 NA
ATOM      3  C   UNL     1       3.444   6.377  18.057  0.00  0.00    +0.000 C 
ATOM      4  C   UNL     1       4.358   5.836  17.050  0.00  0.00    +0.000 A 
ATOM      5  C   UNL     1       4.926   6.427  15.939  0.00  0.00    +0.000 A 
ATOM      6  C   UNL     1       5.771   5.633  15.159  0.00  0.00    +0.000 A 
ATOM      7  C   UNL     1       6.022   4.293  15.505  0.00  0.00    +0.000 A 
ATOM      8  C   UNL     1       5.435   3.717  16.638  0.00  0.00    +0.000 A 
ATOM      9  C   UNL     1       4.596   4.500  17.413  0.00  0.00    +0.000 A 
ATOM     10  C   UNL     1       3.855   4.191  18.619  0.00  0.00    +0.000 A 
ATOM     11  C   UNL     1       3.785   3.007  19.338  0.00  0.00    +0.000 A 
ATOM     12  C   UNL     1       2.985   2.970  20.484  0.00  0.00    +0.000 A 
ATOM     13  C   UNL     1       2.269   4.107  20.897  0.00  0.00    +0.000 A 
ATOM     14  C   UNL     1       2.339   5.304  20.174  0.00  0.00    +0.000 A 
ATOM     15 CL   UNL     1       1.443   6.660  20.724  0.00  0.00    +0.000 Cl
ATOM     16  C   UNL     1       3.134   5.329  19.041  0.00  0.00    +0.000 A 
ENDROOT
TORSDOF 0
ENDMDL
MODEL 6
REMARK VINA RESULT:      -6.9      2.105      3.431
REMARK  Name = 
REMARK  0 active torsions:
REMARK  status: ('A' for Active; 'I' for Inactive)
REMARK                            x       y       z     vdW  Elec       q    Type
REMARK                         _______ _______ _______ _____ _____    ______ ____
ROOT
ATOM      1  N   UNL     1       4.943   3.981  16.068  0.00  0.00    +0.000 NA
ATOM      2  N   UNL     1       4.245   4.331  16.899  0.00  0.00    +0.000 NA
ATOM      3  C   UNL     1       3.446   4.764  17.845  0.00  0.00    +0.000 C 
ATOM      4  C   UNL     1       3.085   6.170  18.039  0.00  0.00    +0.000 A 
ATOM      5  C   UNL     1       3.459   7.300  17.341  0.00  0.00    +0.000 A 
ATOM      6  C   UNL     1       2.939   8.520  17.780  0.00  0.00    +0.000 A 
ATOM      7  C   UNL     1       2.073   8.576  18.887  0.00  0.00    +0.000 A 
ATOM      8  C   UNL     1       1.708   7.415  19.579  0.00  0.00    +0.000 A 
ATOM      9  C   UNL     1       2.222   6.204  19.147  0.00  0.00    +0.000 A 
ATOM     10  C   UNL     1       2.033   4.859  19.651  0.00  0.00    +0.000 A 
ATOM     11  C   UNL     1       1.272   4.411  20.720  0.00  0.00    +0.000 A 
ATOM     12  C   UNL     1       1.260   3.042  21.002  0.00  0.00    +0.000 A 
ATOM     13  C   UNL     1       2.002   2.141  20.218  0.00  0.00    +0.000 A 
ATOM     14  C   UNL     1       2.771   2.590  19.138  0.00  0.00    +0.000 A 
ATOM     15 CL   UNL     1       3.658   1.445  18.218  0.00  0.00    +0.000 Cl
ATOM     16  C   UNL     1       2.775   3.947  18.869  0.00  0.00    +0.000 A 
ENDROOT
TORSDOF 0
ENDMDL
MODEL 7
REMARK VINA RESULT:      -6.8      1.862      4.340
REMARK  Name = 
REMARK  0 active torsions:
REMARK  status: ('A' for Active; 'I' for Inactive)
REMARK                            x       y       z     vdW  Elec       q    Type
REMARK                         _______ _______ _______ _____ _____    ______ ____
ROOT
ATOM      1  N   UNL     1       2.189   3.599  21.950  0.00  0.00    +0.000 NA
ATOM      2  N   UNL     1       2.427   4.296  21.080  0.00  0.00    +0.000 NA
ATOM      3  C   UNL     1       2.683   5.121  20.091  0.00  0.00    +0.000 C 
ATOM      4  C   UNL     1       2.167   6.488  20.006  0.00  0.00    +0.000 A 
ATOM      5  C   UNL     1       1.353   7.199  20.864  0.00  0.00    +0.000 A 
ATOM      6  C   UNL     1       1.030   8.507  20.496  0.00  0.00    +0.000 A 
ATOM      7  C   UNL     1       1.521   9.061  19.300  0.00  0.00    +0.000 A 
ATOM      8  C   UNL     1       2.346   8.320  18.446  0.00  0.00    +0.000 A 
ATOM      9  C   UNL     1       2.668   7.022  18.807  0.00  0.00    +0.000 A 
ATOM     10  C   UNL     1       3.483   6.026  18.141  0.00  0.00    +0.000 A 
ATOM     11  C   UNL     1       4.174   6.104  16.941  0.00  0.00    +0.000 A 
ATOM     12  C   UNL     1       4.895   4.985  16.514  0.00  0.00    +0.000 A 
ATOM     13  C   UNL     1       4.918   3.809  17.284  0.00  0.00    +0.000 A 
ATOM     14  C   UNL     1       4.221   3.728  18.495  0.00  0.00    +0.000 A 
ATOM     15 CL   UNL     1       4.284   2.266  19.392  0.00  0.00    +0.000 Cl
ATOM     16  C   UNL     1       3.511   4.842  18.908  0.00  0.00    +0.000 A 
ENDROOT
TORSDOF 0
ENDMDL
MODEL 8
REMARK VINA RESULT:      -6.7      2.206      3.170
REMARK  Name = 
REMARK  0 active torsions:
REMARK  status: ('A' for Active; 'I' for Inactive)
REMARK                            x       y       z     vdW  Elec       q    Type
REMARK                         _______ _______ _______ _____ _____    ______ ____
ROOT
ATOM      1  N   UNL     1       6.748   4.114  18.397  0.00  0.00    +0.000 NA
ATOM      2  N   UNL     1       5.679   4.417  18.653  0.00  0.00    +0.000 NA
ATOM      3  C   UNL     1       4.453   4.793  18.930  0.00  0.00    +0.000 C 
ATOM      4  C   UNL     1       3.846   6.038  18.456  0.00  0.00    +0.000 A 
ATOM      5  C   UNL     1       4.359   7.046  17.665  0.00  0.00    +0.000 A 
ATOM      6  C   UNL     1       3.518   8.125  17.384  0.00  0.00    +0.000 A 
ATOM      7  C   UNL     1       2.207   8.166  17.893  0.00  0.00    +0.000 A 
ATOM      8  C   UNL     1       1.708   7.131  18.692  0.00  0.00    +0.000 A 
ATOM      9  C   UNL     1       2.540   6.060  18.973  0.00  0.00    +0.000 A 
ATOM     10  C   UNL     1       2.314   4.863  19.758  0.00  0.00    +0.000 A 
ATOM     11  C   UNL     1       1.183   4.458  20.451  0.00  0.00    +0.000 A 
ATOM     12  C   UNL     1       1.224   3.242  21.140  0.00  0.00    +0.000 A 
ATOM     13  C   UNL     1       2.385   2.449  21.128  0.00  0.00    +0.000 A 
ATOM     14  C   UNL     1       3.528   2.855  20.429  0.00  0.00    +0.000 A 
ATOM     15 CL   UNL     1       4.917   1.849  20.452  0.00  0.00    +0.000 Cl
ATOM     16  C   UNL     1       3.476   4.061  19.751  0.00  0.00    +0.000 A 
ENDROOT
TORSDOF 0
ENDMDL
MODEL 9
REMARK VINA RESULT:      -6.6      2.857      5.127
REMARK  Name = 
REMARK  0 active torsions:
REMARK  status: ('A' for Active; 'I' for Inactive)
REMARK                            x       y       z     vdW  Elec       q    Type
REMARK                         _______ _______ _______ _____ _____    ______ ____
ROOT
ATOM      1  N   UNL     1       1.865   7.843  20.025  0.00  0.00    +0.000 NA
ATOM      2  N   UNL     1       2.225   6.911  19.477  0.00  0.00    +0.000 NA
ATOM      3  C   UNL     1       2.620   5.818  18.865  0.00  0.00    +0.000 C 
ATOM      4  C   UNL     1       2.136   4.475  19.185  0.00  0.00    +0.000 A 
ATOM      5  C   UNL     1       1.223   4.047  20.128  0.00  0.00    +0.000 A 
ATOM      6  C   UNL     1       0.970   2.674  20.191  0.00  0.00    +0.000 A 
ATOM      7  C   UNL     1       1.626   1.781  19.325  0.00  0.00    +0.000 A 
ATOM      8  C   UNL     1       2.548   2.239  18.377  0.00  0.00    +0.000 A 
ATOM      9  C   UNL     1       2.802   3.599  18.312  0.00  0.00    +0.000 A 
ATOM     10  C   UNL     1       3.688   4.360  17.453  0.00  0.00    +0.000 A 
ATOM     11  C   UNL     1       4.537   3.924  16.447  0.00  0.00    +0.000 A 
ATOM     12  C   UNL     1       5.298   4.874  15.760  0.00  0.00    +0.000 A 
ATOM     13  C   UNL     1       5.203   6.239  16.082  0.00  0.00    +0.000 A 
ATOM     14  C   UNL     1       4.347   6.682  17.097  0.00  0.00    +0.000 A 
ATOM     15 CL   UNL     1       4.274   8.360  17.449  0.00  0.00    +0.000 Cl
ATOM     16  C   UNL     1       3.599   5.732  17.771  0.00  0.00    +0.000 A 
ENDROOT
TORSDOF 0
ENDMDL
