MODEL 1
REMARK VINA RESULT:      -8.6      0.000      0.000
REMARK  Name = 
REMARK  9 active torsions:
REMARK  status: ('A' for Active; 'I' for Inactive)
REMARK    1  A    between atoms: C_1  and  C_2
REMARK    2  A    between atoms: C_2  and  N_3
REMARK    3  A    between atoms: C_2  and  C_21
REMARK    4  A    between atoms: N_3  and  C_4
REMARK    5  A    between atoms: C_6  and  C_7
REMARK    6  A    between atoms: C_10  and  C_11
REMARK    7  A    between atoms: C_11  and  O_13
REMARK    8  A    between atoms: C_14  and  O_15
REMARK    9  A    between atoms: C_19  and  N_20
REMARK                            x       y       z     vdW  Elec       q    Type
REMARK                         _______ _______ _______ _____ _____    ______ ____
ROOT
ATOM      1  C   UNL     1       4.168   3.803  17.865  0.00  0.00    +0.000 A 
ATOM      2  N   UNL     1       3.752   5.080  18.076  0.00  0.00    +0.000 NA
ATOM      3  C   UNL     1       2.930   5.302  19.153  0.00  0.00    +0.000 A 
ATOM      4  C   UNL     1       2.595   4.264  20.014  0.00  0.00    +0.000 A 
ATOM      5  N   UNL     1       2.969   2.976  19.817  0.00  0.00    +0.000 NA
ATOM      6  C   UNL     1       3.711   2.754  18.716  0.00  0.00    +0.000 A 
ENDROOT
BRANCH   3   7
ATOM      7  C   UNL     1       2.343   6.653  19.285  0.00  0.00    +0.000 A 
ATOM      8  C   UNL     1       1.777   7.058  20.508  0.00  0.00    +0.000 A 
ATOM      9  C   UNL     1       1.244   8.339  20.690  0.00  0.00    +0.000 A 
ATOM     10  C   UNL     1       1.261   9.264  19.645  0.00  0.00    +0.000 A 
ATOM     11  C   UNL     1       1.824   8.882  18.427  0.00  0.00    +0.000 A 
ATOM     12  C   UNL     1       2.367   7.608  18.243  0.00  0.00    +0.000 A 
BRANCH  10  13
ATOM     13  C   UNL     1       0.648  10.595  19.885  0.00  0.00    +0.000 C 
ATOM     14  O   UNL     1       0.252  11.308  18.978  0.00  0.00    +0.000 OA
BRANCH  13  15
ATOM     15  O   UNL     1       0.561  10.937  21.186  0.00  0.00    +0.000 OA
ATOM     16  H   UNL     1       0.233  10.214  21.765  0.00  0.00    +0.000 HD
ENDBRANCH  13  15
ENDBRANCH  10  13
BRANCH  11  17
ATOM     17  O   UNL     1       1.880   9.749  17.363  0.00  0.00    +0.000 OA
ATOM     18  H   UNL     1       2.005   9.204  16.560  0.00  0.00    +0.000 HD
ENDBRANCH  11  17
ENDBRANCH   3   7
BRANCH   6  19
ATOM     19  N   UNL     1       3.831   1.420  18.336  0.00  0.00    +0.000 N 
ATOM     20  H   UNL     1       4.799   1.158  18.203  0.00  0.00    +0.000 HD
ATOM     21  H   UNL     1       3.153   1.108  17.657  0.00  0.00    +0.000 HD
ENDBRANCH   6  19
BRANCH   1  22
ATOM     22  N   UNL     1       5.064   3.463  16.820  0.00  0.00    +0.000 N 
ATOM     23  H   UNL     1       5.758   2.812  17.172  0.00  0.00    +0.000 HD
BRANCH  22  25
ATOM     24  C   UNL     1       6.342   3.923  14.812  0.00  0.00    +0.000 C 
ATOM     25  C   UNL     1       5.639   4.545  16.029  0.00  0.00    +0.000 C 
BRANCH  25  26
ATOM     26  C   UNL     1       6.616   5.381  16.868  0.00  0.00    +0.000 A 
ATOM     27  C   UNL     1       7.310   4.775  17.931  0.00  0.00    +0.000 A 
ATOM     28  C   UNL     1       8.061   5.540  18.836  0.00  0.00    +0.000 A 
ATOM     29  C   UNL     1       8.150   6.920  18.679  0.00  0.00    +0.000 A 
ATOM     30  C   UNL     1       7.533   7.531  17.591  0.00  0.00    +0.000 A 
ATOM     31  C   UNL     1       6.787   6.766  16.683  0.00  0.00    +0.000 A 
ENDBRANCH  25  26
ENDBRANCH  22  25
ENDBRANCH   1  22
TORSDOF 8
ENDMDL
MODEL 2
REMARK VINA RESULT:      -8.4      0.680      1.452
REMARK  Name = 
REMARK  9 active torsions:
REMARK  status: ('A' for Active; 'I' for Inactive)
REMARK    1  A    between atoms: C_1  and  C_2
REMARK    2  A    between atoms: C_2  and  N_3
REMARK    3  A    between atoms: C_2  and  C_21
REMARK    4  A    between atoms: N_3  and  C_4
REMARK    5  A    between atoms: C_6  and  C_7
REMARK    6  A    between atoms: C_10  and  C_11
REMARK    7  A    between atoms: C_11  and  O_13
REMARK    8  A    between atoms: C_14  and  O_15
REMARK    9  A    between atoms: C_19  and  N_20
REMARK                            x       y       z     vdW  Elec       q    Type
REMARK                         _______ _______ _______ _____ _____    ______ ____
ROOT
ATOM      1  C   UNL     1       4.198   3.991  17.919  0.00  0.00    +0.000 A 
ATOM      2  N   UNL     1       3.773   5.278  18.030  0.00  0.00    +0.000 NA
ATOM      3  C   UNL     1       3.009   5.594  19.126  0.00  0.00    +0.000 A 
ATOM      4  C   UNL     1       2.740   4.640  20.101  0.00  0.00    +0.000 A 
ATOM      5  N   UNL     1       3.124   3.344  20.007  0.00  0.00    +0.000 NA
ATOM      6  C   UNL     1       3.808   3.025  18.892  0.00  0.00    +0.000 A 
ENDROOT
BRANCH   3   7
ATOM      7  C   UNL     1       2.407   6.944  19.161  0.00  0.00    +0.000 A 
ATOM      8  C   UNL     1       2.337   7.715  17.986  0.00  0.00    +0.000 A 
ATOM      9  C   UNL     1       1.743   8.981  17.964  0.00  0.00    +0.000 A 
ATOM     10  C   UNL     1       1.194   9.523  19.128  0.00  0.00    +0.000 A 
ATOM     11  C   UNL     1       1.249   8.770  20.302  0.00  0.00    +0.000 A 
ATOM     12  C   UNL     1       1.831   7.501  20.327  0.00  0.00    +0.000 A 
BRANCH  10  13
ATOM     13  C   UNL     1       0.610  10.885  19.053  0.00  0.00    +0.000 C 
ATOM     14  O   UNL     1      -0.416  11.192  19.636  0.00  0.00    +0.000 OA
BRANCH  13  15
ATOM     15  O   UNL     1       1.317  11.749  18.296  0.00  0.00    +0.000 OA
ATOM     16  H   UNL     1       1.535  11.406  17.401  0.00  0.00    +0.000 HD
ENDBRANCH  13  15
ENDBRANCH  10  13
BRANCH  11  17
ATOM     17  O   UNL     1       0.718   9.242  21.477  0.00  0.00    +0.000 OA
ATOM     18  H   UNL     1       1.176   8.771  22.204  0.00  0.00    +0.000 HD
ENDBRANCH  11  17
ENDBRANCH   3   7
BRANCH   6  19
ATOM     19  N   UNL     1       3.928   1.662  18.635  0.00  0.00    +0.000 N 
ATOM     20  H   UNL     1       3.184   1.135  19.072  0.00  0.00    +0.000 HD
ATOM     21  H   UNL     1       4.868   1.299  18.690  0.00  0.00    +0.000 HD
ENDBRANCH   6  19
BRANCH   1  22
ATOM     22  N   UNL     1       5.040   3.562  16.861  0.00  0.00    +0.000 N 
ATOM     23  H   UNL     1       5.681   2.857  17.209  0.00  0.00    +0.000 HD
BRANCH  22  25
ATOM     24  C   UNL     1       6.422   3.871  14.894  0.00  0.00    +0.000 C 
ATOM     25  C   UNL     1       5.692   4.581  16.045  0.00  0.00    +0.000 C 
BRANCH  25  26
ATOM     26  C   UNL     1       6.663   5.421  16.887  0.00  0.00    +0.000 A 
ATOM     27  C   UNL     1       7.357   4.818  17.951  0.00  0.00    +0.000 A 
ATOM     28  C   UNL     1       8.104   5.587  18.857  0.00  0.00    +0.000 A 
ATOM     29  C   UNL     1       8.187   6.967  18.701  0.00  0.00    +0.000 A 
ATOM     30  C   UNL     1       7.568   7.575  17.611  0.00  0.00    +0.000 A 
ATOM     31  C   UNL     1       6.828   6.807  16.702  0.00  0.00    +0.000 A 
ENDBRANCH  25  26
ENDBRANCH  22  25
ENDBRANCH   1  22
TORSDOF 8
ENDMDL
MODEL 3
REMARK VINA RESULT:      -8.4      0.607      1.265
REMARK  Name = 
REMARK  9 active torsions:
REMARK  status: ('A' for Active; 'I' for Inactive)
REMARK    1  A    between atoms: C_1  and  C_2
REMARK    2  A    between atoms: C_2  and  N_3
REMARK    3  A    between atoms: C_2  and  C_21
REMARK    4  A    between atoms: N_3  and  C_4
REMARK    5  A    between atoms: C_6  and  C_7
REMARK    6  A    between atoms: C_10  and  C_11
REMARK    7  A    between atoms: C_11  and  O_13
REMARK    8  A    between atoms: C_14  and  O_15
REMARK    9  A    between atoms: C_19  and  N_20
REMARK                            x       y       z     vdW  Elec       q    Type
REMARK                         _______ _______ _______ _____ _____    ______ ____
ROOT
ATOM      1  C   UNL     1       3.679   3.921  18.207  0.00  0.00    +0.000 A 
ATOM      2  N   UNL     1       3.407   5.230  18.450  0.00  0.00    +0.000 NA
ATOM      3  C   UNL     1       2.382   5.506  19.322  0.00  0.00    +0.000 A 
ATOM      4  C   UNL     1       1.702   4.478  19.964  0.00  0.00    +0.000 A 
ATOM      5  N   UNL     1       1.929   3.164  19.723  0.00  0.00    +0.000 NA
ATOM      6  C   UNL     1       2.884   2.902  18.810  0.00  0.00    +0.000 A 
ENDROOT
BRANCH   3   7
ATOM      7  C   UNL     1       1.975   6.921  19.456  0.00  0.00    +0.000 A 
ATOM      8  C   UNL     1       1.492   7.401  20.688  0.00  0.00    +0.000 A 
ATOM      9  C   UNL     1       1.131   8.741  20.872  0.00  0.00    +0.000 A 
ATOM     10  C   UNL     1       1.243   9.651  19.820  0.00  0.00    +0.000 A 
ATOM     11  C   UNL     1       1.727   9.195  18.593  0.00  0.00    +0.000 A 
ATOM     12  C   UNL     1       2.099   7.861  18.407  0.00  0.00    +0.000 A 
BRANCH  10  13
ATOM     13  C   UNL     1       0.811  11.051  20.063  0.00  0.00    +0.000 C 
ATOM     14  O   UNL     1       1.174  11.690  21.035  0.00  0.00    +0.000 OA
BRANCH  13  15
ATOM     15  O   UNL     1      -0.005  11.549  19.112  0.00  0.00    +0.000 OA
ATOM     16  H   UNL     1       0.125  12.508  18.940  0.00  0.00    +0.000 HD
ENDBRANCH  13  15
ENDBRANCH  10  13
BRANCH  11  17
ATOM     17  O   UNL     1       1.870  10.043  17.522  0.00  0.00    +0.000 OA
ATOM     18  H   UNL     1       1.691  10.948  17.852  0.00  0.00    +0.000 HD
ENDBRANCH  11  17
ENDBRANCH   3   7
BRANCH   6  19
ATOM     19  N   UNL     1       2.906   1.597  18.327  0.00  0.00    +0.000 N 
ATOM     20  H   UNL     1       3.670   1.455  17.680  0.00  0.00    +0.000 HD
ATOM     21  H   UNL     1       2.003   1.213  18.094  0.00  0.00    +0.000 HD
ENDBRANCH   6  19
BRANCH   1  22
ATOM     22  N   UNL     1       4.750   3.514  17.371  0.00  0.00    +0.000 N 
ATOM     23  H   UNL     1       5.427   2.996  17.922  0.00  0.00    +0.000 HD
BRANCH  22  25
ATOM     24  C   UNL     1       6.164   3.776  15.420  0.00  0.00    +0.000 C 
ATOM     25  C   UNL     1       5.361   4.514  16.502  0.00  0.00    +0.000 C 
BRANCH  25  26
ATOM     26  C   UNL     1       6.256   5.469  17.305  0.00  0.00    +0.000 A 
ATOM     27  C   UNL     1       6.383   6.808  16.895  0.00  0.00    +0.000 A 
ATOM     28  C   UNL     1       7.331   7.659  17.483  0.00  0.00    +0.000 A 
ATOM     29  C   UNL     1       8.153   7.192  18.503  0.00  0.00    +0.000 A 
ATOM     30  C   UNL     1       7.993   5.891  18.975  0.00  0.00    +0.000 A 
ATOM     31  C   UNL     1       7.041   5.042  18.392  0.00  0.00    +0.000 A 
ENDBRANCH  25  26
ENDBRANCH  22  25
ENDBRANCH   1  22
TORSDOF 8
ENDMDL
MODEL 4
REMARK VINA RESULT:      -8.1      1.726      4.131
REMARK  Name = 
REMARK  9 active torsions:
REMARK  status: ('A' for Active; 'I' for Inactive)
REMARK    1  A    between atoms: C_1  and  C_2
REMARK    2  A    between atoms: C_2  and  N_3
REMARK    3  A    between atoms: C_2  and  C_21
REMARK    4  A    between atoms: N_3  and  C_4
REMARK    5  A    between atoms: C_6  and  C_7
REMARK    6  A    between atoms: C_10  and  C_11
REMARK    7  A    between atoms: C_11  and  O_13
REMARK    8  A    between atoms: C_14  and  O_15
REMARK    9  A    between atoms: C_19  and  N_20
REMARK                            x       y       z     vdW  Elec       q    Type
REMARK                         _______ _______ _______ _____ _____    ______ ____
ROOT
ATOM      1  C   UNL     1       4.792   4.449  17.695  0.00  0.00    +0.000 A 
ATOM      2  N   UNL     1       3.804   5.248  18.178  0.00  0.00    +0.000 NA
ATOM      3  C   UNL     1       3.785   6.551  17.746  0.00  0.00    +0.000 A 
ATOM      4  C   UNL     1       4.709   7.002  16.811  0.00  0.00    +0.000 A 
ATOM      5  N   UNL     1       5.722   6.240  16.331  0.00  0.00    +0.000 NA
ATOM      6  C   UNL     1       5.779   4.985  16.817  0.00  0.00    +0.000 A 
ENDROOT
BRANCH   3   7
ATOM      7  C   UNL     1       2.819   7.463  18.397  0.00  0.00    +0.000 A 
ATOM      8  C   UNL     1       2.397   7.215  19.717  0.00  0.00    +0.000 A 
ATOM      9  C   UNL     1       1.514   8.071  20.386  0.00  0.00    +0.000 A 
ATOM     10  C   UNL     1       1.021   9.211  19.750  0.00  0.00    +0.000 A 
ATOM     11  C   UNL     1       1.434   9.476  18.443  0.00  0.00    +0.000 A 
ATOM     12  C   UNL     1       2.323   8.632  17.775  0.00  0.00    +0.000 A 
BRANCH  10  13
ATOM     13  C   UNL     1       0.059  10.062  20.495  0.00  0.00    +0.000 C 
ATOM     14  O   UNL     1      -0.893  10.602  19.957  0.00  0.00    +0.000 OA
BRANCH  13  15
ATOM     15  O   UNL     1       0.324  10.172  21.813  0.00  0.00    +0.000 OA
ATOM     16  H   UNL     1       1.260  10.394  22.012  0.00  0.00    +0.000 HD
ENDBRANCH  13  15
ENDBRANCH  10  13
BRANCH  11  17
ATOM     17  O   UNL     1       0.992  10.587  17.767  0.00  0.00    +0.000 OA
ATOM     18  H   UNL     1       0.174  10.326  17.298  0.00  0.00    +0.000 HD
ENDBRANCH  11  17
ENDBRANCH   3   7
BRANCH   6  19
ATOM     19  N   UNL     1       6.972   4.308  16.584  0.00  0.00    +0.000 N 
ATOM     20  H   UNL     1       7.358   4.538  15.677  0.00  0.00    +0.000 HD
ATOM     21  H   UNL     1       6.979   3.342  16.876  0.00  0.00    +0.000 HD
ENDBRANCH   6  19
BRANCH   1  22
ATOM     22  N   UNL     1       4.878   3.072  18.024  0.00  0.00    +0.000 N 
ATOM     23  H   UNL     1       5.659   2.657  17.526  0.00  0.00    +0.000 HD
BRANCH  22  25
ATOM     24  C   UNL     1       2.882   2.698  16.700  0.00  0.00    +0.000 C 
ATOM     25  C   UNL     1       3.660   2.271  17.955  0.00  0.00    +0.000 C 
BRANCH  25  26
ATOM     26  C   UNL     1       2.812   2.449  19.222  0.00  0.00    +0.000 A 
ATOM     27  C   UNL     1       1.442   2.744  19.103  0.00  0.00    +0.000 A 
ATOM     28  C   UNL     1       0.677   3.100  20.224  0.00  0.00    +0.000 A 
ATOM     29  C   UNL     1       1.263   3.144  21.485  0.00  0.00    +0.000 A 
ATOM     30  C   UNL     1       2.599   2.783  21.636  0.00  0.00    +0.000 A 
ATOM     31  C   UNL     1       3.363   2.422  20.517  0.00  0.00    +0.000 A 
ENDBRANCH  25  26
ENDBRANCH  22  25
ENDBRANCH   1  22
TORSDOF 8
ENDMDL
MODEL 5
REMARK VINA RESULT:      -8.0      1.223      2.755
REMARK  Name = 
REMARK  9 active torsions:
REMARK  status: ('A' for Active; 'I' for Inactive)
REMARK    1  A    between atoms: C_1  and  C_2
REMARK    2  A    between atoms: C_2  and  N_3
REMARK    3  A    between atoms: C_2  and  C_21
REMARK    4  A    between atoms: N_3  and  C_4
REMARK    5  A    between atoms: C_6  and  C_7
REMARK    6  A    between atoms: C_10  and  C_11
REMARK    7  A    between atoms: C_11  and  O_13
REMARK    8  A    between atoms: C_14  and  O_15
REMARK    9  A    between atoms: C_19  and  N_20
REMARK                            x       y       z     vdW  Elec       q    Type
REMARK                         _______ _______ _______ _____ _____    ______ ____
ROOT
ATOM      1  C   UNL     1       3.994   4.319  17.379  0.00  0.00    +0.000 A 
ATOM      2  N   UNL     1       3.517   5.560  17.665  0.00  0.00    +0.000 NA
ATOM      3  C   UNL     1       3.056   5.776  18.940  0.00  0.00    +0.000 A 
ATOM      4  C   UNL     1       3.135   4.775  19.901  0.00  0.00    +0.000 A 
ATOM      5  N   UNL     1       3.579   3.521  19.642  0.00  0.00    +0.000 NA
ATOM      6  C   UNL     1       3.957   3.295  18.370  0.00  0.00    +0.000 A 
ENDROOT
BRANCH   3   7
ATOM      7  C   UNL     1       2.384   7.067  19.203  0.00  0.00    +0.000 A 
ATOM      8  C   UNL     1       1.851   7.336  20.477  0.00  0.00    +0.000 A 
ATOM      9  C   UNL     1       1.240   8.558  20.783  0.00  0.00    +0.000 A 
ATOM     10  C   UNL     1       1.143   9.558  19.815  0.00  0.00    +0.000 A 
ATOM     11  C   UNL     1       1.673   9.312  18.547  0.00  0.00    +0.000 A 
ATOM     12  C   UNL     1       2.293   8.099  18.240  0.00  0.00    +0.000 A 
BRANCH  10  13
ATOM     13  C   UNL     1       0.452  10.819  20.185  0.00  0.00    +0.000 C 
ATOM     14  O   UNL     1       0.835  11.534  21.095  0.00  0.00    +0.000 OA
BRANCH  13  15
ATOM     15  O   UNL     1      -0.622  11.104  19.423  0.00  0.00    +0.000 OA
ATOM     16  H   UNL     1      -1.294  10.388  19.400  0.00  0.00    +0.000 HD
ENDBRANCH  13  15
ENDBRANCH  10  13
BRANCH  11  17
ATOM     17  O   UNL     1       1.618  10.259  17.555  0.00  0.00    +0.000 OA
ATOM     18  H   UNL     1       2.273  10.949  17.786  0.00  0.00    +0.000 HD
ENDBRANCH  11  17
ENDBRANCH   3   7
BRANCH   6  19
ATOM     19  N   UNL     1       4.109   1.956  18.021  0.00  0.00    +0.000 N 
ATOM     20  H   UNL     1       3.317   1.620  17.489  0.00  0.00    +0.000 HD
ATOM     21  H   UNL     1       4.482   1.365  18.749  0.00  0.00    +0.000 HD
ENDBRANCH   6  19
BRANCH   1  22
ATOM     22  N   UNL     1       4.549   3.996  16.114  0.00  0.00    +0.000 N 
ATOM     23  H   UNL     1       4.159   3.116  15.793  0.00  0.00    +0.000 HD
BRANCH  22  25
ATOM     24  C   UNL     1       6.506   5.233  16.833  0.00  0.00    +0.000 C 
ATOM     25  C   UNL     1       5.997   4.076  15.959  0.00  0.00    +0.000 C 
BRANCH  25  26
ATOM     26  C   UNL     1       6.382   4.281  14.486  0.00  0.00    +0.000 A 
ATOM     27  C   UNL     1       5.778   3.486  13.496  0.00  0.00    +0.000 A 
ATOM     28  C   UNL     1       6.236   3.509  12.170  0.00  0.00    +0.000 A 
ATOM     29  C   UNL     1       7.290   4.342  11.808  0.00  0.00    +0.000 A 
ATOM     30  C   UNL     1       7.853   5.192  12.757  0.00  0.00    +0.000 A 
ATOM     31  C   UNL     1       7.391   5.174  14.081  0.00  0.00    +0.000 A 
ENDBRANCH  25  26
ENDBRANCH  22  25
ENDBRANCH   1  22
TORSDOF 8
ENDMDL
MODEL 6
REMARK VINA RESULT:      -8.0      0.830      1.823
REMARK  Name = 
REMARK  9 active torsions:
REMARK  status: ('A' for Active; 'I' for Inactive)
REMARK    1  A    between atoms: C_1  and  C_2
REMARK    2  A    between atoms: C_2  and  N_3
REMARK    3  A    between atoms: C_2  and  C_21
REMARK    4  A    between atoms: N_3  and  C_4
REMARK    5  A    between atoms: C_6  and  C_7
REMARK    6  A    between atoms: C_10  and  C_11
REMARK    7  A    between atoms: C_11  and  O_13
REMARK    8  A    between atoms: C_14  and  O_15
REMARK    9  A    between atoms: C_19  and  N_20
REMARK                            x       y       z     vdW  Elec       q    Type
REMARK                         _______ _______ _______ _____ _____    ______ ____
ROOT
ATOM      1  C   UNL     1       3.892   4.141  18.277  0.00  0.00    +0.000 A 
ATOM      2  N   UNL     1       3.540   5.453  18.331  0.00  0.00    +0.000 NA
ATOM      3  C   UNL     1       2.711   5.837  19.356  0.00  0.00    +0.000 A 
ATOM      4  C   UNL     1       2.307   4.923  20.321  0.00  0.00    +0.000 A 
ATOM      5  N   UNL     1       2.617   3.605  20.282  0.00  0.00    +0.000 NA
ATOM      6  C   UNL     1       3.367   3.221  19.231  0.00  0.00    +0.000 A 
ENDROOT
BRANCH   3   7
ATOM      7  C   UNL     1       2.192   7.222  19.319  0.00  0.00    +0.000 A 
ATOM      8  C   UNL     1       2.220   7.952  18.116  0.00  0.00    +0.000 A 
ATOM      9  C   UNL     1       1.706   9.251  18.025  0.00  0.00    +0.000 A 
ATOM     10  C   UNL     1       1.142   9.865  19.144  0.00  0.00    +0.000 A 
ATOM     11  C   UNL     1       1.099   9.153  20.344  0.00  0.00    +0.000 A 
ATOM     12  C   UNL     1       1.601   7.853  20.437  0.00  0.00    +0.000 A 
BRANCH  10  13
ATOM     13  C   UNL     1       0.646  11.257  18.997  0.00  0.00    +0.000 C 
ATOM     14  O   UNL     1      -0.293  11.690  19.643  0.00  0.00    +0.000 OA
BRANCH  13  15
ATOM     15  O   UNL     1       1.330  11.995  18.100  0.00  0.00    +0.000 OA
ATOM     16  H   UNL     1       1.022  11.881  17.174  0.00  0.00    +0.000 HD
ENDBRANCH  13  15
ENDBRANCH  10  13
BRANCH  11  17
ATOM     17  O   UNL     1       0.548   9.698  21.478  0.00  0.00    +0.000 OA
ATOM     18  H   UNL     1       1.002   9.285  22.240  0.00  0.00    +0.000 HD
ENDBRANCH  11  17
ENDBRANCH   3   7
BRANCH   6  19
ATOM     19  N   UNL     1       3.424   1.848  19.008  0.00  0.00    +0.000 N 
ATOM     20  H   UNL     1       3.035   1.330  19.785  0.00  0.00    +0.000 HD
ATOM     21  H   UNL     1       4.283   1.518  18.596  0.00  0.00    +0.000 HD
ENDBRANCH   6  19
BRANCH   1  22
ATOM     22  N   UNL     1       4.788   3.639  17.299  0.00  0.00    +0.000 N 
ATOM     23  H   UNL     1       5.414   2.967  17.732  0.00  0.00    +0.000 HD
BRANCH  22  25
ATOM     24  C   UNL     1       6.323   3.808  15.431  0.00  0.00    +0.000 C 
ATOM     25  C   UNL     1       5.477   4.597  16.442  0.00  0.00    +0.000 C 
BRANCH  25  26
ATOM     26  C   UNL     1       6.348   5.552  17.271  0.00  0.00    +0.000 A 
ATOM     27  C   UNL     1       6.473   6.895  16.876  0.00  0.00    +0.000 A 
ATOM     28  C   UNL     1       7.403   7.748  17.490  0.00  0.00    +0.000 A 
ATOM     29  C   UNL     1       8.206   7.278  18.524  0.00  0.00    +0.000 A 
ATOM     30  C   UNL     1       8.046   5.972  18.981  0.00  0.00    +0.000 A 
ATOM     31  C   UNL     1       7.113   5.122  18.372  0.00  0.00    +0.000 A 
ENDBRANCH  25  26
ENDBRANCH  22  25
ENDBRANCH   1  22
TORSDOF 8
ENDMDL
MODEL 7
REMARK VINA RESULT:      -8.0      1.860      4.367
REMARK  Name = 
REMARK  9 active torsions:
REMARK  status: ('A' for Active; 'I' for Inactive)
REMARK    1  A    between atoms: C_1  and  C_2
REMARK    2  A    between atoms: C_2  and  N_3
REMARK    3  A    between atoms: C_2  and  C_21
REMARK    4  A    between atoms: N_3  and  C_4
REMARK    5  A    between atoms: C_6  and  C_7
REMARK    6  A    between atoms: C_10  and  C_11
REMARK    7  A    between atoms: C_11  and  O_13
REMARK    8  A    between atoms: C_14  and  O_15
REMARK    9  A    between atoms: C_19  and  N_20
REMARK                            x       y       z     vdW  Elec       q    Type
REMARK                         _______ _______ _______ _____ _____    ______ ____
ROOT
ATOM      1  C   UNL     1       5.065   4.533  18.320  0.00  0.00    +0.000 A 
ATOM      2  N   UNL     1       4.052   5.357  18.697  0.00  0.00    +0.000 NA
ATOM      3  C   UNL     1       3.864   6.499  17.957  0.00  0.00    +0.000 A 
ATOM      4  C   UNL     1       4.649   6.756  16.839  0.00  0.00    +0.000 A 
ATOM      5  N   UNL     1       5.683   5.971  16.453  0.00  0.00    +0.000 NA
ATOM      6  C   UNL     1       5.910   4.893  17.229  0.00  0.00    +0.000 A 
ENDROOT
BRANCH   3   7
ATOM      7  C   UNL     1       2.876   7.476  18.465  0.00  0.00    +0.000 A 
ATOM      8  C   UNL     1       2.414   8.508  17.629  0.00  0.00    +0.000 A 
ATOM      9  C   UNL     1       1.452   9.432  18.054  0.00  0.00    +0.000 A 
ATOM     10  C   UNL     1       0.917   9.350  19.341  0.00  0.00    +0.000 A 
ATOM     11  C   UNL     1       1.359   8.327  20.182  0.00  0.00    +0.000 A 
ATOM     12  C   UNL     1       2.311   7.397  19.759  0.00  0.00    +0.000 A 
BRANCH  10  13
ATOM     13  C   UNL     1      -0.072  10.379  19.750  0.00  0.00    +0.000 C 
ATOM     14  O   UNL     1      -0.006  10.966  20.817  0.00  0.00    +0.000 OA
BRANCH  13  15
ATOM     15  O   UNL     1      -1.036  10.612  18.836  0.00  0.00    +0.000 OA
ATOM     16  H   UNL     1      -1.819  10.026  18.928  0.00  0.00    +0.000 HD
ENDBRANCH  13  15
ENDBRANCH  10  13
BRANCH  11  17
ATOM     17  O   UNL     1       0.864   8.187  21.456  0.00  0.00    +0.000 OA
ATOM     18  H   UNL     1       0.610   9.083  21.760  0.00  0.00    +0.000 HD
ENDBRANCH  11  17
ENDBRANCH   3   7
BRANCH   6  19
ATOM     19  N   UNL     1       7.138   4.267  17.037  0.00  0.00    +0.000 N 
ATOM     20  H   UNL     1       7.890   4.787  17.470  0.00  0.00    +0.000 HD
ATOM     21  H   UNL     1       7.285   3.891  16.113  0.00  0.00    +0.000 HD
ENDBRANCH   6  19
BRANCH   1  22
ATOM     22  N   UNL     1       5.317   3.299  18.971  0.00  0.00    +0.000 N 
ATOM     23  H   UNL     1       6.275   3.014  18.790  0.00  0.00    +0.000 HD
BRANCH  22  25
ATOM     24  C   UNL     1       4.001   2.134  17.303  0.00  0.00    +0.000 C 
ATOM     25  C   UNL     1       4.352   2.220  18.796  0.00  0.00    +0.000 C 
BRANCH  25  26
ATOM     26  C   UNL     1       3.098   2.459  19.650  0.00  0.00    +0.000 A 
ATOM     27  C   UNL     1       1.846   2.586  19.020  0.00  0.00    +0.000 A 
ATOM     28  C   UNL     1       0.712   2.992  19.739  0.00  0.00    +0.000 A 
ATOM     29  C   UNL     1       0.805   3.256  21.102  0.00  0.00    +0.000 A 
ATOM     30  C   UNL     1       2.018   3.066  21.759  0.00  0.00    +0.000 A 
ATOM     31  C   UNL     1       3.150   2.654  21.042  0.00  0.00    +0.000 A 
ENDBRANCH  25  26
ENDBRANCH  22  25
ENDBRANCH   1  22
TORSDOF 8
ENDMDL
MODEL 8
REMARK VINA RESULT:      -8.0      1.734      4.291
REMARK  Name = 
REMARK  9 active torsions:
REMARK  status: ('A' for Active; 'I' for Inactive)
REMARK    1  A    between atoms: C_1  and  C_2
REMARK    2  A    between atoms: C_2  and  N_3
REMARK    3  A    between atoms: C_2  and  C_21
REMARK    4  A    between atoms: N_3  and  C_4
REMARK    5  A    between atoms: C_6  and  C_7
REMARK    6  A    between atoms: C_10  and  C_11
REMARK    7  A    between atoms: C_11  and  O_13
REMARK    8  A    between atoms: C_14  and  O_15
REMARK    9  A    between atoms: C_19  and  N_20
REMARK                            x       y       z     vdW  Elec       q    Type
REMARK                         _______ _______ _______ _____ _____    ______ ____
ROOT
ATOM      1  C   UNL     1       5.015   4.397  18.273  0.00  0.00    +0.000 A 
ATOM      2  N   UNL     1       4.014   5.217  18.690  0.00  0.00    +0.000 NA
ATOM      3  C   UNL     1       3.828   6.384  17.990  0.00  0.00    +0.000 A 
ATOM      4  C   UNL     1       4.600   6.670  16.871  0.00  0.00    +0.000 A 
ATOM      5  N   UNL     1       5.622   5.888  16.445  0.00  0.00    +0.000 NA
ATOM      6  C   UNL     1       5.848   4.784  17.182  0.00  0.00    +0.000 A 
ENDROOT
BRANCH   3   7
ATOM      7  C   UNL     1       2.857   7.353  18.543  0.00  0.00    +0.000 A 
ATOM      8  C   UNL     1       2.328   7.162  19.833  0.00  0.00    +0.000 A 
ATOM      9  C   UNL     1       1.436   8.072  20.412  0.00  0.00    +0.000 A 
ATOM     10  C   UNL     1       1.041   9.213  19.711  0.00  0.00    +0.000 A 
ATOM     11  C   UNL     1       1.561   9.423  18.433  0.00  0.00    +0.000 A 
ATOM     12  C   UNL     1       2.460   8.523  17.856  0.00  0.00    +0.000 A 
BRANCH  10  13
ATOM     13  C   UNL     1       0.064  10.124  20.360  0.00  0.00    +0.000 C 
ATOM     14  O   UNL     1       0.239  10.587  21.474  0.00  0.00    +0.000 OA
BRANCH  13  15
ATOM     15  O   UNL     1      -1.020  10.398  19.607  0.00  0.00    +0.000 OA
ATOM     16  H   UNL     1      -1.862  10.409  20.112  0.00  0.00    +0.000 HD
ENDBRANCH  13  15
ENDBRANCH  10  13
BRANCH  11  17
ATOM     17  O   UNL     1       1.220  10.531  17.697  0.00  0.00    +0.000 OA
ATOM     18  H   UNL     1       1.772  11.270  18.026  0.00  0.00    +0.000 HD
ENDBRANCH  11  17
ENDBRANCH   3   7
BRANCH   6  19
ATOM     19  N   UNL     1       7.067   4.153  16.954  0.00  0.00    +0.000 N 
ATOM     20  H   UNL     1       7.503   3.865  17.820  0.00  0.00    +0.000 HD
ATOM     21  H   UNL     1       7.644   4.583  16.248  0.00  0.00    +0.000 HD
ENDBRANCH   6  19
BRANCH   1  22
ATOM     22  N   UNL     1       5.263   3.140  18.881  0.00  0.00    +0.000 N 
ATOM     23  H   UNL     1       5.155   2.406  18.188  0.00  0.00    +0.000 HD
BRANCH  22  25
ATOM     24  C   UNL     1       5.119   1.489  20.650  0.00  0.00    +0.000 C 
ATOM     25  C   UNL     1       4.596   2.843  20.143  0.00  0.00    +0.000 C 
BRANCH  25  26
ATOM     26  C   UNL     1       3.071   2.819  19.968  0.00  0.00    +0.000 A 
ATOM     27  C   UNL     1       2.505   2.056  18.930  0.00  0.00    +0.000 A 
ATOM     28  C   UNL     1       1.141   2.157  18.617  0.00  0.00    +0.000 A 
ATOM     29  C   UNL     1       0.316   3.004  19.351  0.00  0.00    +0.000 A 
ATOM     30  C   UNL     1       0.841   3.711  20.430  0.00  0.00    +0.000 A 
ATOM     31  C   UNL     1       2.202   3.606  20.746  0.00  0.00    +0.000 A 
ENDBRANCH  25  26
ENDBRANCH  22  25
ENDBRANCH   1  22
TORSDOF 8
ENDMDL
MODEL 9
REMARK VINA RESULT:      -8.0      1.399      3.164
REMARK  Name = 
REMARK  9 active torsions:
REMARK  status: ('A' for Active; 'I' for Inactive)
REMARK    1  A    between atoms: C_1  and  C_2
REMARK    2  A    between atoms: C_2  and  N_3
REMARK    3  A    between atoms: C_2  and  C_21
REMARK    4  A    between atoms: N_3  and  C_4
REMARK    5  A    between atoms: C_6  and  C_7
REMARK    6  A    between atoms: C_10  and  C_11
REMARK    7  A    between atoms: C_11  and  O_13
REMARK    8  A    between atoms: C_14  and  O_15
REMARK    9  A    between atoms: C_19  and  N_20
REMARK                            x       y       z     vdW  Elec       q    Type
REMARK                         _______ _______ _______ _____ _____    ______ ____
ROOT
ATOM      1  C   UNL     1       4.129   4.713  17.381  0.00  0.00    +0.000 A 
ATOM      2  N   UNL     1       3.580   5.940  17.585  0.00  0.00    +0.000 NA
ATOM      3  C   UNL     1       3.087   6.205  18.838  0.00  0.00    +0.000 A 
ATOM      4  C   UNL     1       3.205   5.269  19.859  0.00  0.00    +0.000 A 
ATOM      5  N   UNL     1       3.720   4.029  19.683  0.00  0.00    +0.000 NA
ATOM      6  C   UNL     1       4.132   3.748  18.431  0.00  0.00    +0.000 A 
ENDROOT
BRANCH   3   7
ATOM      7  C   UNL     1       2.341   7.470  19.015  0.00  0.00    +0.000 A 
ATOM      8  C   UNL     1       2.124   8.319  17.914  0.00  0.00    +0.000 A 
ATOM      9  C   UNL     1       1.392   9.506  18.025  0.00  0.00    +0.000 A 
ATOM     10  C   UNL     1       0.847   9.885  19.253  0.00  0.00    +0.000 A 
ATOM     11  C   UNL     1       1.046   9.052  20.355  0.00  0.00    +0.000 A 
ATOM     12  C   UNL     1       1.767   7.861  20.247  0.00  0.00    +0.000 A 
BRANCH  10  13
ATOM     13  C   UNL     1       0.112  11.173  19.320  0.00  0.00    +0.000 C 
ATOM     14  O   UNL     1      -0.346  11.614  20.361  0.00  0.00    +0.000 OA
BRANCH  13  15
ATOM     15  O   UNL     1       0.006  11.811  18.137  0.00  0.00    +0.000 OA
ATOM     16  H   UNL     1       0.732  11.603  17.508  0.00  0.00    +0.000 HD
ENDBRANCH  13  15
ENDBRANCH  10  13
BRANCH  11  17
ATOM     17  O   UNL     1       0.528   9.364  21.588  0.00  0.00    +0.000 OA
ATOM     18  H   UNL     1       1.258   9.757  22.110  0.00  0.00    +0.000 HD
ENDBRANCH  11  17
ENDBRANCH   3   7
BRANCH   6  19
ATOM     19  N   UNL     1       4.362   2.402  18.166  0.00  0.00    +0.000 N 
ATOM     20  H   UNL     1       5.339   2.165  18.273  0.00  0.00    +0.000 HD
ATOM     21  H   UNL     1       3.865   2.033  17.369  0.00  0.00    +0.000 HD
ENDBRANCH   6  19
BRANCH   1  22
ATOM     22  N   UNL     1       4.722   4.346  16.146  0.00  0.00    +0.000 N 
ATOM     23  H   UNL     1       4.385   3.429  15.871  0.00  0.00    +0.000 HD
BRANCH  22  25
ATOM     24  C   UNL     1       6.560   5.867  16.573  0.00  0.00    +0.000 C 
ATOM     25  C   UNL     1       6.166   4.494  16.006  0.00  0.00    +0.000 C 
BRANCH  25  26
ATOM     26  C   UNL     1       6.595   4.355  14.538  0.00  0.00    +0.000 A 
ATOM     27  C   UNL     1       7.581   5.214  14.020  0.00  0.00    +0.000 A 
ATOM     28  C   UNL     1       7.864   5.248  12.647  0.00  0.00    +0.000 A 
ATOM     29  C   UNL     1       7.181   4.409  11.771  0.00  0.00    +0.000 A 
ATOM     30  C   UNL     1       6.254   3.498  12.273  0.00  0.00    +0.000 A 
ATOM     31  C   UNL     1       5.976   3.459  13.646  0.00  0.00    +0.000 A 
ENDBRANCH  25  26
ENDBRANCH  22  25
ENDBRANCH   1  22
TORSDOF 8
ENDMDL
