MODEL 1
REMARK VINA RESULT:      -8.0      0.000      0.000
REMARK  Name = 
REMARK  5 active torsions:
REMARK  status: ('A' for Active; 'I' for Inactive)
REMARK    1  A    between atoms: C_1  and  O_2
REMARK    2  A    between atoms: O_2  and  C_3
REMARK    3  A    between atoms: C_6  and  C_7
REMARK    4  A    between atoms: C_7  and  C_9
REMARK    5  A    between atoms: C_16  and  C_17
REMARK                            x       y       z     vdW  Elec       q    Type
REMARK                         _______ _______ _______ _____ _____    ______ ____
ROOT
ATOM      1  C   UNL     1       3.530   3.223  19.174  0.00  0.00    +0.000 C 
ATOM      2  C   UNL     1       2.314   2.494  19.778  0.00  0.00    +0.000 C 
ATOM      3  C   UNL     1       1.096   3.390  20.018  0.00  0.00    +0.000 C 
ATOM      4  C   UNL     1       1.412   4.754  20.634  0.00  0.00    +0.000 C 
ATOM      5  N   UNL     1       2.602   5.355  20.039  0.00  0.00    +0.000 N 
ATOM      6  C   UNL     1       2.565   6.516  19.293  0.00  0.00    +0.000 A 
ATOM      7  C   UNL     1       1.648   7.534  19.544  0.00  0.00    +0.000 A 
ATOM      8  C   UNL     1       1.676   8.706  18.781  0.00  0.00    +0.000 A 
ATOM      9  C   UNL     1       2.620   8.849  17.776  0.00  0.00    +0.000 A 
ATOM     10  C   UNL     1       3.508   7.813  17.593  0.00  0.00    +0.000 A 
ATOM     11  N   UNL     1       3.497   6.679  18.327  0.00  0.00    +0.000 NA
ATOM     12  C   UNL     1       3.792   4.509  19.952  0.00  0.00    +0.000 C 
ENDROOT
BRANCH   1  13
ATOM     13  C   UNL     1       3.394   3.443  17.664  0.00  0.00    +0.000 C 
ATOM     14  O   UNL     1       2.362   3.144  17.059  0.00  0.00    +0.000 OA
BRANCH  13  18
ATOM     15  C   UNL     1       6.852   4.884  15.467  0.00  0.00    +0.000 A 
ATOM     16  C   UNL     1       5.590   4.900  14.862  0.00  0.00    +0.000 A 
ATOM     17  C   UNL     1       4.450   4.441  15.545  0.00  0.00    +0.000 A 
ATOM     18  C   UNL     1       4.557   3.953  16.853  0.00  0.00    +0.000 A 
ATOM     19  C   UNL     1       5.818   3.970  17.466  0.00  0.00    +0.000 A 
ATOM     20  C   UNL     1       6.945   4.428  16.781  0.00  0.00    +0.000 A 
ATOM     21  F   UNL     1       8.115   4.415  17.436  0.00  0.00    +0.000 F 
BRANCH  15  23
ATOM     22  C   UNL     1       7.743   5.130  13.271  0.00  0.00    +0.000 C 
ATOM     23  O   UNL     1       7.874   5.337  14.675  0.00  0.00    +0.000 OA
ENDBRANCH  15  23
ENDBRANCH  13  18
ENDBRANCH   1  13
BRANCH   8  24
ATOM     24  C   UNL     1       0.744   9.762  19.049  0.00  0.00    +0.000 C 
ATOM     25  N   UNL     1      -0.011  10.618  19.261  0.00  0.00    +0.000 NA
ENDBRANCH   8  24
TORSDOF 4
ENDMDL
MODEL 2
REMARK VINA RESULT:      -7.5      1.394      1.679
REMARK  Name = 
REMARK  5 active torsions:
REMARK  status: ('A' for Active; 'I' for Inactive)
REMARK    1  A    between atoms: C_1  and  O_2
REMARK    2  A    between atoms: O_2  and  C_3
REMARK    3  A    between atoms: C_6  and  C_7
REMARK    4  A    between atoms: C_7  and  C_9
REMARK    5  A    between atoms: C_16  and  C_17
REMARK                            x       y       z     vdW  Elec       q    Type
REMARK                         _______ _______ _______ _____ _____    ______ ____
ROOT
ATOM      1  C   UNL     1       3.973   2.593  18.439  0.00  0.00    +0.000 C 
ATOM      2  C   UNL     1       2.941   1.465  18.629  0.00  0.00    +0.000 C 
ATOM      3  C   UNL     1       1.619   1.917  19.256  0.00  0.00    +0.000 C 
ATOM      4  C   UNL     1       1.764   2.876  20.439  0.00  0.00    +0.000 C 
ATOM      5  N   UNL     1       2.791   3.885  20.196  0.00  0.00    +0.000 N 
ATOM      6  C   UNL     1       2.510   5.232  20.079  0.00  0.00    +0.000 A 
ATOM      7  C   UNL     1       1.467   5.839  20.774  0.00  0.00    +0.000 A 
ATOM      8  C   UNL     1       1.248   7.214  20.647  0.00  0.00    +0.000 A 
ATOM      9  C   UNL     1       2.073   7.969  19.827  0.00  0.00    +0.000 A 
ATOM     10  C   UNL     1       3.096   7.309  19.183  0.00  0.00    +0.000 A 
ATOM     11  N   UNL     1       3.325   5.984  19.304  0.00  0.00    +0.000 NA
ATOM     12  C   UNL     1       4.090   3.401  19.728  0.00  0.00    +0.000 C 
ENDROOT
BRANCH   1  13
ATOM     13  C   UNL     1       3.683   3.455  17.206  0.00  0.00    +0.000 C 
ATOM     14  O   UNL     1       2.530   3.665  16.823  0.00  0.00    +0.000 OA
BRANCH  13  18
ATOM     15  C   UNL     1       6.976   5.139  14.929  0.00  0.00    +0.000 A 
ATOM     16  C   UNL     1       6.114   4.217  14.324  0.00  0.00    +0.000 A 
ATOM     17  C   UNL     1       5.039   3.652  15.032  0.00  0.00    +0.000 A 
ATOM     18  C   UNL     1       4.809   4.004  16.368  0.00  0.00    +0.000 A 
ATOM     19  C   UNL     1       5.655   4.952  16.959  0.00  0.00    +0.000 A 
ATOM     20  C   UNL     1       6.720   5.509  16.249  0.00  0.00    +0.000 A 
ATOM     21  F   UNL     1       7.483   6.412  16.883  0.00  0.00    +0.000 F 
BRANCH  15  23
ATOM     22  C   UNL     1       7.910   5.267  12.742  0.00  0.00    +0.000 C 
ATOM     23  O   UNL     1       7.993   5.585  14.128  0.00  0.00    +0.000 OA
ENDBRANCH  15  23
ENDBRANCH  13  18
ENDBRANCH   1  13
BRANCH   8  24
ATOM     24  C   UNL     1       0.184   7.843  21.374  0.00  0.00    +0.000 C 
ATOM     25  N   UNL     1      -0.674   8.352  21.968  0.00  0.00    +0.000 NA
ENDBRANCH   8  24
TORSDOF 4
ENDMDL
MODEL 3
REMARK VINA RESULT:      -7.4      1.141      1.387
REMARK  Name = 
REMARK  5 active torsions:
REMARK  status: ('A' for Active; 'I' for Inactive)
REMARK    1  A    between atoms: C_1  and  O_2
REMARK    2  A    between atoms: O_2  and  C_3
REMARK    3  A    between atoms: C_6  and  C_7
REMARK    4  A    between atoms: C_7  and  C_9
REMARK    5  A    between atoms: C_16  and  C_17
REMARK                            x       y       z     vdW  Elec       q    Type
REMARK                         _______ _______ _______ _____ _____    ______ ____
ROOT
ATOM      1  C   UNL     1       4.037   3.539  19.023  0.00  0.00    +0.000 C 
ATOM      2  C   UNL     1       2.948   2.652  19.656  0.00  0.00    +0.000 C 
ATOM      3  C   UNL     1       1.640   3.384  19.969  0.00  0.00    +0.000 C 
ATOM      4  C   UNL     1       1.811   4.763  20.607  0.00  0.00    +0.000 C 
ATOM      5  N   UNL     1       2.891   5.520  19.979  0.00  0.00    +0.000 N 
ATOM      6  C   UNL     1       2.678   6.683  19.266  0.00  0.00    +0.000 A 
ATOM      7  C   UNL     1       1.654   7.573  19.580  0.00  0.00    +0.000 A 
ATOM      8  C   UNL     1       1.504   8.755  18.847  0.00  0.00    +0.000 A 
ATOM      9  C   UNL     1       2.378   9.035  17.809  0.00  0.00    +0.000 A 
ATOM     10  C   UNL     1       3.378   8.121  17.562  0.00  0.00    +0.000 A 
ATOM     11  N   UNL     1       3.540   6.981  18.268  0.00  0.00    +0.000 NA
ATOM     12  C   UNL     1       4.172   4.832  19.823  0.00  0.00    +0.000 C 
ENDROOT
BRANCH   1  13
ATOM     13  C   UNL     1       3.810   3.771  17.526  0.00  0.00    +0.000 C 
ATOM     14  O   UNL     1       2.721   3.541  16.996  0.00  0.00    +0.000 OA
BRANCH  13  18
ATOM     15  C   UNL     1       7.010   4.926  14.826  0.00  0.00    +0.000 A 
ATOM     16  C   UNL     1       6.984   5.436  16.129  0.00  0.00    +0.000 A 
ATOM     17  C   UNL     1       5.962   5.084  17.028  0.00  0.00    +0.000 A 
ATOM     18  C   UNL     1       4.943   4.209  16.634  0.00  0.00    +0.000 A 
ATOM     19  C   UNL     1       4.992   3.674  15.339  0.00  0.00    +0.000 A 
ATOM     20  C   UNL     1       6.010   4.030  14.451  0.00  0.00    +0.000 A 
ATOM     21  F   UNL     1       5.989   3.473  13.231  0.00  0.00    +0.000 F 
BRANCH  15  23
ATOM     22  C   UNL     1       7.837   5.409  12.644  0.00  0.00    +0.000 C 
ATOM     23  O   UNL     1       8.047   5.376  14.053  0.00  0.00    +0.000 OA
ENDBRANCH  15  23
ENDBRANCH  13  18
ENDBRANCH   1  13
BRANCH   8  24
ATOM     24  C   UNL     1       0.460   9.680  19.180  0.00  0.00    +0.000 C 
ATOM     25  N   UNL     1      -0.384  10.429  19.455  0.00  0.00    +0.000 NA
ENDBRANCH   8  24
TORSDOF 4
ENDMDL
MODEL 4
REMARK VINA RESULT:      -7.1      1.116      1.310
REMARK  Name = 
REMARK  5 active torsions:
REMARK  status: ('A' for Active; 'I' for Inactive)
REMARK    1  A    between atoms: C_1  and  O_2
REMARK    2  A    between atoms: O_2  and  C_3
REMARK    3  A    between atoms: C_6  and  C_7
REMARK    4  A    between atoms: C_7  and  C_9
REMARK    5  A    between atoms: C_16  and  C_17
REMARK                            x       y       z     vdW  Elec       q    Type
REMARK                         _______ _______ _______ _____ _____    ______ ____
ROOT
ATOM      1  C   UNL     1       3.638   3.338  19.081  0.00  0.00    +0.000 C 
ATOM      2  C   UNL     1       2.510   2.503  19.717  0.00  0.00    +0.000 C 
ATOM      3  C   UNL     1       1.266   3.308  20.100  0.00  0.00    +0.000 C 
ATOM      4  C   UNL     1       1.552   4.647  20.782  0.00  0.00    +0.000 C 
ATOM      5  N   UNL     1       2.661   5.353  20.148  0.00  0.00    +0.000 N 
ATOM      6  C   UNL     1       2.507   6.555  19.486  0.00  0.00    +0.000 A 
ATOM      7  C   UNL     1       1.558   7.500  19.867  0.00  0.00    +0.000 A 
ATOM      8  C   UNL     1       1.468   8.717  19.184  0.00  0.00    +0.000 A 
ATOM      9  C   UNL     1       2.327   8.978  18.128  0.00  0.00    +0.000 A 
ATOM     10  C   UNL     1       3.254   8.009  17.815  0.00  0.00    +0.000 A 
ATOM     11  N   UNL     1       3.358   6.833  18.472  0.00  0.00    +0.000 NA
ATOM     12  C   UNL     1       3.886   4.586  19.924  0.00  0.00    +0.000 C 
ENDROOT
BRANCH   1  13
ATOM     13  C   UNL     1       3.382   3.644  17.602  0.00  0.00    +0.000 C 
ATOM     14  O   UNL     1       2.275   3.467  17.090  0.00  0.00    +0.000 OA
BRANCH  13  18
ATOM     15  C   UNL     1       6.536   5.091  14.990  0.00  0.00    +0.000 A 
ATOM     16  C   UNL     1       6.594   3.784  15.490  0.00  0.00    +0.000 A 
ATOM     17  C   UNL     1       5.590   3.285  16.339  0.00  0.00    +0.000 A 
ATOM     18  C   UNL     1       4.505   4.091  16.703  0.00  0.00    +0.000 A 
ATOM     19  C   UNL     1       4.435   5.387  16.172  0.00  0.00    +0.000 A 
ATOM     20  C   UNL     1       5.436   5.876  15.330  0.00  0.00    +0.000 A 
ATOM     21  F   UNL     1       5.295   7.124  14.861  0.00  0.00    +0.000 F 
BRANCH  15  23
ATOM     22  C   UNL     1       7.556   5.026  12.838  0.00  0.00    +0.000 C 
ATOM     23  O   UNL     1       7.594   5.449  14.198  0.00  0.00    +0.000 OA
ENDBRANCH  15  23
ENDBRANCH  13  18
ENDBRANCH   1  13
BRANCH   8  24
ATOM     24  C   UNL     1       0.501   9.697  19.585  0.00  0.00    +0.000 C 
ATOM     25  N   UNL     1      -0.281  10.494  19.905  0.00  0.00    +0.000 NA
ENDBRANCH   8  24
TORSDOF 4
ENDMDL
MODEL 5
REMARK VINA RESULT:      -6.9      1.712      2.012
REMARK  Name = 
REMARK  5 active torsions:
REMARK  status: ('A' for Active; 'I' for Inactive)
REMARK    1  A    between atoms: C_1  and  O_2
REMARK    2  A    between atoms: O_2  and  C_3
REMARK    3  A    between atoms: C_6  and  C_7
REMARK    4  A    between atoms: C_7  and  C_9
REMARK    5  A    between atoms: C_16  and  C_17
REMARK                            x       y       z     vdW  Elec       q    Type
REMARK                         _______ _______ _______ _____ _____    ______ ____
ROOT
ATOM      1  C   UNL     1       3.408   2.524  18.742  0.00  0.00    +0.000 C 
ATOM      2  C   UNL     1       2.212   1.555  18.789  0.00  0.00    +0.000 C 
ATOM      3  C   UNL     1       0.906   2.187  19.281  0.00  0.00    +0.000 C 
ATOM      4  C   UNL     1       1.053   3.102  20.497  0.00  0.00    +0.000 C 
ATOM      5  N   UNL     1       2.235   3.954  20.395  0.00  0.00    +0.000 N 
ATOM      6  C   UNL     1       2.163   5.329  20.284  0.00  0.00    +0.000 A 
ATOM      7  C   UNL     1       1.146   6.073  20.877  0.00  0.00    +0.000 A 
ATOM      8  C   UNL     1       1.141   7.467  20.764  0.00  0.00    +0.000 A 
ATOM      9  C   UNL     1       2.151   8.103  20.059  0.00  0.00    +0.000 A 
ATOM     10  C   UNL     1       3.135   7.310  19.513  0.00  0.00    +0.000 A 
ATOM     11  N   UNL     1       3.158   5.963  19.622  0.00  0.00    +0.000 NA
ATOM     12  C   UNL     1       3.495   3.293  20.058  0.00  0.00    +0.000 C 
ENDROOT
BRANCH   1  13
ATOM     13  C   UNL     1       3.384   3.432  17.509  0.00  0.00    +0.000 C 
ATOM     14  O   UNL     1       2.493   3.343  16.661  0.00  0.00    +0.000 OA
BRANCH  13  18
ATOM     15  C   UNL     1       6.709   6.152  16.869  0.00  0.00    +0.000 A 
ATOM     16  C   UNL     1       5.477   6.405  16.254  0.00  0.00    +0.000 A 
ATOM     17  C   UNL     1       4.380   5.545  16.439  0.00  0.00    +0.000 A 
ATOM     18  C   UNL     1       4.501   4.409  17.248  0.00  0.00    +0.000 A 
ATOM     19  C   UNL     1       5.727   4.178  17.889  0.00  0.00    +0.000 A 
ATOM     20  C   UNL     1       6.811   5.037  17.699  0.00  0.00    +0.000 A 
ATOM     21  F   UNL     1       7.949   4.750  18.348  0.00  0.00    +0.000 F 
BRANCH  15  23
ATOM     22  C   UNL     1       7.889   8.120  17.508  0.00  0.00    +0.000 C 
ATOM     23  O   UNL     1       7.693   7.059  16.577  0.00  0.00    +0.000 OA
ENDBRANCH  15  23
ENDBRANCH  13  18
ENDBRANCH   1  13
BRANCH   8  24
ATOM     24  C   UNL     1       0.103   8.235  21.387  0.00  0.00    +0.000 C 
ATOM     25  N   UNL     1      -0.737   8.861  21.888  0.00  0.00    +0.000 NA
ENDBRANCH   8  24
TORSDOF 4
ENDMDL
MODEL 6
REMARK VINA RESULT:      -6.9      3.450      6.123
REMARK  Name = 
REMARK  5 active torsions:
REMARK  status: ('A' for Active; 'I' for Inactive)
REMARK    1  A    between atoms: C_1  and  O_2
REMARK    2  A    between atoms: O_2  and  C_3
REMARK    3  A    between atoms: C_6  and  C_7
REMARK    4  A    between atoms: C_7  and  C_9
REMARK    5  A    between atoms: C_16  and  C_17
REMARK                            x       y       z     vdW  Elec       q    Type
REMARK                         _______ _______ _______ _____ _____    ______ ____
ROOT
ATOM      1  C   UNL     1       1.028   9.550  21.767  0.00  0.00    +0.000 C 
ATOM      2  C   UNL     1       0.369   9.858  23.125  0.00  0.00    +0.000 C 
ATOM      3  C   UNL     1      -1.057  10.408  23.024  0.00  0.00    +0.000 C 
ATOM      4  C   UNL     1      -1.263  11.469  21.942  0.00  0.00    +0.000 C 
ATOM      5  N   UNL     1      -0.569  11.123  20.705  0.00  0.00    +0.000 N 
ATOM      6  C   UNL     1      -1.230  10.841  19.526  0.00  0.00    +0.000 A 
ATOM      7  C   UNL     1      -2.440  11.443  19.187  0.00  0.00    +0.000 A 
ATOM      8  C   UNL     1      -3.050  11.149  17.964  0.00  0.00    +0.000 A 
ATOM      9  C   UNL     1      -2.446  10.258  17.091  0.00  0.00    +0.000 A 
ATOM     10  C   UNL     1      -1.243   9.712  17.480  0.00  0.00    +0.000 A 
ATOM     11  N   UNL     1      -0.638   9.994  18.654  0.00  0.00    +0.000 NA
ATOM     12  C   UNL     1       0.836  10.736  20.825  0.00  0.00    +0.000 C 
ENDROOT
BRANCH   1  13
ATOM     13  C   UNL     1       0.558   8.219  21.173  0.00  0.00    +0.000 C 
ATOM     14  O   UNL     1      -0.566   7.770  21.407  0.00  0.00    +0.000 OA
BRANCH  13  18
ATOM     15  C   UNL     1       3.224   5.640  18.914  0.00  0.00    +0.000 A 
ATOM     16  C   UNL     1       3.015   6.959  18.494  0.00  0.00    +0.000 A 
ATOM     17  C   UNL     1       2.158   7.820  19.202  0.00  0.00    +0.000 A 
ATOM     18  C   UNL     1       1.492   7.371  20.348  0.00  0.00    +0.000 A 
ATOM     19  C   UNL     1       1.730   6.059  20.783  0.00  0.00    +0.000 A 
ATOM     20  C   UNL     1       2.582   5.210  20.074  0.00  0.00    +0.000 A 
ATOM     21  F   UNL     1       2.761   3.971  20.555  0.00  0.00    +0.000 F 
BRANCH  15  23
ATOM     22  C   UNL     1       5.462   5.078  18.321  0.00  0.00    +0.000 C 
ATOM     23  O   UNL     1       4.062   4.909  18.114  0.00  0.00    +0.000 OA
ENDBRANCH  15  23
ENDBRANCH  13  18
ENDBRANCH   1  13
BRANCH   8  24
ATOM     24  C   UNL     1      -4.287  11.780  17.607  0.00  0.00    +0.000 C 
ATOM     25  N   UNL     1      -5.290  12.292  17.324  0.00  0.00    +0.000 NA
ENDBRANCH   8  24
TORSDOF 4
ENDMDL
MODEL 7
REMARK VINA RESULT:      -6.9      3.423      6.165
REMARK  Name = 
REMARK  5 active torsions:
REMARK  status: ('A' for Active; 'I' for Inactive)
REMARK    1  A    between atoms: C_1  and  O_2
REMARK    2  A    between atoms: O_2  and  C_3
REMARK    3  A    between atoms: C_6  and  C_7
REMARK    4  A    between atoms: C_7  and  C_9
REMARK    5  A    between atoms: C_16  and  C_17
REMARK                            x       y       z     vdW  Elec       q    Type
REMARK                         _______ _______ _______ _____ _____    ______ ____
ROOT
ATOM      1  C   UNL     1       1.021   9.544  21.761  0.00  0.00    +0.000 C 
ATOM      2  C   UNL     1       0.378   9.854  23.126  0.00  0.00    +0.000 C 
ATOM      3  C   UNL     1      -1.044  10.416  23.042  0.00  0.00    +0.000 C 
ATOM      4  C   UNL     1      -1.251  11.482  21.964  0.00  0.00    +0.000 C 
ATOM      5  N   UNL     1      -0.574  11.132  20.718  0.00  0.00    +0.000 N 
ATOM      6  C   UNL     1      -1.249  10.859  19.546  0.00  0.00    +0.000 A 
ATOM      7  C   UNL     1      -2.457  11.471  19.221  0.00  0.00    +0.000 A 
ATOM      8  C   UNL     1      -3.082  11.185  18.003  0.00  0.00    +0.000 A 
ATOM      9  C   UNL     1      -2.495  10.291  17.122  0.00  0.00    +0.000 A 
ATOM     10  C   UNL     1      -1.292   9.734  17.498  0.00  0.00    +0.000 A 
ATOM     11  N   UNL     1      -0.673  10.008  18.666  0.00  0.00    +0.000 NA
ATOM     12  C   UNL     1       0.830  10.733  20.824  0.00  0.00    +0.000 C 
ENDROOT
BRANCH   1  13
ATOM     13  C   UNL     1       0.534   8.218  21.169  0.00  0.00    +0.000 C 
ATOM     14  O   UNL     1      -0.620   7.818  21.345  0.00  0.00    +0.000 OA
BRANCH  13  18
ATOM     15  C   UNL     1       3.289   5.746  18.897  0.00  0.00    +0.000 A 
ATOM     16  C   UNL     1       2.637   5.211  20.015  0.00  0.00    +0.000 A 
ATOM     17  C   UNL     1       1.740   5.984  20.773  0.00  0.00    +0.000 A 
ATOM     18  C   UNL     1       1.479   7.314  20.421  0.00  0.00    +0.000 A 
ATOM     19  C   UNL     1       2.109   7.834  19.282  0.00  0.00    +0.000 A 
ATOM     20  C   UNL     1       2.999   7.060  18.534  0.00  0.00    +0.000 A 
ATOM     21  F   UNL     1       3.558   7.628  17.456  0.00  0.00    +0.000 F 
BRANCH  15  23
ATOM     22  C   UNL     1       5.527   4.973  18.640  0.00  0.00    +0.000 C 
ATOM     23  O   UNL     1       4.153   4.887  18.272  0.00  0.00    +0.000 OA
ENDBRANCH  15  23
ENDBRANCH  13  18
ENDBRANCH   1  13
BRANCH   8  24
ATOM     24  C   UNL     1      -4.317  11.827  17.660  0.00  0.00    +0.000 C 
ATOM     25  N   UNL     1      -5.318  12.351  17.388  0.00  0.00    +0.000 NA
ENDBRANCH   8  24
TORSDOF 4
ENDMDL
MODEL 8
REMARK VINA RESULT:      -6.9      1.899      2.359
REMARK  Name = 
REMARK  5 active torsions:
REMARK  status: ('A' for Active; 'I' for Inactive)
REMARK    1  A    between atoms: C_1  and  O_2
REMARK    2  A    between atoms: O_2  and  C_3
REMARK    3  A    between atoms: C_6  and  C_7
REMARK    4  A    between atoms: C_7  and  C_9
REMARK    5  A    between atoms: C_16  and  C_17
REMARK                            x       y       z     vdW  Elec       q    Type
REMARK                         _______ _______ _______ _____ _____    ______ ____
ROOT
ATOM      1  C   UNL     1       3.316   2.382  18.848  0.00  0.00    +0.000 C 
ATOM      2  C   UNL     1       2.086   1.456  18.906  0.00  0.00    +0.000 C 
ATOM      3  C   UNL     1       0.798   2.145  19.367  0.00  0.00    +0.000 C 
ATOM      4  C   UNL     1       0.964   3.087  20.561  0.00  0.00    +0.000 C 
ATOM      5  N   UNL     1       2.175   3.895  20.449  0.00  0.00    +0.000 N 
ATOM      6  C   UNL     1       2.152   5.267  20.301  0.00  0.00    +0.000 A 
ATOM      7  C   UNL     1       1.156   6.061  20.863  0.00  0.00    +0.000 A 
ATOM      8  C   UNL     1       1.199   7.451  20.714  0.00  0.00    +0.000 A 
ATOM      9  C   UNL     1       2.238   8.033  20.004  0.00  0.00    +0.000 A 
ATOM     10  C   UNL     1       3.200   7.192  19.490  0.00  0.00    +0.000 A 
ATOM     11  N   UNL     1       3.175   5.849  19.635  0.00  0.00    +0.000 NA
ATOM     12  C   UNL     1       3.415   3.181  20.144  0.00  0.00    +0.000 C 
ENDROOT
BRANCH   1  13
ATOM     13  C   UNL     1       3.335   3.257  17.591  0.00  0.00    +0.000 C 
ATOM     14  O   UNL     1       2.459   3.164  16.728  0.00  0.00    +0.000 OA
BRANCH  13  18
ATOM     15  C   UNL     1       6.528   6.066  16.713  0.00  0.00    +0.000 A 
ATOM     16  C   UNL     1       6.751   5.026  17.623  0.00  0.00    +0.000 A 
ATOM     17  C   UNL     1       5.739   4.099  17.930  0.00  0.00    +0.000 A 
ATOM     18  C   UNL     1       4.479   4.202  17.328  0.00  0.00    +0.000 A 
ATOM     19  C   UNL     1       4.272   5.226  16.392  0.00  0.00    +0.000 A 
ATOM     20  C   UNL     1       5.282   6.141  16.093  0.00  0.00    +0.000 A 
ATOM     21  F   UNL     1       5.008   7.090  15.185  0.00  0.00    +0.000 F 
BRANCH  15  23
ATOM     22  C   UNL     1       7.776   7.937  17.498  0.00  0.00    +0.000 C 
ATOM     23  O   UNL     1       7.594   6.907  16.531  0.00  0.00    +0.000 OA
ENDBRANCH  15  23
ENDBRANCH  13  18
ENDBRANCH   1  13
BRANCH   8  24
ATOM     24  C   UNL     1       0.183   8.271  21.305  0.00  0.00    +0.000 C 
ATOM     25  N   UNL     1      -0.637   8.939  21.785  0.00  0.00    +0.000 NA
ENDBRANCH   8  24
TORSDOF 4
ENDMDL
MODEL 9
REMARK VINA RESULT:      -6.8      3.533      6.651
REMARK  Name = 
REMARK  5 active torsions:
REMARK  status: ('A' for Active; 'I' for Inactive)
REMARK    1  A    between atoms: C_1  and  O_2
REMARK    2  A    between atoms: O_2  and  C_3
REMARK    3  A    between atoms: C_6  and  C_7
REMARK    4  A    between atoms: C_7  and  C_9
REMARK    5  A    between atoms: C_16  and  C_17
REMARK                            x       y       z     vdW  Elec       q    Type
REMARK                         _______ _______ _______ _____ _____    ______ ____
ROOT
ATOM      1  C   UNL     1       1.139   4.399  19.773  0.00  0.00    +0.000 C 
ATOM      2  C   UNL     1       1.429   2.990  20.323  0.00  0.00    +0.000 C 
ATOM      3  C   UNL     1       2.744   2.377  19.832  0.00  0.00    +0.000 C 
ATOM      4  C   UNL     1       3.023   2.567  18.340  0.00  0.00    +0.000 C 
ATOM      5  N   UNL     1       2.680   3.913  17.890  0.00  0.00    +0.000 N 
ATOM      6  C   UNL     1       3.620   4.816  17.435  0.00  0.00    +0.000 A 
ATOM      7  C   UNL     1       4.771   4.418  16.760  0.00  0.00    +0.000 A 
ATOM      8  C   UNL     1       5.673   5.377  16.288  0.00  0.00    +0.000 A 
ATOM      9  C   UNL     1       5.416   6.723  16.495  0.00  0.00    +0.000 A 
ATOM     10  C   UNL     1       4.252   7.049  17.154  0.00  0.00    +0.000 A 
ATOM     11  N   UNL     1       3.367   6.134  17.607  0.00  0.00    +0.000 NA
ATOM     12  C   UNL     1       1.356   4.412  18.263  0.00  0.00    +0.000 C 
ENDROOT
BRANCH   1  13
ATOM     13  C   UNL     1       1.922   5.491  20.509  0.00  0.00    +0.000 C 
ATOM     14  O   UNL     1       2.921   5.226  21.182  0.00  0.00    +0.000 OA
BRANCH  13  18
ATOM     15  C   UNL     1       0.435   9.569  20.639  0.00  0.00    +0.000 A 
ATOM     16  C   UNL     1       1.327   9.188  19.630  0.00  0.00    +0.000 A 
ATOM     17  C   UNL     1       1.828   7.876  19.559  0.00  0.00    +0.000 A 
ATOM     18  C   UNL     1       1.442   6.919  20.505  0.00  0.00    +0.000 A 
ATOM     19  C   UNL     1       0.523   7.297  21.494  0.00  0.00    +0.000 A 
ATOM     20  C   UNL     1       0.030   8.602  21.557  0.00  0.00    +0.000 A 
ATOM     21  F   UNL     1      -0.849   8.886  22.531  0.00  0.00    +0.000 F 
BRANCH  15  23
ATOM     22  C   UNL     1       1.082  11.861  20.715  0.00  0.00    +0.000 C 
ATOM     23  O   UNL     1       0.051  10.884  20.599  0.00  0.00    +0.000 OA
ENDBRANCH  15  23
ENDBRANCH  13  18
ENDBRANCH   1  13
BRANCH   8  24
ATOM     24  C   UNL     1       6.850   4.969  15.579  0.00  0.00    +0.000 C 
ATOM     25  N   UNL     1       7.803   4.642  15.000  0.00  0.00    +0.000 NA
ENDBRANCH   8  24
TORSDOF 4
ENDMDL
