MODEL 1
REMARK VINA RESULT:      -9.2      0.000      0.000
REMARK  Name = 
REMARK  9 active torsions:
REMARK  status: ('A' for Active; 'I' for Inactive)
REMARK    1  A    between atoms: C_2  and  C_3
REMARK    2  A    between atoms: C_3  and  S_4
REMARK    3  A    between atoms: S_4  and  C_5
REMARK    4  A    between atoms: N_9  and  C_10
REMARK    5  A    between atoms: C_15  and  C_16
REMARK    6  A    between atoms: C_16  and  O_18
REMARK    7  A    between atoms: N_20  and  C_21
REMARK    8  A    between atoms: C_21  and  C_22
REMARK    9  A    between atoms: C_21  and  C_28
REMARK                            x       y       z     vdW  Elec       q    Type
REMARK                         _______ _______ _______ _____ _____    ______ ____
ROOT
ATOM      1  C   UNL     1       1.480   9.539  19.592  0.00  0.00    +0.000 C 
ENDROOT
BRANCH   1   3
ATOM      2  O   UNL     1       1.938   8.773  17.328  0.00  0.00    +0.000 OA
ATOM      3  C   UNL     1       1.941   8.537  18.533  0.00  0.00    +0.000 C 
ATOM      4  N   UNL     1       2.324   7.322  19.054  0.00  0.00    +0.000 N 
ATOM      5  H   UNL     1       2.377   7.204  20.054  0.00  0.00    +0.000 HD
BRANCH   4   6
ATOM      6  C   UNL     1       2.773   6.199  18.234  0.00  0.00    +0.000 C 
BRANCH   6   7
ATOM      7  C   UNL     1       4.299   6.176  18.218  0.00  0.00    +0.000 A 
ATOM      8  C   UNL     1       5.030   6.835  17.214  0.00  0.00    +0.000 A 
ATOM      9  C   UNL     1       6.423   6.760  17.176  0.00  0.00    +0.000 A 
ATOM     10  C   UNL     1       7.109   6.037  18.148  0.00  0.00    +0.000 A 
ATOM     11  C   UNL     1       6.403   5.392  19.161  0.00  0.00    +0.000 A 
ATOM     12  C   UNL     1       5.007   5.457  19.196  0.00  0.00    +0.000 A 
ENDBRANCH   6   7
BRANCH   6  13
ATOM     13  C   UNL     1       2.163   4.873  18.692  0.00  0.00    +0.000 A 
ATOM     14  C   UNL     1       1.626   4.769  19.987  0.00  0.00    +0.000 A 
ATOM     15  C   UNL     1       1.051   3.574  20.434  0.00  0.00    +0.000 A 
ATOM     16  C   UNL     1       0.995   2.468  19.587  0.00  0.00    +0.000 A 
ATOM     17  C   UNL     1       1.509   2.556  18.298  0.00  0.00    +0.000 A 
ATOM     18  C   UNL     1       2.087   3.746  17.853  0.00  0.00    +0.000 A 
ENDBRANCH   6  13
ENDBRANCH   4   6
ENDBRANCH   1   3
BRANCH   1  19
ATOM     19  S   UNL     1       1.160  11.151  18.832  0.00  0.00    +0.000 S 
BRANCH  19  20
ATOM     20  C   UNL     1       0.651  12.110  20.186  0.00  0.00    +0.000 A 
ATOM     21  N   UNL     1       1.440  12.602  21.114  0.00  0.00    +0.000 NA
ATOM     22  N   UNL     1       0.676  13.496  21.819  0.00  0.00    +0.000 NA
ATOM     23  N   UNL     1      -0.550  13.579  21.321  0.00  0.00    +0.000 NA
ATOM     24  N   UNL     1      -0.620  12.649  20.337  0.00  0.00    +0.000 N 
BRANCH  24  25
ATOM     25  C   UNL     1      -1.838  12.387  19.656  0.00  0.00    +0.000 A 
ATOM     26  C   UNL     1      -3.069  12.621  20.269  0.00  0.00    +0.000 A 
ATOM     27  C   UNL     1      -4.252  12.292  19.608  0.00  0.00    +0.000 A 
ATOM     28  C   UNL     1      -4.227  11.720  18.330  0.00  0.00    +0.000 A 
ATOM     29 CL   UNL     1      -5.770  11.326  17.661  0.00  0.00    +0.000 Cl
ATOM     30  C   UNL     1      -3.002  11.504  17.680  0.00  0.00    +0.000 A 
ATOM     31  C   UNL     1      -1.810  11.877  18.347  0.00  0.00    +0.000 A 
BRANCH  30  32
ATOM     32  C   UNL     1      -2.819  10.875  16.335  0.00  0.00    +0.000 C 
ATOM     33  O   UNL     1      -2.371   9.744  16.220  0.00  0.00    +0.000 OA
BRANCH  32  34
ATOM     34  O   UNL     1      -3.197  11.582  15.255  0.00  0.00    +0.000 OA
ATOM     35  H   UNL     1      -4.142  11.529  15.013  0.00  0.00    +0.000 HD
ENDBRANCH  32  34
ENDBRANCH  30  32
ENDBRANCH  24  25
ENDBRANCH  19  20
ENDBRANCH   1  19
TORSDOF 9
ENDMDL
MODEL 2
REMARK VINA RESULT:      -9.1      1.445      1.922
REMARK  Name = 
REMARK  9 active torsions:
REMARK  status: ('A' for Active; 'I' for Inactive)
REMARK    1  A    between atoms: C_2  and  C_3
REMARK    2  A    between atoms: C_3  and  S_4
REMARK    3  A    between atoms: S_4  and  C_5
REMARK    4  A    between atoms: N_9  and  C_10
REMARK    5  A    between atoms: C_15  and  C_16
REMARK    6  A    between atoms: C_16  and  O_18
REMARK    7  A    between atoms: N_20  and  C_21
REMARK    8  A    between atoms: C_21  and  C_22
REMARK    9  A    between atoms: C_21  and  C_28
REMARK                            x       y       z     vdW  Elec       q    Type
REMARK                         _______ _______ _______ _____ _____    ______ ____
ROOT
ATOM      1  C   UNL     1       1.456   9.128  19.726  0.00  0.00    +0.000 C 
ENDROOT
BRANCH   1   3
ATOM      2  O   UNL     1       2.112   8.685  17.425  0.00  0.00    +0.000 OA
ATOM      3  C   UNL     1       2.045   8.295  18.588  0.00  0.00    +0.000 C 
ATOM      4  N   UNL     1       2.460   7.042  18.979  0.00  0.00    +0.000 N 
ATOM      5  H   UNL     1       2.451   6.799  19.958  0.00  0.00    +0.000 HD
BRANCH   4   6
ATOM      6  C   UNL     1       3.029   6.058  18.062  0.00  0.00    +0.000 C 
BRANCH   6   7
ATOM      7  C   UNL     1       4.551   6.116  18.152  0.00  0.00    +0.000 A 
ATOM      8  C   UNL     1       5.314   6.810  17.196  0.00  0.00    +0.000 A 
ATOM      9  C   UNL     1       6.709   6.809  17.256  0.00  0.00    +0.000 A 
ATOM     10  C   UNL     1       7.362   6.128  18.279  0.00  0.00    +0.000 A 
ATOM     11  C   UNL     1       6.622   5.449  19.244  0.00  0.00    +0.000 A 
ATOM     12  C   UNL     1       5.226   5.439  19.181  0.00  0.00    +0.000 A 
ENDBRANCH   6   7
BRANCH   6  13
ATOM     13  C   UNL     1       2.472   4.654  18.307  0.00  0.00    +0.000 A 
ATOM     14  C   UNL     1       1.576   4.442  19.370  0.00  0.00    +0.000 A 
ATOM     15  C   UNL     1       1.040   3.173  19.616  0.00  0.00    +0.000 A 
ATOM     16  C   UNL     1       1.382   2.100  18.795  0.00  0.00    +0.000 A 
ATOM     17  C   UNL     1       2.256   2.294  17.730  0.00  0.00    +0.000 A 
ATOM     18  C   UNL     1       2.795   3.558  17.487  0.00  0.00    +0.000 A 
ENDBRANCH   6  13
ENDBRANCH   4   6
ENDBRANCH   1   3
BRANCH   1  19
ATOM     19  S   UNL     1       1.260  10.851  19.205  0.00  0.00    +0.000 S 
BRANCH  19  20
ATOM     20  C   UNL     1       0.006  11.422  20.261  0.00  0.00    +0.000 A 
ATOM     21  N   UNL     1       0.185  11.919  21.463  0.00  0.00    +0.000 NA
ATOM     22  N   UNL     1      -1.014  12.478  21.820  0.00  0.00    +0.000 NA
ATOM     23  N   UNL     1      -1.909  12.358  20.849  0.00  0.00    +0.000 NA
ATOM     24  N   UNL     1      -1.316  11.617  19.880  0.00  0.00    +0.000 N 
BRANCH  24  25
ATOM     25  C   UNL     1      -2.033  11.200  18.728  0.00  0.00    +0.000 A 
ATOM     26  C   UNL     1      -1.416  10.438  17.735  0.00  0.00    +0.000 A 
ATOM     27  C   UNL     1      -2.119  10.098  16.580  0.00  0.00    +0.000 A 
ATOM     28  C   UNL     1      -3.442  10.514  16.393  0.00  0.00    +0.000 A 
ATOM     29 CL   UNL     1      -4.163  10.053  14.892  0.00  0.00    +0.000 Cl
ATOM     30  C   UNL     1      -4.094  11.254  17.392  0.00  0.00    +0.000 A 
ATOM     31  C   UNL     1      -3.382  11.562  18.576  0.00  0.00    +0.000 A 
BRANCH  30  32
ATOM     32  C   UNL     1      -5.488  11.792  17.319  0.00  0.00    +0.000 C 
ATOM     33  O   UNL     1      -5.717  12.897  16.849  0.00  0.00    +0.000 OA
BRANCH  32  34
ATOM     34  O   UNL     1      -6.488  11.006  17.756  0.00  0.00    +0.000 OA
ATOM     35  H   UNL     1      -6.566  10.905  18.724  0.00  0.00    +0.000 HD
ENDBRANCH  32  34
ENDBRANCH  30  32
ENDBRANCH  24  25
ENDBRANCH  19  20
ENDBRANCH   1  19
TORSDOF 9
ENDMDL
MODEL 3
REMARK VINA RESULT:      -9.1      1.948      2.445
REMARK  Name = 
REMARK  9 active torsions:
REMARK  status: ('A' for Active; 'I' for Inactive)
REMARK    1  A    between atoms: C_2  and  C_3
REMARK    2  A    between atoms: C_3  and  S_4
REMARK    3  A    between atoms: S_4  and  C_5
REMARK    4  A    between atoms: N_9  and  C_10
REMARK    5  A    between atoms: C_15  and  C_16
REMARK    6  A    between atoms: C_16  and  O_18
REMARK    7  A    between atoms: N_20  and  C_21
REMARK    8  A    between atoms: C_21  and  C_22
REMARK    9  A    between atoms: C_21  and  C_28
REMARK                            x       y       z     vdW  Elec       q    Type
REMARK                         _______ _______ _______ _____ _____    ______ ____
ROOT
ATOM      1  C   UNL     1       1.465   9.372  20.031  0.00  0.00    +0.000 C 
ENDROOT
BRANCH   1   3
ATOM      2  O   UNL     1       1.617   8.713  17.694  0.00  0.00    +0.000 OA
ATOM      3  C   UNL     1       1.818   8.437  18.874  0.00  0.00    +0.000 C 
ATOM      4  N   UNL     1       2.348   7.233  19.279  0.00  0.00    +0.000 N 
ATOM      5  H   UNL     1       2.561   7.087  20.254  0.00  0.00    +0.000 HD
BRANCH   4   6
ATOM      6  C   UNL     1       2.734   6.170  18.354  0.00  0.00    +0.000 C 
BRANCH   6   7
ATOM      7  C   UNL     1       4.255   6.142  18.237  0.00  0.00    +0.000 A 
ATOM      8  C   UNL     1       4.919   6.776  17.171  0.00  0.00    +0.000 A 
ATOM      9  C   UNL     1       6.306   6.696  17.042  0.00  0.00    +0.000 A 
ATOM     10  C   UNL     1       7.054   5.994  17.983  0.00  0.00    +0.000 A 
ATOM     11  C   UNL     1       6.416   5.374  19.055  0.00  0.00    +0.000 A 
ATOM     12  C   UNL     1       5.026   5.444  19.182  0.00  0.00    +0.000 A 
ENDBRANCH   6   7
BRANCH   6  13
ATOM     13  C   UNL     1       2.144   4.817  18.755  0.00  0.00    +0.000 A 
ATOM     14  C   UNL     1       1.607   4.652  20.044  0.00  0.00    +0.000 A 
ATOM     15  C   UNL     1       1.050   3.431  20.440  0.00  0.00    +0.000 A 
ATOM     16  C   UNL     1       1.011   2.360  19.548  0.00  0.00    +0.000 A 
ATOM     17  C   UNL     1       1.525   2.510  18.264  0.00  0.00    +0.000 A 
ATOM     18  C   UNL     1       2.085   3.725  17.870  0.00  0.00    +0.000 A 
ENDBRANCH   6  13
ENDBRANCH   4   6
ENDBRANCH   1   3
BRANCH   1  19
ATOM     19  S   UNL     1      -0.260   9.907  19.902  0.00  0.00    +0.000 S 
BRANCH  19  20
ATOM     20  C   UNL     1      -0.107  11.524  19.292  0.00  0.00    +0.000 A 
ATOM     21  N   UNL     1       1.017  12.193  19.172  0.00  0.00    +0.000 NA
ATOM     22  N   UNL     1       0.717  13.296  18.416  0.00  0.00    +0.000 NA
ATOM     23  N   UNL     1      -0.557  13.296  18.049  0.00  0.00    +0.000 NA
ATOM     24  N   UNL     1      -1.125  12.228  18.661  0.00  0.00    +0.000 N 
BRANCH  24  25
ATOM     25  C   UNL     1      -2.521  11.985  18.575  0.00  0.00    +0.000 A 
ATOM     26  C   UNL     1      -3.079  11.404  17.436  0.00  0.00    +0.000 A 
ATOM     27  C   UNL     1      -4.461  11.237  17.343  0.00  0.00    +0.000 A 
ATOM     28  C   UNL     1      -5.306  11.652  18.379  0.00  0.00    +0.000 A 
ATOM     29 CL   UNL     1      -6.996  11.421  18.098  0.00  0.00    +0.000 Cl
ATOM     30  C   UNL     1      -4.766  12.211  19.548  0.00  0.00    +0.000 A 
ATOM     31  C   UNL     1      -3.359  12.340  19.644  0.00  0.00    +0.000 A 
BRANCH  30  32
ATOM     32  C   UNL     1      -5.543  12.726  20.717  0.00  0.00    +0.000 C 
ATOM     33  O   UNL     1      -5.630  13.924  20.942  0.00  0.00    +0.000 OA
BRANCH  32  34
ATOM     34  O   UNL     1      -6.175  11.829  21.496  0.00  0.00    +0.000 OA
ATOM     35  H   UNL     1      -7.004  12.129  21.914  0.00  0.00    +0.000 HD
ENDBRANCH  32  34
ENDBRANCH  30  32
ENDBRANCH  24  25
ENDBRANCH  19  20
ENDBRANCH   1  19
TORSDOF 9
ENDMDL
MODEL 4
REMARK VINA RESULT:      -9.0      1.493      2.116
REMARK  Name = 
REMARK  9 active torsions:
REMARK  status: ('A' for Active; 'I' for Inactive)
REMARK    1  A    between atoms: C_2  and  C_3
REMARK    2  A    between atoms: C_3  and  S_4
REMARK    3  A    between atoms: S_4  and  C_5
REMARK    4  A    between atoms: N_9  and  C_10
REMARK    5  A    between atoms: C_15  and  C_16
REMARK    6  A    between atoms: C_16  and  O_18
REMARK    7  A    between atoms: N_20  and  C_21
REMARK    8  A    between atoms: C_21  and  C_22
REMARK    9  A    between atoms: C_21  and  C_28
REMARK                            x       y       z     vdW  Elec       q    Type
REMARK                         _______ _______ _______ _____ _____    ______ ____
ROOT
ATOM      1  C   UNL     1       1.674   9.780  19.592  0.00  0.00    +0.000 C 
ENDROOT
BRANCH   1   3
ATOM      2  O   UNL     1       1.897   8.901  17.334  0.00  0.00    +0.000 OA
ATOM      3  C   UNL     1       1.990   8.712  18.545  0.00  0.00    +0.000 C 
ATOM      4  N   UNL     1       2.350   7.499  19.085  0.00  0.00    +0.000 N 
ATOM      5  H   UNL     1       2.482   7.418  20.081  0.00  0.00    +0.000 HD
BRANCH   4   6
ATOM      6  C   UNL     1       2.668   6.321  18.281  0.00  0.00    +0.000 C 
BRANCH   6   7
ATOM      7  C   UNL     1       4.183   6.219  18.127  0.00  0.00    +0.000 A 
ATOM      8  C   UNL     1       4.836   6.700  16.978  0.00  0.00    +0.000 A 
ATOM      9  C   UNL     1       6.215   6.550  16.823  0.00  0.00    +0.000 A 
ATOM     10  C   UNL     1       6.966   5.931  17.818  0.00  0.00    +0.000 A 
ATOM     11  C   UNL     1       6.339   5.464  18.971  0.00  0.00    +0.000 A 
ATOM     12  C   UNL     1       4.957   5.603  19.125  0.00  0.00    +0.000 A 
ENDBRANCH   6   7
BRANCH   6  13
ATOM     13  C   UNL     1       2.042   5.048  18.853  0.00  0.00    +0.000 A 
ATOM     14  C   UNL     1       1.818   3.947  18.007  0.00  0.00    +0.000 A 
ATOM     15  C   UNL     1       1.257   2.764  18.499  0.00  0.00    +0.000 A 
ATOM     16  C   UNL     1       0.920   2.660  19.849  0.00  0.00    +0.000 A 
ATOM     17  C   UNL     1       1.147   3.735  20.703  0.00  0.00    +0.000 A 
ATOM     18  C   UNL     1       1.702   4.916  20.212  0.00  0.00    +0.000 A 
ENDBRANCH   6  13
ENDBRANCH   4   6
ENDBRANCH   1   3
BRANCH   1  19
ATOM     19  S   UNL     1       0.189   9.327  20.523  0.00  0.00    +0.000 S 
BRANCH  19  20
ATOM     20  C   UNL     1      -0.504  10.872  20.900  0.00  0.00    +0.000 A 
ATOM     21  N   UNL     1      -0.183  11.625  21.927  0.00  0.00    +0.000 NA
ATOM     22  N   UNL     1      -0.763  12.844  21.694  0.00  0.00    +0.000 NA
ATOM     23  N   UNL     1      -1.406  12.857  20.534  0.00  0.00    +0.000 NA
ATOM     24  N   UNL     1      -1.330  11.594  20.048  0.00  0.00    +0.000 N 
BRANCH  24  25
ATOM     25  C   UNL     1      -2.011  11.220  18.860  0.00  0.00    +0.000 A 
ATOM     26  C   UNL     1      -1.350  10.538  17.837  0.00  0.00    +0.000 A 
ATOM     27  C   UNL     1      -2.019  10.241  16.651  0.00  0.00    +0.000 A 
ATOM     28  C   UNL     1      -3.353  10.623  16.461  0.00  0.00    +0.000 A 
ATOM     29 CL   UNL     1      -4.029  10.226  14.922  0.00  0.00    +0.000 Cl
ATOM     30  C   UNL     1      -4.048  11.282  17.487  0.00  0.00    +0.000 A 
ATOM     31  C   UNL     1      -3.369  11.545  18.701  0.00  0.00    +0.000 A 
BRANCH  30  32
ATOM     32  C   UNL     1      -5.458  11.777  17.416  0.00  0.00    +0.000 C 
ATOM     33  O   UNL     1      -5.738  12.812  16.831  0.00  0.00    +0.000 OA
BRANCH  32  34
ATOM     34  O   UNL     1      -6.416  11.026  17.990  0.00  0.00    +0.000 OA
ATOM     35  H   UNL     1      -7.335  11.332  17.868  0.00  0.00    +0.000 HD
ENDBRANCH  32  34
ENDBRANCH  30  32
ENDBRANCH  24  25
ENDBRANCH  19  20
ENDBRANCH   1  19
TORSDOF 9
ENDMDL
MODEL 5
REMARK VINA RESULT:      -9.0      0.668      1.069
REMARK  Name = 
REMARK  9 active torsions:
REMARK  status: ('A' for Active; 'I' for Inactive)
REMARK    1  A    between atoms: C_2  and  C_3
REMARK    2  A    between atoms: C_3  and  S_4
REMARK    3  A    between atoms: S_4  and  C_5
REMARK    4  A    between atoms: N_9  and  C_10
REMARK    5  A    between atoms: C_15  and  C_16
REMARK    6  A    between atoms: C_16  and  O_18
REMARK    7  A    between atoms: N_20  and  C_21
REMARK    8  A    between atoms: C_21  and  C_22
REMARK    9  A    between atoms: C_21  and  C_28
REMARK                            x       y       z     vdW  Elec       q    Type
REMARK                         _______ _______ _______ _____ _____    ______ ____
ROOT
ATOM      1  C   UNL     1       1.630   9.637  19.804  0.00  0.00    +0.000 C 
ENDROOT
BRANCH   1   3
ATOM      2  O   UNL     1       1.446   8.747  17.547  0.00  0.00    +0.000 OA
ATOM      3  C   UNL     1       1.814   8.587  18.708  0.00  0.00    +0.000 C 
ATOM      4  N   UNL     1       2.397   7.422  19.153  0.00  0.00    +0.000 N 
ATOM      5  H   UNL     1       2.746   7.370  20.097  0.00  0.00    +0.000 HD
BRANCH   4   6
ATOM      6  C   UNL     1       2.646   6.267  18.294  0.00  0.00    +0.000 C 
BRANCH   6   7
ATOM      7  C   UNL     1       4.149   6.137  18.060  0.00  0.00    +0.000 A 
ATOM      8  C   UNL     1       4.746   6.587  16.869  0.00  0.00    +0.000 A 
ATOM      9  C   UNL     1       6.112   6.412  16.642  0.00  0.00    +0.000 A 
ATOM     10  C   UNL     1       6.906   5.798  17.607  0.00  0.00    +0.000 A 
ATOM     11  C   UNL     1       6.335   5.362  18.801  0.00  0.00    +0.000 A 
ATOM     12  C   UNL     1       4.966   5.527  19.027  0.00  0.00    +0.000 A 
ENDBRANCH   6   7
BRANCH   6  13
ATOM     13  C   UNL     1       2.019   4.989  18.853  0.00  0.00    +0.000 A 
ATOM     14  C   UNL     1       1.795   3.896  17.996  0.00  0.00    +0.000 A 
ATOM     15  C   UNL     1       1.233   2.709  18.476  0.00  0.00    +0.000 A 
ATOM     16  C   UNL     1       0.896   2.592  19.824  0.00  0.00    +0.000 A 
ATOM     17  C   UNL     1       1.123   3.657  20.690  0.00  0.00    +0.000 A 
ATOM     18  C   UNL     1       1.679   4.843  20.210  0.00  0.00    +0.000 A 
ENDBRANCH   6  13
ENDBRANCH   4   6
ENDBRANCH   1   3
BRANCH   1  19
ATOM     19  S   UNL     1      -0.108   9.723  20.305  0.00  0.00    +0.000 S 
BRANCH  19  20
ATOM     20  C   UNL     1      -0.225  11.315  20.985  0.00  0.00    +0.000 A 
ATOM     21  N   UNL     1       0.647  11.866  21.798  0.00  0.00    +0.000 NA
ATOM     22  N   UNL     1       0.307  13.192  21.869  0.00  0.00    +0.000 NA
ATOM     23  N   UNL     1      -0.734  13.464  21.094  0.00  0.00    +0.000 NA
ATOM     24  N   UNL     1      -1.146  12.276  20.586  0.00  0.00    +0.000 N 
BRANCH  24  25
ATOM     25  C   UNL     1      -2.318  12.181  19.791  0.00  0.00    +0.000 A 
ATOM     26  C   UNL     1      -3.562  12.561  20.297  0.00  0.00    +0.000 A 
ATOM     27  C   UNL     1      -4.710  12.395  19.523  0.00  0.00    +0.000 A 
ATOM     28  C   UNL     1      -4.639  11.841  18.239  0.00  0.00    +0.000 A 
ATOM     29 CL   UNL     1      -6.151  11.656  17.424  0.00  0.00    +0.000 Cl
ATOM     30  C   UNL     1      -3.396  11.479  17.697  0.00  0.00    +0.000 A 
ATOM     31  C   UNL     1      -2.234  11.688  18.478  0.00  0.00    +0.000 A 
BRANCH  30  32
ATOM     32  C   UNL     1      -3.170  10.851  16.359  0.00  0.00    +0.000 C 
ATOM     33  O   UNL     1      -2.835   9.680  16.257  0.00  0.00    +0.000 OA
BRANCH  32  34
ATOM     34  O   UNL     1      -3.380  11.607  15.266  0.00  0.00    +0.000 OA
ATOM     35  H   UNL     1      -4.025  12.333  15.362  0.00  0.00    +0.000 HD
ENDBRANCH  32  34
ENDBRANCH  30  32
ENDBRANCH  24  25
ENDBRANCH  19  20
ENDBRANCH   1  19
TORSDOF 9
ENDMDL
MODEL 6
REMARK VINA RESULT:      -8.9      2.101      4.124
REMARK  Name = 
REMARK  9 active torsions:
REMARK  status: ('A' for Active; 'I' for Inactive)
REMARK    1  A    between atoms: C_2  and  C_3
REMARK    2  A    between atoms: C_3  and  S_4
REMARK    3  A    between atoms: S_4  and  C_5
REMARK    4  A    between atoms: N_9  and  C_10
REMARK    5  A    between atoms: C_15  and  C_16
REMARK    6  A    between atoms: C_16  and  O_18
REMARK    7  A    between atoms: N_20  and  C_21
REMARK    8  A    between atoms: C_21  and  C_22
REMARK    9  A    between atoms: C_21  and  C_28
REMARK                            x       y       z     vdW  Elec       q    Type
REMARK                         _______ _______ _______ _____ _____    ______ ____
ROOT
ATOM      1  C   UNL     1       1.233   9.239  18.769  0.00  0.00    +0.000 C 
ENDROOT
BRANCH   1   3
ATOM      2  O   UNL     1       1.849   7.947  20.738  0.00  0.00    +0.000 OA
ATOM      3  C   UNL     1       1.910   8.091  19.519  0.00  0.00    +0.000 C 
ATOM      4  N   UNL     1       2.635   7.251  18.704  0.00  0.00    +0.000 N 
ATOM      5  H   UNL     1       2.593   7.371  17.704  0.00  0.00    +0.000 HD
BRANCH   4   6
ATOM      6  C   UNL     1       3.392   6.104  19.199  0.00  0.00    +0.000 C 
BRANCH   6   7
ATOM      7  C   UNL     1       2.446   4.917  19.361  0.00  0.00    +0.000 A 
ATOM      8  C   UNL     1       2.044   4.471  20.633  0.00  0.00    +0.000 A 
ATOM      9  C   UNL     1       1.223   3.350  20.771  0.00  0.00    +0.000 A 
ATOM     10  C   UNL     1       0.780   2.666  19.643  0.00  0.00    +0.000 A 
ATOM     11  C   UNL     1       1.154   3.105  18.374  0.00  0.00    +0.000 A 
ATOM     12  C   UNL     1       1.983   4.221  18.232  0.00  0.00    +0.000 A 
ENDBRANCH   6   7
BRANCH   6  13
ATOM     13  C   UNL     1       4.598   5.785  18.313  0.00  0.00    +0.000 A 
ATOM     14  C   UNL     1       4.664   6.324  17.016  0.00  0.00    +0.000 A 
ATOM     15  C   UNL     1       5.757   6.062  16.183  0.00  0.00    +0.000 A 
ATOM     16  C   UNL     1       6.807   5.265  16.640  0.00  0.00    +0.000 A 
ATOM     17  C   UNL     1       6.765   4.735  17.925  0.00  0.00    +0.000 A 
ATOM     18  C   UNL     1       5.673   4.993  18.754  0.00  0.00    +0.000 A 
ENDBRANCH   6  13
ENDBRANCH   4   6
ENDBRANCH   1   3
BRANCH   1  19
ATOM     19  S   UNL     1      -0.012  10.027  19.820  0.00  0.00    +0.000 S 
BRANCH  19  20
ATOM     20  C   UNL     1       0.047  11.680  19.297  0.00  0.00    +0.000 A 
ATOM     21  N   UNL     1       1.132  12.414  19.202  0.00  0.00    +0.000 NA
ATOM     22  N   UNL     1       0.764  13.538  18.510  0.00  0.00    +0.000 NA
ATOM     23  N   UNL     1      -0.514  13.490  18.158  0.00  0.00    +0.000 NA
ATOM     24  N   UNL     1      -1.016  12.362  18.717  0.00  0.00    +0.000 N 
BRANCH  24  25
ATOM     25  C   UNL     1      -2.398  12.049  18.634  0.00  0.00    +0.000 A 
ATOM     26  C   UNL     1      -2.915  11.372  17.529  0.00  0.00    +0.000 A 
ATOM     27  C   UNL     1      -4.286  11.136  17.435  0.00  0.00    +0.000 A 
ATOM     28  C   UNL     1      -5.163  11.577  18.434  0.00  0.00    +0.000 A 
ATOM     29 CL   UNL     1      -6.837  11.250  18.152  0.00  0.00    +0.000 Cl
ATOM     30  C   UNL     1      -4.663  12.233  19.569  0.00  0.00    +0.000 A 
ATOM     31  C   UNL     1      -3.265  12.433  19.670  0.00  0.00    +0.000 A 
BRANCH  30  32
ATOM     32  C   UNL     1      -5.477  12.786  20.695  0.00  0.00    +0.000 C 
ATOM     33  O   UNL     1      -6.259  13.709  20.519  0.00  0.00    +0.000 OA
BRANCH  32  34
ATOM     34  O   UNL     1      -5.348  12.211  21.905  0.00  0.00    +0.000 OA
ATOM     35  H   UNL     1      -6.120  12.276  22.498  0.00  0.00    +0.000 HD
ENDBRANCH  32  34
ENDBRANCH  30  32
ENDBRANCH  24  25
ENDBRANCH  19  20
ENDBRANCH   1  19
TORSDOF 9
ENDMDL
MODEL 7
REMARK VINA RESULT:      -8.9      2.720      3.349
REMARK  Name = 
REMARK  9 active torsions:
REMARK  status: ('A' for Active; 'I' for Inactive)
REMARK    1  A    between atoms: C_2  and  C_3
REMARK    2  A    between atoms: C_3  and  S_4
REMARK    3  A    between atoms: S_4  and  C_5
REMARK    4  A    between atoms: N_9  and  C_10
REMARK    5  A    between atoms: C_15  and  C_16
REMARK    6  A    between atoms: C_16  and  O_18
REMARK    7  A    between atoms: N_20  and  C_21
REMARK    8  A    between atoms: C_21  and  C_22
REMARK    9  A    between atoms: C_21  and  C_28
REMARK                            x       y       z     vdW  Elec       q    Type
REMARK                         _______ _______ _______ _____ _____    ______ ____
ROOT
ATOM      1  C   UNL     1       1.395   9.036  20.365  0.00  0.00    +0.000 C 
ENDROOT
BRANCH   1   3
ATOM      2  O   UNL     1       1.714   8.703  17.975  0.00  0.00    +0.000 OA
ATOM      3  C   UNL     1       1.828   8.265  19.117  0.00  0.00    +0.000 C 
ATOM      4  N   UNL     1       2.322   7.009  19.388  0.00  0.00    +0.000 N 
ATOM      5  H   UNL     1       2.462   6.726  20.346  0.00  0.00    +0.000 HD
BRANCH   4   6
ATOM      6  C   UNL     1       2.769   6.078  18.354  0.00  0.00    +0.000 C 
BRANCH   6   7
ATOM      7  C   UNL     1       4.291   6.127  18.267  0.00  0.00    +0.000 A 
ATOM      8  C   UNL     1       4.943   6.805  17.221  0.00  0.00    +0.000 A 
ATOM      9  C   UNL     1       6.335   6.795  17.119  0.00  0.00    +0.000 A 
ATOM     10  C   UNL     1       7.099   6.122  18.068  0.00  0.00    +0.000 A 
ATOM     11  C   UNL     1       6.472   5.460  19.121  0.00  0.00    +0.000 A 
ATOM     12  C   UNL     1       5.077   5.459  19.221  0.00  0.00    +0.000 A 
ENDBRANCH   6   7
BRANCH   6  13
ATOM     13  C   UNL     1       2.232   4.664  18.583  0.00  0.00    +0.000 A 
ATOM     14  C   UNL     1       2.554   3.646  17.668  0.00  0.00    +0.000 A 
ATOM     15  C   UNL     1       2.089   2.339  17.852  0.00  0.00    +0.000 A 
ATOM     16  C   UNL     1       1.302   2.029  18.960  0.00  0.00    +0.000 A 
ATOM     17  C   UNL     1       0.983   3.021  19.883  0.00  0.00    +0.000 A 
ATOM     18  C   UNL     1       1.444   4.324  19.697  0.00  0.00    +0.000 A 
ENDBRANCH   6  13
ENDBRANCH   4   6
ENDBRANCH   1   3
BRANCH   1  19
ATOM     19  S   UNL     1      -0.116   9.974  20.030  0.00  0.00    +0.000 S 
BRANCH  19  20
ATOM     20  C   UNL     1       0.354  11.597  20.426  0.00  0.00    +0.000 A 
ATOM     21  N   UNL     1       1.560  12.099  20.290  0.00  0.00    +0.000 NA
ATOM     22  N   UNL     1       1.424  13.452  20.461  0.00  0.00    +0.000 NA
ATOM     23  N   UNL     1       0.158  13.786  20.667  0.00  0.00    +0.000 NA
ATOM     24  N   UNL     1      -0.533  12.621  20.735  0.00  0.00    +0.000 N 
BRANCH  24  25
ATOM     25  C   UNL     1      -1.915  12.601  21.059  0.00  0.00    +0.000 A 
ATOM     26  C   UNL     1      -2.887  12.627  20.058  0.00  0.00    +0.000 A 
ATOM     27  C   UNL     1      -4.238  12.676  20.400  0.00  0.00    +0.000 A 
ATOM     28  C   UNL     1      -4.641  12.707  21.740  0.00  0.00    +0.000 A 
ATOM     29 CL   UNL     1      -6.346  12.814  22.002  0.00  0.00    +0.000 Cl
ATOM     30  C   UNL     1      -3.683  12.651  22.764  0.00  0.00    +0.000 A 
ATOM     31  C   UNL     1      -2.317  12.563  22.404  0.00  0.00    +0.000 A 
BRANCH  30  32
ATOM     32  C   UNL     1      -3.962  12.707  24.233  0.00  0.00    +0.000 C 
ATOM     33  O   UNL     1      -3.602  13.659  24.910  0.00  0.00    +0.000 OA
BRANCH  32  34
ATOM     34  O   UNL     1      -4.653  11.691  24.780  0.00  0.00    +0.000 OA
ATOM     35  H   UNL     1      -4.187  10.835  24.839  0.00  0.00    +0.000 HD
ENDBRANCH  32  34
ENDBRANCH  30  32
ENDBRANCH  24  25
ENDBRANCH  19  20
ENDBRANCH   1  19
TORSDOF 9
ENDMDL
MODEL 8
REMARK VINA RESULT:      -8.8      2.442      3.086
REMARK  Name = 
REMARK  9 active torsions:
REMARK  status: ('A' for Active; 'I' for Inactive)
REMARK    1  A    between atoms: C_2  and  C_3
REMARK    2  A    between atoms: C_3  and  S_4
REMARK    3  A    between atoms: S_4  and  C_5
REMARK    4  A    between atoms: N_9  and  C_10
REMARK    5  A    between atoms: C_15  and  C_16
REMARK    6  A    between atoms: C_16  and  O_18
REMARK    7  A    between atoms: N_20  and  C_21
REMARK    8  A    between atoms: C_21  and  C_22
REMARK    9  A    between atoms: C_21  and  C_28
REMARK                            x       y       z     vdW  Elec       q    Type
REMARK                         _______ _______ _______ _____ _____    ______ ____
ROOT
ATOM      1  C   UNL     1       1.467   9.299  19.782  0.00  0.00    +0.000 C 
ENDROOT
BRANCH   1   3
ATOM      2  O   UNL     1       1.994   8.766  17.466  0.00  0.00    +0.000 OA
ATOM      3  C   UNL     1       1.982   8.416  18.644  0.00  0.00    +0.000 C 
ATOM      4  N   UNL     1       2.394   7.170  19.057  0.00  0.00    +0.000 N 
ATOM      5  H   UNL     1       2.432   6.959  20.042  0.00  0.00    +0.000 HD
BRANCH   4   6
ATOM      6  C   UNL     1       2.896   6.144  18.145  0.00  0.00    +0.000 C 
BRANCH   6   7
ATOM      7  C   UNL     1       4.422   6.160  18.173  0.00  0.00    +0.000 A 
ATOM      8  C   UNL     1       5.165   6.805  17.169  0.00  0.00    +0.000 A 
ATOM      9  C   UNL     1       6.561   6.764  17.173  0.00  0.00    +0.000 A 
ATOM     10  C   UNL     1       7.235   6.091  18.187  0.00  0.00    +0.000 A 
ATOM     11  C   UNL     1       6.516   5.460  19.200  0.00  0.00    +0.000 A 
ATOM     12  C   UNL     1       5.118   5.491  19.193  0.00  0.00    +0.000 A 
ENDBRANCH   6   7
BRANCH   6  13
ATOM     13  C   UNL     1       2.310   4.765  18.452  0.00  0.00    +0.000 A 
ATOM     14  C   UNL     1       2.552   3.699  17.568  0.00  0.00    +0.000 A 
ATOM     15  C   UNL     1       2.040   2.422  17.823  0.00  0.00    +0.000 A 
ATOM     16  C   UNL     1       1.286   2.190  18.973  0.00  0.00    +0.000 A 
ATOM     17  C   UNL     1       1.048   3.230  19.866  0.00  0.00    +0.000 A 
ATOM     18  C   UNL     1       1.554   4.504  19.609  0.00  0.00    +0.000 A 
ENDBRANCH   6  13
ENDBRANCH   4   6
ENDBRANCH   1   3
BRANCH   1  19
ATOM     19  S   UNL     1      -0.078  10.109  19.297  0.00  0.00    +0.000 S 
BRANCH  19  20
ATOM     20  C   UNL     1       0.370  11.786  19.270  0.00  0.00    +0.000 A 
ATOM     21  N   UNL     1       1.225  12.336  18.438  0.00  0.00    +0.000 NA
ATOM     22  N   UNL     1       1.077  13.690  18.590  0.00  0.00    +0.000 NA
ATOM     23  N   UNL     1       0.130  13.974  19.474  0.00  0.00    +0.000 NA
ATOM     24  N   UNL     1      -0.277  12.786  19.985  0.00  0.00    +0.000 N 
BRANCH  24  25
ATOM     25  C   UNL     1      -1.216  12.723  21.048  0.00  0.00    +0.000 A 
ATOM     26  C   UNL     1      -0.814  12.395  22.343  0.00  0.00    +0.000 A 
ATOM     27  C   UNL     1      -1.762  12.271  23.358  0.00  0.00    +0.000 A 
ATOM     28  C   UNL     1      -3.124  12.466  23.098  0.00  0.00    +0.000 A 
ATOM     29 CL   UNL     1      -4.180  12.232  24.446  0.00  0.00    +0.000 Cl
ATOM     30  C   UNL     1      -3.550  12.827  21.810  0.00  0.00    +0.000 A 
ATOM     31  C   UNL     1      -2.573  12.986  20.798  0.00  0.00    +0.000 A 
BRANCH  30  32
ATOM     32  C   UNL     1      -4.967  13.035  21.379  0.00  0.00    +0.000 C 
ATOM     33  O   UNL     1      -5.359  14.127  20.995  0.00  0.00    +0.000 OA
BRANCH  32  34
ATOM     34  O   UNL     1      -5.791  11.971  21.395  0.00  0.00    +0.000 OA
ATOM     35  H   UNL     1      -5.669  11.342  22.132  0.00  0.00    +0.000 HD
ENDBRANCH  32  34
ENDBRANCH  30  32
ENDBRANCH  24  25
ENDBRANCH  19  20
ENDBRANCH   1  19
TORSDOF 9
ENDMDL
MODEL 9
REMARK VINA RESULT:      -8.8      3.034      4.297
REMARK  Name = 
REMARK  9 active torsions:
REMARK  status: ('A' for Active; 'I' for Inactive)
REMARK    1  A    between atoms: C_2  and  C_3
REMARK    2  A    between atoms: C_3  and  S_4
REMARK    3  A    between atoms: S_4  and  C_5
REMARK    4  A    between atoms: N_9  and  C_10
REMARK    5  A    between atoms: C_15  and  C_16
REMARK    6  A    between atoms: C_16  and  O_18
REMARK    7  A    between atoms: N_20  and  C_21
REMARK    8  A    between atoms: C_21  and  C_22
REMARK    9  A    between atoms: C_21  and  C_28
REMARK                            x       y       z     vdW  Elec       q    Type
REMARK                         _______ _______ _______ _____ _____    ______ ____
ROOT
ATOM      1  C   UNL     1       1.548   9.125  19.738  0.00  0.00    +0.000 C 
ENDROOT
BRANCH   1   3
ATOM      2  O   UNL     1       2.176   8.681  17.429  0.00  0.00    +0.000 OA
ATOM      3  C   UNL     1       2.103   8.283  18.589  0.00  0.00    +0.000 C 
ATOM      4  N   UNL     1       2.476   7.013  18.967  0.00  0.00    +0.000 N 
ATOM      5  H   UNL     1       2.464   6.761  19.943  0.00  0.00    +0.000 HD
BRANCH   4   6
ATOM      6  C   UNL     1       3.006   6.018  18.037  0.00  0.00    +0.000 C 
BRANCH   6   7
ATOM      7  C   UNL     1       4.530   6.048  18.092  0.00  0.00    +0.000 A 
ATOM      8  C   UNL     1       5.237   5.424  19.135  0.00  0.00    +0.000 A 
ATOM      9  C   UNL     1       6.629   5.506  19.207  0.00  0.00    +0.000 A 
ATOM     10  C   UNL     1       7.337   6.200  18.230  0.00  0.00    +0.000 A 
ATOM     11  C   UNL     1       6.655   6.810  17.180  0.00  0.00    +0.000 A 
ATOM     12  C   UNL     1       5.261   6.738  17.110  0.00  0.00    +0.000 A 
ENDBRANCH   6   7
BRANCH   6  13
ATOM     13  C   UNL     1       2.429   4.625  18.295  0.00  0.00    +0.000 A 
ATOM     14  C   UNL     1       2.827   3.550  17.481  0.00  0.00    +0.000 A 
ATOM     15  C   UNL     1       2.327   2.261  17.696  0.00  0.00    +0.000 A 
ATOM     16  C   UNL     1       1.429   2.026  18.736  0.00  0.00    +0.000 A 
ATOM     17  C   UNL     1       1.034   3.075  19.560  0.00  0.00    +0.000 A 
ATOM     18  C   UNL     1       1.528   4.361  19.343  0.00  0.00    +0.000 A 
ENDBRANCH   6  13
ENDBRANCH   4   6
ENDBRANCH   1   3
BRANCH   1  19
ATOM     19  S   UNL     1       0.736  10.609  19.093  0.00  0.00    +0.000 S 
BRANCH  19  20
ATOM     20  C   UNL     1       0.192  11.399  20.539  0.00  0.00    +0.000 A 
ATOM     21  N   UNL     1      -0.372  10.807  21.568  0.00  0.00    +0.000 NA
ATOM     22  N   UNL     1      -0.392  11.741  22.571  0.00  0.00    +0.000 NA
ATOM     23  N   UNL     1       0.173  12.876  22.184  0.00  0.00    +0.000 NA
ATOM     24  N   UNL     1       0.477  12.717  20.872  0.00  0.00    +0.000 N 
BRANCH  24  25
ATOM     25  C   UNL     1       1.002  13.788  20.102  0.00  0.00    +0.000 A 
ATOM     26  C   UNL     1       0.161  14.755  19.549  0.00  0.00    +0.000 A 
ATOM     27  C   UNL     1       0.690  15.759  18.739  0.00  0.00    +0.000 A 
ATOM     28  C   UNL     1       2.062  15.811  18.461  0.00  0.00    +0.000 A 
ATOM     29 CL   UNL     1       2.559  17.085  17.405  0.00  0.00    +0.000 Cl
ATOM     30  C   UNL     1       2.931  14.868  19.030  0.00  0.00    +0.000 A 
ATOM     31  C   UNL     1       2.386  13.876  19.881  0.00  0.00    +0.000 A 
BRANCH  30  32
ATOM     32  C   UNL     1       4.406  14.780  18.799  0.00  0.00    +0.000 C 
ATOM     33  O   UNL     1       5.201  14.933  19.714  0.00  0.00    +0.000 OA
BRANCH  32  34
ATOM     34  O   UNL     1       4.831  14.494  17.555  0.00  0.00    +0.000 OA
ATOM     35  H   UNL     1       4.275  13.879  17.040  0.00  0.00    +0.000 HD
ENDBRANCH  32  34
ENDBRANCH  30  32
ENDBRANCH  24  25
ENDBRANCH  19  20
ENDBRANCH   1  19
TORSDOF 9
ENDMDL
