MODEL 1
REMARK VINA RESULT:      -7.3      0.000      0.000
REMARK  Name = 
REMARK  6 active torsions:
REMARK  status: ('A' for Active; 'I' for Inactive)
REMARK    1  A    between atoms: S_2  and  N_3
REMARK    2  A    between atoms: S_2  and  C_5
REMARK    3  A    between atoms: C_5  and  C_6
REMARK    4  A    between atoms: C_8  and  N_9
REMARK    5  A    between atoms: C_14  and  C_15
REMARK    6  A    between atoms: C_17  and  C_18
REMARK                            x       y       z     vdW  Elec       q    Type
REMARK                         _______ _______ _______ _____ _____    ______ ____
ROOT
ATOM      1  C   UNL     1      -4.033  13.451  22.732  0.00  0.00    +0.000 A 
ATOM      2  C   UNL     1      -3.448  14.537  23.361  0.00  0.00    +0.000 A 
ATOM      3  C   UNL     1      -2.108  14.481  23.693  0.00  0.00    +0.000 A 
ATOM      4  N   UNL     1      -1.377  13.408  23.358  0.00  0.00    +0.000 NA
ATOM      5  C   UNL     1      -1.980  12.390  22.727  0.00  0.00    +0.000 A 
ATOM      6  N   UNL     1      -3.288  12.376  22.398  0.00  0.00    +0.000 NA
ENDROOT
BRANCH   5   7
ATOM      7  C   UNL     1      -1.161  11.242  22.298  0.00  0.00    +0.000 A 
ATOM      8  C   UNL     1      -0.750  10.244  23.216  0.00  0.00    +0.000 A 
ATOM      9  C   UNL     1      -0.002   9.134  22.826  0.00  0.00    +0.000 A 
ATOM     10  C   UNL     1       0.385   8.968  21.500  0.00  0.00    +0.000 A 
ATOM     11  C   UNL     1       0.002   9.955  20.587  0.00  0.00    +0.000 A 
ATOM     12  N   UNL     1       0.260  10.037  19.236  0.00  0.00    +0.000 N 
ATOM     13  C   UNL     1      -0.279  11.180  18.718  0.00  0.00    +0.000 A 
ATOM     14  C   UNL     1      -0.904  11.846  19.745  0.00  0.00    +0.000 A 
ATOM     15  C   UNL     1      -0.750  11.082  20.945  0.00  0.00    +0.000 A 
ATOM     16  H   UNL     1       0.782   9.348  18.712  0.00  0.00    +0.000 HD
ENDBRANCH   5   7
BRANCH   3  17
ATOM     17  N   UNL     1      -1.504  15.461  24.454  0.00  0.00    +0.000 N 
ATOM     18  C   UNL     1      -1.793  15.532  25.899  0.00  0.00    +0.000 C 
ATOM     19  C   UNL     1      -0.581  16.130  26.622  0.00  0.00    +0.000 C 
ATOM     20  O   UNL     1      -0.249  17.424  26.098  0.00  0.00    +0.000 OA
ATOM     21  C   UNL     1       0.054  17.334  24.692  0.00  0.00    +0.000 C 
ATOM     22  C   UNL     1      -1.149  16.785  23.884  0.00  0.00    +0.000 C 
ATOM     23  C   UNL     1      -0.829  16.819  22.395  0.00  0.00    +0.000 C 
ENDBRANCH   3  17
BRANCH   1  24
ATOM     24  C   UNL     1      -5.520  13.438  22.350  0.00  0.00    +0.000 C 
ATOM     25  C   UNL     1      -6.044  14.863  22.047  0.00  0.00    +0.000 C 
ATOM     26  C   UNL     1      -5.502  15.384  20.720  0.00  0.00    +0.000 C 
ATOM     27  O   UNL     1      -5.850  14.505  19.653  0.00  0.00    +0.000 OA
ATOM     28  C   UNL     1      -5.311  13.199  19.825  0.00  0.00    +0.000 C 
ATOM     29  C   UNL     1      -5.840  12.566  21.106  0.00  0.00    +0.000 C 
BRANCH  24  31
ATOM     30  C   UNL     1      -7.535  13.770  24.430  0.00  0.00    +0.000 C 
ATOM     31  S   UNL     1      -6.308  12.761  23.780  0.00  0.00    +0.000 S 
ATOM     32  O   UNL     1      -7.117  11.693  23.253  0.00  0.00    +0.000 OA
BRANCH  31  33
ATOM     33  N   UNL     1      -5.320  12.085  24.947  0.00  0.00    +0.000 NA
ATOM     34  H   UNL     1      -4.792  12.847  25.371  0.00  0.00    +0.000 HD
ATOM     35  H   UNL     1      -4.626  11.484  24.515  0.00  0.00    +0.000 HD
ENDBRANCH  31  33
ENDBRANCH  24  31
ENDBRANCH   1  24
TORSDOF 5
ENDMDL
MODEL 2
REMARK VINA RESULT:      -6.8      4.127      7.229
REMARK  Name = 
REMARK  6 active torsions:
REMARK  status: ('A' for Active; 'I' for Inactive)
REMARK    1  A    between atoms: S_2  and  N_3
REMARK    2  A    between atoms: S_2  and  C_5
REMARK    3  A    between atoms: C_5  and  C_6
REMARK    4  A    between atoms: C_8  and  N_9
REMARK    5  A    between atoms: C_14  and  C_15
REMARK    6  A    between atoms: C_17  and  C_18
REMARK                            x       y       z     vdW  Elec       q    Type
REMARK                         _______ _______ _______ _____ _____    ______ ____
ROOT
ATOM      1  C   UNL     1       0.156  12.900  19.519  0.00  0.00    +0.000 A 
ATOM      2  C   UNL     1      -1.172  12.923  19.127  0.00  0.00    +0.000 A 
ATOM      3  C   UNL     1      -1.841  11.727  18.947  0.00  0.00    +0.000 A 
ATOM      4  N   UNL     1      -1.223  10.567  19.204  0.00  0.00    +0.000 NA
ATOM      5  C   UNL     1       0.055  10.593  19.608  0.00  0.00    +0.000 A 
ATOM      6  N   UNL     1       0.768  11.726  19.779  0.00  0.00    +0.000 NA
ENDROOT
BRANCH   5   7
ATOM      7  C   UNL     1       0.711   9.320  19.957  0.00  0.00    +0.000 A 
ATOM      8  C   UNL     1       0.453   8.669  21.189  0.00  0.00    +0.000 A 
ATOM      9  C   UNL     1       1.038   7.449  21.526  0.00  0.00    +0.000 A 
ATOM     10  C   UNL     1       1.921   6.820  20.653  0.00  0.00    +0.000 A 
ATOM     11  C   UNL     1       2.199   7.461  19.443  0.00  0.00    +0.000 A 
ATOM     12  N   UNL     1       3.034   7.063  18.421  0.00  0.00    +0.000 N 
ATOM     13  C   UNL     1       3.036   7.993  17.420  0.00  0.00    +0.000 A 
ATOM     14  C   UNL     1       2.184   9.006  17.794  0.00  0.00    +0.000 A 
ATOM     15  C   UNL     1       1.628   8.686  19.073  0.00  0.00    +0.000 A 
ATOM     16  H   UNL     1       3.571   6.207  18.423  0.00  0.00    +0.000 HD
ENDBRANCH   5   7
BRANCH   3  17
ATOM     17  N   UNL     1      -3.111  11.677  18.410  0.00  0.00    +0.000 N 
ATOM     18  C   UNL     1      -4.267  12.028  19.256  0.00  0.00    +0.000 C 
ATOM     19  C   UNL     1      -5.385  12.588  18.368  0.00  0.00    +0.000 C 
ATOM     20  O   UNL     1      -5.758  11.649  17.348  0.00  0.00    +0.000 OA
ATOM     21  C   UNL     1      -4.624  11.335  16.516  0.00  0.00    +0.000 C 
ATOM     22  C   UNL     1      -3.469  10.713  17.338  0.00  0.00    +0.000 C 
ATOM     23  C   UNL     1      -2.342  10.287  16.405  0.00  0.00    +0.000 C 
ENDBRANCH   3  17
BRANCH   1  24
ATOM     24  C   UNL     1       0.964  14.189  19.722  0.00  0.00    +0.000 C 
ATOM     25  C   UNL     1       0.129  15.447  19.384  0.00  0.00    +0.000 C 
ATOM     26  C   UNL     1      -0.933  15.711  20.446  0.00  0.00    +0.000 C 
ATOM     27  O   UNL     1      -0.336  15.860  21.732  0.00  0.00    +0.000 OA
ATOM     28  C   UNL     1       0.368  14.693  22.144  0.00  0.00    +0.000 C 
ATOM     29  C   UNL     1       1.495  14.375  21.169  0.00  0.00    +0.000 C 
BRANCH  24  31
ATOM     30  C   UNL     1       2.817  15.481  17.879  0.00  0.00    +0.000 C 
ATOM     31  S   UNL     1       2.320  14.005  18.602  0.00  0.00    +0.000 S 
ATOM     32  O   UNL     1       3.446  13.759  19.464  0.00  0.00    +0.000 OA
BRANCH  31  33
ATOM     33  N   UNL     1       2.252  12.730  17.523  0.00  0.00    +0.000 NA
ATOM     34  H   UNL     1       1.986  11.902  18.055  0.00  0.00    +0.000 HD
ATOM     35  H   UNL     1       3.176  12.529  17.158  0.00  0.00    +0.000 HD
ENDBRANCH  31  33
ENDBRANCH  24  31
ENDBRANCH   1  24
TORSDOF 5
ENDMDL
MODEL 3
REMARK VINA RESULT:      -6.7      1.079      1.199
REMARK  Name = 
REMARK  6 active torsions:
REMARK  status: ('A' for Active; 'I' for Inactive)
REMARK    1  A    between atoms: S_2  and  N_3
REMARK    2  A    between atoms: S_2  and  C_5
REMARK    3  A    between atoms: C_5  and  C_6
REMARK    4  A    between atoms: C_8  and  N_9
REMARK    5  A    between atoms: C_14  and  C_15
REMARK    6  A    between atoms: C_17  and  C_18
REMARK                            x       y       z     vdW  Elec       q    Type
REMARK                         _______ _______ _______ _____ _____    ______ ____
ROOT
ATOM      1  C   UNL     1      -3.587  14.179  23.176  0.00  0.00    +0.000 A 
ATOM      2  C   UNL     1      -2.880  15.153  23.861  0.00  0.00    +0.000 A 
ATOM      3  C   UNL     1      -1.547  14.936  24.153  0.00  0.00    +0.000 A 
ATOM      4  N   UNL     1      -0.939  13.821  23.727  0.00  0.00    +0.000 NA
ATOM      5  C   UNL     1      -1.656  12.917  23.044  0.00  0.00    +0.000 A 
ATOM      6  N   UNL     1      -2.964  13.060  22.749  0.00  0.00    +0.000 NA
ENDROOT
BRANCH   5   7
ATOM      7  C   UNL     1      -0.969  11.724  22.516  0.00  0.00    +0.000 A 
ATOM      8  C   UNL     1      -1.015  10.483  23.198  0.00  0.00    +0.000 A 
ATOM      9  C   UNL     1      -0.399   9.335  22.701  0.00  0.00    +0.000 A 
ATOM     10  C   UNL     1       0.305   9.369  21.501  0.00  0.00    +0.000 A 
ATOM     11  C   UNL     1       0.375  10.592  20.828  0.00  0.00    +0.000 A 
ATOM     12  N   UNL     1       1.009  10.897  19.644  0.00  0.00    +0.000 N 
ATOM     13  C   UNL     1       0.849  12.221  19.346  0.00  0.00    +0.000 A 
ATOM     14  C   UNL     1       0.092  12.782  20.347  0.00  0.00    +0.000 A 
ATOM     15  C   UNL     1      -0.233  11.764  21.298  0.00  0.00    +0.000 A 
ATOM     16  H   UNL     1       1.525  10.232  19.084  0.00  0.00    +0.000 HD
ENDBRANCH   5   7
BRANCH   3  17
ATOM     17  N   UNL     1      -0.830  15.793  24.963  0.00  0.00    +0.000 N 
ATOM     18  C   UNL     1      -1.170  15.884  26.395  0.00  0.00    +0.000 C 
ATOM     19  C   UNL     1       0.088  16.267  27.184  0.00  0.00    +0.000 C 
ATOM     20  O   UNL     1       0.646  17.501  26.706  0.00  0.00    +0.000 OA
ATOM     21  C   UNL     1       0.994  17.387  25.313  0.00  0.00    +0.000 C 
ATOM     22  C   UNL     1      -0.242  17.052  24.441  0.00  0.00    +0.000 C 
ATOM     23  C   UNL     1       0.147  17.061  22.968  0.00  0.00    +0.000 C 
ENDBRANCH   3  17
BRANCH   1  24
ATOM     24  C   UNL     1      -5.074  14.345  22.833  0.00  0.00    +0.000 C 
ATOM     25  C   UNL     1      -5.611  15.727  23.276  0.00  0.00    +0.000 C 
ATOM     26  C   UNL     1      -5.076  16.843  22.385  0.00  0.00    +0.000 C 
ATOM     27  O   UNL     1      -5.418  16.608  21.021  0.00  0.00    +0.000 OA
ATOM     28  C   UNL     1      -4.867  15.393  20.523  0.00  0.00    +0.000 C 
ATOM     29  C   UNL     1      -5.388  14.202  21.319  0.00  0.00    +0.000 C 
BRANCH  24  31
ATOM     30  C   UNL     1      -7.435  13.432  24.280  0.00  0.00    +0.000 C 
ATOM     31  S   UNL     1      -5.854  13.040  23.736  0.00  0.00    +0.000 S 
ATOM     32  O   UNL     1      -6.173  12.067  22.724  0.00  0.00    +0.000 OA
BRANCH  31  33
ATOM     33  N   UNL     1      -4.934  12.253  24.888  0.00  0.00    +0.000 NA
ATOM     34  H   UNL     1      -4.315  11.613  24.390  0.00  0.00    +0.000 HD
ATOM     35  H   UNL     1      -5.523  11.663  25.465  0.00  0.00    +0.000 HD
ENDBRANCH  31  33
ENDBRANCH  24  31
ENDBRANCH   1  24
TORSDOF 5
ENDMDL
MODEL 4
REMARK VINA RESULT:      -6.6      3.879      7.287
REMARK  Name = 
REMARK  6 active torsions:
REMARK  status: ('A' for Active; 'I' for Inactive)
REMARK    1  A    between atoms: S_2  and  N_3
REMARK    2  A    between atoms: S_2  and  C_5
REMARK    3  A    between atoms: C_5  and  C_6
REMARK    4  A    between atoms: C_8  and  N_9
REMARK    5  A    between atoms: C_14  and  C_15
REMARK    6  A    between atoms: C_17  and  C_18
REMARK                            x       y       z     vdW  Elec       q    Type
REMARK                         _______ _______ _______ _____ _____    ______ ____
ROOT
ATOM      1  C   UNL     1       0.007  12.833  20.290  0.00  0.00    +0.000 A 
ATOM      2  C   UNL     1       0.792  11.691  20.302  0.00  0.00    +0.000 A 
ATOM      3  C   UNL     1       0.274  10.513  19.798  0.00  0.00    +0.000 A 
ATOM      4  N   UNL     1      -0.951  10.496  19.255  0.00  0.00    +0.000 NA
ATOM      5  C   UNL     1      -1.665  11.632  19.241  0.00  0.00    +0.000 A 
ATOM      6  N   UNL     1      -1.224  12.805  19.738  0.00  0.00    +0.000 NA
ENDROOT
BRANCH   5   7
ATOM      7  C   UNL     1      -2.984  11.627  18.581  0.00  0.00    +0.000 A 
ATOM      8  C   UNL     1      -4.140  12.115  19.238  0.00  0.00    +0.000 A 
ATOM      9  C   UNL     1      -5.391  12.149  18.622  0.00  0.00    +0.000 A 
ATOM     10  C   UNL     1      -5.553  11.688  17.319  0.00  0.00    +0.000 A 
ATOM     11  C   UNL     1      -4.424  11.186  16.666  0.00  0.00    +0.000 A 
ATOM     12  N   UNL     1      -4.315  10.665  15.395  0.00  0.00    +0.000 N 
ATOM     13  C   UNL     1      -3.030  10.267  15.153  0.00  0.00    +0.000 A 
ATOM     14  C   UNL     1      -2.293  10.541  16.281  0.00  0.00    +0.000 A 
ATOM     15  C   UNL     1      -3.153  11.138  17.255  0.00  0.00    +0.000 A 
ATOM     16  H   UNL     1      -5.083  10.585  14.743  0.00  0.00    +0.000 HD
ENDBRANCH   5   7
BRANCH   3  17
ATOM     17  N   UNL     1       0.941   9.312  19.922  0.00  0.00    +0.000 N 
ATOM     18  C   UNL     1       1.091   8.705  21.257  0.00  0.00    +0.000 C 
ATOM     19  C   UNL     1       1.177   7.181  21.106  0.00  0.00    +0.000 C 
ATOM     20  O   UNL     1       2.261   6.804  20.243  0.00  0.00    +0.000 OA
ATOM     21  C   UNL     1       2.086   7.386  18.936  0.00  0.00    +0.000 C 
ATOM     22  C   UNL     1       2.043   8.933  19.002  0.00  0.00    +0.000 C 
ATOM     23  C   UNL     1       1.980   9.508  17.592  0.00  0.00    +0.000 C 
ENDBRANCH   3  17
BRANCH   1  24
ATOM     24  C   UNL     1       0.512  14.170  20.848  0.00  0.00    +0.000 C 
ATOM     25  C   UNL     1       1.963  14.059  21.374  0.00  0.00    +0.000 C 
ATOM     26  C   UNL     1       2.962  13.932  20.229  0.00  0.00    +0.000 C 
ATOM     27  O   UNL     1       2.855  15.043  19.341  0.00  0.00    +0.000 OA
ATOM     28  C   UNL     1       1.566  15.142  18.746  0.00  0.00    +0.000 C 
ATOM     29  C   UNL     1       0.495  15.328  19.814  0.00  0.00    +0.000 C 
BRANCH  24  31
ATOM     30  C   UNL     1      -1.032  13.140  23.096  0.00  0.00    +0.000 C 
ATOM     31  S   UNL     1      -0.617  14.520  22.163  0.00  0.00    +0.000 S 
ATOM     32  O   UNL     1       0.183  15.237  23.121  0.00  0.00    +0.000 OA
BRANCH  31  33
ATOM     33  N   UNL     1      -1.927  15.495  21.805  0.00  0.00    +0.000 NA
ATOM     34  H   UNL     1      -1.711  16.427  22.157  0.00  0.00    +0.000 HD
ATOM     35  H   UNL     1      -2.743  15.193  22.327  0.00  0.00    +0.000 HD
ENDBRANCH  31  33
ENDBRANCH  24  31
ENDBRANCH   1  24
TORSDOF 5
ENDMDL
MODEL 5
REMARK VINA RESULT:      -6.5      4.144      7.323
REMARK  Name = 
REMARK  6 active torsions:
REMARK  status: ('A' for Active; 'I' for Inactive)
REMARK    1  A    between atoms: S_2  and  N_3
REMARK    2  A    between atoms: S_2  and  C_5
REMARK    3  A    between atoms: C_5  and  C_6
REMARK    4  A    between atoms: C_8  and  N_9
REMARK    5  A    between atoms: C_14  and  C_15
REMARK    6  A    between atoms: C_17  and  C_18
REMARK                            x       y       z     vdW  Elec       q    Type
REMARK                         _______ _______ _______ _____ _____    ______ ____
ROOT
ATOM      1  C   UNL     1       0.218  12.849  19.440  0.00  0.00    +0.000 A 
ATOM      2  C   UNL     1      -1.058  12.850  18.902  0.00  0.00    +0.000 A 
ATOM      3  C   UNL     1      -1.676  11.643  18.634  0.00  0.00    +0.000 A 
ATOM      4  N   UNL     1      -1.064  10.492  18.944  0.00  0.00    +0.000 NA
ATOM      5  C   UNL     1       0.161  10.540  19.488  0.00  0.00    +0.000 A 
ATOM      6  N   UNL     1       0.824  11.684  19.752  0.00  0.00    +0.000 NA
ENDROOT
BRANCH   5   7
ATOM      7  C   UNL     1       0.802   9.276  19.893  0.00  0.00    +0.000 A 
ATOM      8  C   UNL     1       0.540   8.684  21.153  0.00  0.00    +0.000 A 
ATOM      9  C   UNL     1       1.112   7.473  21.543  0.00  0.00    +0.000 A 
ATOM     10  C   UNL     1       1.984   6.794  20.698  0.00  0.00    +0.000 A 
ATOM     11  C   UNL     1       2.267   7.377  19.459  0.00  0.00    +0.000 A 
ATOM     12  N   UNL     1       3.093   6.924  18.454  0.00  0.00    +0.000 N 
ATOM     13  C   UNL     1       3.104   7.808  17.412  0.00  0.00    +0.000 A 
ATOM     14  C   UNL     1       2.265   8.846  17.742  0.00  0.00    +0.000 A 
ATOM     15  C   UNL     1       1.709   8.591  19.035  0.00  0.00    +0.000 A 
ATOM     16  H   UNL     1       3.620   6.062  18.493  0.00  0.00    +0.000 HD
ENDBRANCH   5   7
BRANCH   3  17
ATOM     17  N   UNL     1      -2.876  11.574  17.958  0.00  0.00    +0.000 N 
ATOM     18  C   UNL     1      -2.871  11.463  16.487  0.00  0.00    +0.000 C 
ATOM     19  C   UNL     1      -4.131  10.714  16.038  0.00  0.00    +0.000 C 
ATOM     20  O   UNL     1      -5.320  11.371  16.502  0.00  0.00    +0.000 OA
ATOM     21  C   UNL     1      -5.321  11.449  17.940  0.00  0.00    +0.000 C 
ATOM     22  C   UNL     1      -4.100  12.242  18.469  0.00  0.00    +0.000 C 
ATOM     23  C   UNL     1      -4.205  12.404  19.981  0.00  0.00    +0.000 C 
ENDBRANCH   3  17
BRANCH   1  24
ATOM     24  C   UNL     1       0.970  14.152  19.748  0.00  0.00    +0.000 C 
ATOM     25  C   UNL     1       0.090  15.396  19.481  0.00  0.00    +0.000 C 
ATOM     26  C   UNL     1      -1.001  15.543  20.536  0.00  0.00    +0.000 C 
ATOM     27  O   UNL     1      -0.433  15.625  21.841  0.00  0.00    +0.000 OA
ATOM     28  C   UNL     1       0.310  14.462  22.186  0.00  0.00    +0.000 C 
ATOM     29  C   UNL     1       1.467  14.257  21.215  0.00  0.00    +0.000 C 
BRANCH  24  31
ATOM     30  C   UNL     1       2.766  15.633  17.994  0.00  0.00    +0.000 C 
ATOM     31  S   UNL     1       2.351  14.100  18.646  0.00  0.00    +0.000 S 
ATOM     32  O   UNL     1       3.478  13.888  19.517  0.00  0.00    +0.000 OA
BRANCH  31  33
ATOM     33  N   UNL     1       2.380  12.870  17.515  0.00  0.00    +0.000 NA
ATOM     34  H   UNL     1       1.979  13.244  16.655  0.00  0.00    +0.000 HD
ATOM     35  H   UNL     1       1.759  12.119  17.796  0.00  0.00    +0.000 HD
ENDBRANCH  31  33
ENDBRANCH  24  31
ENDBRANCH   1  24
TORSDOF 5
ENDMDL
MODEL 6
REMARK VINA RESULT:      -6.4      1.877      5.257
REMARK  Name = 
REMARK  6 active torsions:
REMARK  status: ('A' for Active; 'I' for Inactive)
REMARK    1  A    between atoms: S_2  and  N_3
REMARK    2  A    between atoms: S_2  and  C_5
REMARK    3  A    between atoms: C_5  and  C_6
REMARK    4  A    between atoms: C_8  and  N_9
REMARK    5  A    between atoms: C_14  and  C_15
REMARK    6  A    between atoms: C_17  and  C_18
REMARK                            x       y       z     vdW  Elec       q    Type
REMARK                         _______ _______ _______ _____ _____    ______ ____
ROOT
ATOM      1  C   UNL     1      -3.926  13.384  22.689  0.00  0.00    +0.000 A 
ATOM      2  C   UNL     1      -3.195  12.266  22.321  0.00  0.00    +0.000 A 
ATOM      3  C   UNL     1      -1.844  12.221  22.607  0.00  0.00    +0.000 A 
ATOM      4  N   UNL     1      -1.267  13.224  23.282  0.00  0.00    +0.000 NA
ATOM      5  C   UNL     1      -2.019  14.275  23.641  0.00  0.00    +0.000 A 
ATOM      6  N   UNL     1      -3.335  14.388  23.370  0.00  0.00    +0.000 NA
ENDROOT
BRANCH   5   7
ATOM      7  C   UNL     1      -1.398  15.345  24.443  0.00  0.00    +0.000 A 
ATOM      8  C   UNL     1      -1.606  15.436  25.841  0.00  0.00    +0.000 A 
ATOM      9  C   UNL     1      -1.003  16.421  26.623  0.00  0.00    +0.000 A 
ATOM     10  C   UNL     1      -0.168  17.373  26.047  0.00  0.00    +0.000 A 
ATOM     11  C   UNL     1       0.030  17.307  24.665  0.00  0.00    +0.000 A 
ATOM     12  N   UNL     1       0.790  18.123  23.856  0.00  0.00    +0.000 N 
ATOM     13  C   UNL     1       0.696  17.722  22.554  0.00  0.00    +0.000 A 
ATOM     14  C   UNL     1      -0.130  16.624  22.517  0.00  0.00    +0.000 A 
ATOM     15  C   UNL     1      -0.559  16.331  23.850  0.00  0.00    +0.000 A 
ATOM     16  H   UNL     1       1.331  18.911  24.186  0.00  0.00    +0.000 HD
ENDBRANCH   5   7
BRANCH   3  17
ATOM     17  N   UNL     1      -1.033  11.211  22.133  0.00  0.00    +0.000 N 
ATOM     18  C   UNL     1      -0.612  10.134  23.047  0.00  0.00    +0.000 C 
ATOM     19  C   UNL     1      -0.376   8.853  22.237  0.00  0.00    +0.000 C 
ATOM     20  O   UNL     1       0.598   9.064  21.204  0.00  0.00    +0.000 OA
ATOM     21  C   UNL     1       0.161  10.102  20.306  0.00  0.00    +0.000 C 
ATOM     22  C   UNL     1      -0.048  11.446  21.047  0.00  0.00    +0.000 C 
ATOM     23  C   UNL     1      -0.391  12.541  20.043  0.00  0.00    +0.000 C 
ENDBRANCH   3  17
BRANCH   1  24
ATOM     24  C   UNL     1      -5.426  13.508  22.388  0.00  0.00    +0.000 C 
ATOM     25  C   UNL     1      -5.848  14.983  22.185  0.00  0.00    +0.000 C 
ATOM     26  C   UNL     1      -5.333  15.531  20.858  0.00  0.00    +0.000 C 
ATOM     27  O   UNL     1      -5.804  14.740  19.769  0.00  0.00    +0.000 OA
ATOM     28  C   UNL     1      -5.365  13.389  19.847  0.00  0.00    +0.000 C 
ATOM     29  C   UNL     1      -5.878  12.731  21.122  0.00  0.00    +0.000 C 
BRANCH  24  31
ATOM     30  C   UNL     1      -7.480  13.774  24.439  0.00  0.00    +0.000 C 
ATOM     31  S   UNL     1      -6.193  12.819  23.824  0.00  0.00    +0.000 S 
ATOM     32  O   UNL     1      -6.938  11.699  23.311  0.00  0.00    +0.000 OA
BRANCH  31  33
ATOM     33  N   UNL     1      -5.184  12.221  25.015  0.00  0.00    +0.000 NA
ATOM     34  H   UNL     1      -5.350  11.216  25.071  0.00  0.00    +0.000 HD
ATOM     35  H   UNL     1      -5.455  12.588  25.921  0.00  0.00    +0.000 HD
ENDBRANCH  31  33
ENDBRANCH  24  31
ENDBRANCH   1  24
TORSDOF 5
ENDMDL
MODEL 7
REMARK VINA RESULT:      -6.4     10.382     13.209
REMARK  Name = 
REMARK  6 active torsions:
REMARK  status: ('A' for Active; 'I' for Inactive)
REMARK    1  A    between atoms: S_2  and  N_3
REMARK    2  A    between atoms: S_2  and  C_5
REMARK    3  A    between atoms: C_5  and  C_6
REMARK    4  A    between atoms: C_8  and  N_9
REMARK    5  A    between atoms: C_14  and  C_15
REMARK    6  A    between atoms: C_17  and  C_18
REMARK                            x       y       z     vdW  Elec       q    Type
REMARK                         _______ _______ _______ _____ _____    ______ ____
ROOT
ATOM      1  C   UNL     1       9.529  14.386  19.428  0.00  0.00    +0.000 A 
ATOM      2  C   UNL     1       8.416  14.986  18.863  0.00  0.00    +0.000 A 
ATOM      3  C   UNL     1       7.227  14.995  19.566  0.00  0.00    +0.000 A 
ATOM      4  N   UNL     1       7.173  14.478  20.801  0.00  0.00    +0.000 NA
ATOM      5  C   UNL     1       8.282  13.930  21.319  0.00  0.00    +0.000 A 
ATOM      6  N   UNL     1       9.465  13.870  20.673  0.00  0.00    +0.000 NA
ENDROOT
BRANCH   5   7
ATOM      7  C   UNL     1       8.239  13.425  22.703  0.00  0.00    +0.000 A 
ATOM      8  C   UNL     1       7.854  12.092  22.991  0.00  0.00    +0.000 A 
ATOM      9  C   UNL     1       7.836  11.584  24.290  0.00  0.00    +0.000 A 
ATOM     10  C   UNL     1       8.193  12.384  25.370  0.00  0.00    +0.000 A 
ATOM     11  C   UNL     1       8.557  13.707  25.102  0.00  0.00    +0.000 A 
ATOM     12  N   UNL     1       8.937  14.699  25.980  0.00  0.00    +0.000 N 
ATOM     13  C   UNL     1       9.190  15.859  25.305  0.00  0.00    +0.000 A 
ATOM     14  C   UNL     1       8.979  15.616  23.968  0.00  0.00    +0.000 A 
ATOM     15  C   UNL     1       8.586  14.249  23.810  0.00  0.00    +0.000 A 
ATOM     16  H   UNL     1       9.009  14.578  26.981  0.00  0.00    +0.000 HD
ENDBRANCH   5   7
BRANCH   3  17
ATOM     17  N   UNL     1       6.049  15.436  18.999  0.00  0.00    +0.000 N 
ATOM     18  C   UNL     1       5.474  14.696  17.861  0.00  0.00    +0.000 C 
ATOM     19  C   UNL     1       3.951  14.872  17.867  0.00  0.00    +0.000 C 
ATOM     20  O   UNL     1       3.588  16.260  17.816  0.00  0.00    +0.000 OA
ATOM     21  C   UNL     1       4.136  16.964  18.947  0.00  0.00    +0.000 C 
ATOM     22  C   UNL     1       5.682  16.875  18.979  0.00  0.00    +0.000 C 
ATOM     23  C   UNL     1       6.226  17.731  20.117  0.00  0.00    +0.000 C 
ENDBRANCH   3  17
BRANCH   1  24
ATOM     24  C   UNL     1      10.877  14.325  18.696  0.00  0.00    +0.000 C 
ATOM     25  C   UNL     1      10.787  14.939  17.279  0.00  0.00    +0.000 C 
ATOM     26  C   UNL     1      10.663  16.458  17.339  0.00  0.00    +0.000 C 
ATOM     27  O   UNL     1      11.764  17.027  18.042  0.00  0.00    +0.000 OA
ATOM     28  C   UNL     1      11.843  16.574  19.389  0.00  0.00    +0.000 C 
ATOM     29  C   UNL     1      12.026  15.062  19.436  0.00  0.00    +0.000 C 
BRANCH  24  31
ATOM     30  C   UNL     1       9.963  11.671  17.906  0.00  0.00    +0.000 C 
ATOM     31  S   UNL     1      11.225  12.593  18.618  0.00  0.00    +0.000 S 
ATOM     32  O   UNL     1      12.222  12.489  17.585  0.00  0.00    +0.000 OA
BRANCH  31  33
ATOM     33  N   UNL     1      11.874  11.882  19.985  0.00  0.00    +0.000 NA
ATOM     34  H   UNL     1      11.098  11.685  20.617  0.00  0.00    +0.000 HD
ATOM     35  H   UNL     1      12.462  12.544  20.479  0.00  0.00    +0.000 HD
ENDBRANCH  31  33
ENDBRANCH  24  31
ENDBRANCH   1  24
TORSDOF 5
ENDMDL
MODEL 8
REMARK VINA RESULT:      -6.4      3.115      6.190
REMARK  Name = 
REMARK  6 active torsions:
REMARK  status: ('A' for Active; 'I' for Inactive)
REMARK    1  A    between atoms: S_2  and  N_3
REMARK    2  A    between atoms: S_2  and  C_5
REMARK    3  A    between atoms: C_5  and  C_6
REMARK    4  A    between atoms: C_8  and  N_9
REMARK    5  A    between atoms: C_14  and  C_15
REMARK    6  A    between atoms: C_17  and  C_18
REMARK                            x       y       z     vdW  Elec       q    Type
REMARK                         _______ _______ _______ _____ _____    ______ ____
ROOT
ATOM      1  C   UNL     1      -0.746  13.613  20.380  0.00  0.00    +0.000 A 
ATOM      2  C   UNL     1      -2.044  13.533  19.903  0.00  0.00    +0.000 A 
ATOM      3  C   UNL     1      -2.559  12.299  19.555  0.00  0.00    +0.000 A 
ATOM      4  N   UNL     1      -1.825  11.192  19.730  0.00  0.00    +0.000 NA
ATOM      5  C   UNL     1      -0.582  11.313  20.220  0.00  0.00    +0.000 A 
ATOM      6  N   UNL     1      -0.017  12.491  20.556  0.00  0.00    +0.000 NA
ENDROOT
BRANCH   5   7
ATOM      7  C   UNL     1       0.197  10.089  20.477  0.00  0.00    +0.000 A 
ATOM      8  C   UNL     1       0.181   9.456  21.744  0.00  0.00    +0.000 A 
ATOM      9  C   UNL     1       0.886   8.279  22.000  0.00  0.00    +0.000 A 
ATOM     10  C   UNL     1       1.652   7.680  21.006  0.00  0.00    +0.000 A 
ATOM     11  C   UNL     1       1.692   8.304  19.756  0.00  0.00    +0.000 A 
ATOM     12  N   UNL     1       2.372   7.930  18.618  0.00  0.00    +0.000 N 
ATOM     13  C   UNL     1       2.156   8.833  17.616  0.00  0.00    +0.000 A 
ATOM     14  C   UNL     1       1.316   9.804  18.108  0.00  0.00    +0.000 A 
ATOM     15  C   UNL     1       0.995   9.485  19.465  0.00  0.00    +0.000 A 
ATOM     16  H   UNL     1       2.953   7.106  18.546  0.00  0.00    +0.000 HD
ENDBRANCH   5   7
BRANCH   3  17
ATOM     17  N   UNL     1      -3.782  12.170  18.931  0.00  0.00    +0.000 N 
ATOM     18  C   UNL     1      -5.015  12.263  19.734  0.00  0.00    +0.000 C 
ATOM     19  C   UNL     1      -6.149  12.799  18.851  0.00  0.00    +0.000 C 
ATOM     20  O   UNL     1      -6.346  11.969  17.697  0.00  0.00    +0.000 OA
ATOM     21  C   UNL     1      -5.140  11.909  16.910  0.00  0.00    +0.000 C 
ATOM     22  C   UNL     1      -3.958  11.324  17.723  0.00  0.00    +0.000 C 
ATOM     23  C   UNL     1      -2.740  11.166  16.821  0.00  0.00    +0.000 C 
ENDBRANCH   3  17
BRANCH   1  24
ATOM     24  C   UNL     1      -0.106  14.952  20.771  0.00  0.00    +0.000 C 
ATOM     25  C   UNL     1       1.419  14.954  20.507  0.00  0.00    +0.000 C 
ATOM     26  C   UNL     1       1.725  15.016  19.015  0.00  0.00    +0.000 C 
ATOM     27  O   UNL     1       1.132  16.171  18.426  0.00  0.00    +0.000 OA
ATOM     28  C   UNL     1      -0.286  16.178  18.549  0.00  0.00    +0.000 C 
ATOM     29  C   UNL     1      -0.696  16.173  20.017  0.00  0.00    +0.000 C 
BRANCH  24  31
ATOM     30  C   UNL     1       0.432  16.331  23.283  0.00  0.00    +0.000 C 
ATOM     31  S   UNL     1      -0.453  15.085  22.500  0.00  0.00    +0.000 S 
ATOM     32  O   UNL     1      -1.774  15.656  22.541  0.00  0.00    +0.000 OA
BRANCH  31  33
ATOM     33  N   UNL     1      -0.515  13.665  23.378  0.00  0.00    +0.000 NA
ATOM     34  H   UNL     1      -1.486  13.526  23.655  0.00  0.00    +0.000 HD
ATOM     35  H   UNL     1       0.001  13.766  24.246  0.00  0.00    +0.000 HD
ENDBRANCH  31  33
ENDBRANCH  24  31
ENDBRANCH   1  24
TORSDOF 5
ENDMDL
MODEL 9
REMARK VINA RESULT:      -6.3      9.192     11.756
REMARK  Name = 
REMARK  6 active torsions:
REMARK  status: ('A' for Active; 'I' for Inactive)
REMARK    1  A    between atoms: S_2  and  N_3
REMARK    2  A    between atoms: S_2  and  C_5
REMARK    3  A    between atoms: C_5  and  C_6
REMARK    4  A    between atoms: C_8  and  N_9
REMARK    5  A    between atoms: C_14  and  C_15
REMARK    6  A    between atoms: C_17  and  C_18
REMARK                            x       y       z     vdW  Elec       q    Type
REMARK                         _______ _______ _______ _____ _____    ______ ____
ROOT
ATOM      1  C   UNL     1       7.409  14.309  21.792  0.00  0.00    +0.000 A 
ATOM      2  C   UNL     1       6.173  14.680  21.289  0.00  0.00    +0.000 A 
ATOM      3  C   UNL     1       6.018  14.823  19.923  0.00  0.00    +0.000 A 
ATOM      4  N   UNL     1       7.039  14.552  19.099  0.00  0.00    +0.000 NA
ATOM      5  C   UNL     1       8.210  14.170  19.629  0.00  0.00    +0.000 A 
ATOM      6  N   UNL     1       8.430  14.035  20.953  0.00  0.00    +0.000 NA
ENDROOT
BRANCH   5   7
ATOM      7  C   UNL     1       9.310  13.804  18.719  0.00  0.00    +0.000 A 
ATOM      8  C   UNL     1       9.781  12.471  18.626  0.00  0.00    +0.000 A 
ATOM      9  C   UNL     1      10.799  12.098  17.749  0.00  0.00    +0.000 A 
ATOM     10  C   UNL     1      11.407  13.040  16.924  0.00  0.00    +0.000 A 
ATOM     11  C   UNL     1      10.965  14.363  17.019  0.00  0.00    +0.000 A 
ATOM     12  N   UNL     1      11.400  15.475  16.333  0.00  0.00    +0.000 N 
ATOM     13  C   UNL     1      10.713  16.584  16.742  0.00  0.00    +0.000 A 
ATOM     14  C   UNL     1       9.814  16.183  17.701  0.00  0.00    +0.000 A 
ATOM     15  C   UNL     1       9.944  14.771  17.889  0.00  0.00    +0.000 A 
ATOM     16  H   UNL     1      12.129  15.466  15.634  0.00  0.00    +0.000 HD
ENDBRANCH   5   7
BRANCH   3  17
ATOM     17  N   UNL     1       4.863  15.338  19.372  0.00  0.00    +0.000 N 
ATOM     18  C   UNL     1       4.139  14.557  18.352  0.00  0.00    +0.000 C 
ATOM     19  C   UNL     1       2.648  14.910  18.416  0.00  0.00    +0.000 C 
ATOM     20  O   UNL     1       2.439  16.318  18.232  0.00  0.00    +0.000 OA
ATOM     21  C   UNL     1       3.132  17.066  19.250  0.00  0.00    +0.000 C 
ATOM     22  C   UNL     1       4.658  16.801  19.213  0.00  0.00    +0.000 C 
ATOM     23  C   UNL     1       5.363  17.699  20.222  0.00  0.00    +0.000 C 
ENDBRANCH   3  17
BRANCH   1  24
ATOM     24  C   UNL     1       7.656  14.147  23.298  0.00  0.00    +0.000 C 
ATOM     25  C   UNL     1       8.979  14.821  23.736  0.00  0.00    +0.000 C 
ATOM     26  C   UNL     1       8.860  16.341  23.717  0.00  0.00    +0.000 C 
ATOM     27  O   UNL     1       7.796  16.775  24.561  0.00  0.00    +0.000 OA
ATOM     28  C   UNL     1       6.532  16.265  24.148  0.00  0.00    +0.000 C 
ATOM     29  C   UNL     1       6.531  14.741  24.186  0.00  0.00    +0.000 C 
BRANCH  24  31
ATOM     30  C   UNL     1       7.943  11.915  25.152  0.00  0.00    +0.000 C 
ATOM     31  S   UNL     1       7.733  12.394  23.517  0.00  0.00    +0.000 S 
ATOM     32  O   UNL     1       6.377  11.961  23.303  0.00  0.00    +0.000 OA
BRANCH  31  33
ATOM     33  N   UNL     1       8.686  11.532  22.448  0.00  0.00    +0.000 NA
ATOM     34  H   UNL     1       8.805  10.598  22.838  0.00  0.00    +0.000 HD
ATOM     35  H   UNL     1       9.619  11.929  22.410  0.00  0.00    +0.000 HD
ENDBRANCH  31  33
ENDBRANCH  24  31
ENDBRANCH   1  24
TORSDOF 5
ENDMDL
