MODEL 1
REMARK VINA RESULT:      -8.0      0.000      0.000
REMARK  Name = 
REMARK  8 active torsions:
REMARK  status: ('A' for Active; 'I' for Inactive)
REMARK    1  A    between atoms: C_2  and  C_3
REMARK    2  A    between atoms: C_3  and  O_4
REMARK    3  A    between atoms: O_4  and  C_5
REMARK    4  A    between atoms: C_5  and  C_7
REMARK    5  A    between atoms: C_7  and  N_8
REMARK    6  A    between atoms: N_8  and  S_9
REMARK    7  A    between atoms: S_9  and  C_12
REMARK    8  A    between atoms: N_21  and  C_22
REMARK                            x       y       z     vdW  Elec       q    Type
REMARK                         _______ _______ _______ _____ _____    ______ ____
ROOT
ATOM      1  N   UNL     1       5.374   5.588  18.625  0.00  0.00    +0.000 NA
ATOM      2  H   UNL     1       5.486   6.394  19.246  0.00  0.00    +0.000 HD
ENDROOT
BRANCH   1   3
ATOM      3  S   UNL     1       3.880   5.547  17.876  0.00  0.00    +0.000 S 
ATOM      4  O   UNL     1       3.401   6.912  17.871  0.00  0.00    +0.000 OA
ATOM      5  O   UNL     1       3.978   4.785  16.654  0.00  0.00    +0.000 OA
BRANCH   3   6
ATOM      6  C   UNL     1       2.909   4.658  19.047  0.00  0.00    +0.000 A 
ATOM      7  C   UNL     1       3.265   4.671  20.404  0.00  0.00    +0.000 A 
ATOM      8  C   UNL     1       2.496   3.954  21.322  0.00  0.00    +0.000 A 
ATOM      9  C   UNL     1       1.383   3.245  20.882  0.00  0.00    +0.000 A 
ATOM     10  F   UNL     1       0.661   2.545  21.766  0.00  0.00    +0.000 F 
ATOM     11  C   UNL     1       1.025   3.251  19.539  0.00  0.00    +0.000 A 
ATOM     12  F   UNL     1      -0.046   2.557  19.127  0.00  0.00    +0.000 F 
ATOM     13  C   UNL     1       1.783   3.963  18.620  0.00  0.00    +0.000 A 
ATOM     14  F   UNL     1       1.430   3.932  17.328  0.00  0.00    +0.000 F 
ENDBRANCH   3   6
ENDBRANCH   1   3
BRANCH   1  15
ATOM     15  C   UNL     1       6.550   5.221  17.817  0.00  0.00    +0.000 C 
BRANCH  15  16
ATOM     16  C   UNL     1       7.040   6.397  16.999  0.00  0.00    +0.000 C 
ATOM     17  O   UNL     1       6.935   7.577  17.311  0.00  0.00    +0.000 OA
BRANCH  16  18
ATOM     18  O   UNL     1       7.595   5.949  15.835  0.00  0.00    +0.000 OA
BRANCH  18  19
ATOM     19  C   UNL     1       7.098   4.683  15.413  0.00  0.00    +0.000 C 
BRANCH  19  21
ATOM     20  O   UNL     1       7.701   5.295  13.139  0.00  0.00    +0.000 OA
ATOM     21  C   UNL     1       7.026   4.585  13.883  0.00  0.00    +0.000 C 
ATOM     22  N   UNL     1       6.122   3.643  13.429  0.00  0.00    +0.000 N 
ATOM     23  H   UNL     1       5.593   3.094  14.095  0.00  0.00    +0.000 HD
BRANCH  22  24
ATOM     24  C   UNL     1       5.946   3.384  12.035  0.00  0.00    +0.000 C 
ATOM     25  C   UNL     1       5.559   2.008  11.570  0.00  0.00    +0.000 C 
ATOM     26  C   UNL     1       4.580   3.140  11.456  0.00  0.00    +0.000 C 
ENDBRANCH  22  24
ENDBRANCH  19  21
ENDBRANCH  18  19
ENDBRANCH  16  18
ENDBRANCH  15  16
ENDBRANCH   1  15
TORSDOF 8
ENDMDL
MODEL 2
REMARK VINA RESULT:      -7.7      1.037      1.065
REMARK  Name = 
REMARK  8 active torsions:
REMARK  status: ('A' for Active; 'I' for Inactive)
REMARK    1  A    between atoms: C_2  and  C_3
REMARK    2  A    between atoms: C_3  and  O_4
REMARK    3  A    between atoms: O_4  and  C_5
REMARK    4  A    between atoms: C_5  and  C_7
REMARK    5  A    between atoms: C_7  and  N_8
REMARK    6  A    between atoms: N_8  and  S_9
REMARK    7  A    between atoms: S_9  and  C_12
REMARK    8  A    between atoms: N_21  and  C_22
REMARK                            x       y       z     vdW  Elec       q    Type
REMARK                         _______ _______ _______ _____ _____    ______ ____
ROOT
ATOM      1  N   UNL     1       6.042   4.673  18.872  0.00  0.00    +0.000 NA
ATOM      2  H   UNL     1       6.081   5.272  19.701  0.00  0.00    +0.000 HD
ENDROOT
BRANCH   1   3
ATOM      3  S   UNL     1       4.555   4.716  18.110  0.00  0.00    +0.000 S 
ATOM      4  O   UNL     1       4.235   6.117  17.939  0.00  0.00    +0.000 OA
ATOM      5  O   UNL     1       4.566   3.810  16.986  0.00  0.00    +0.000 OA
BRANCH   3   6
ATOM      6  C   UNL     1       3.485   4.086  19.361  0.00  0.00    +0.000 A 
ATOM      7  C   UNL     1       3.950   3.104  20.248  0.00  0.00    +0.000 A 
ATOM      8  C   UNL     1       3.091   2.604  21.229  0.00  0.00    +0.000 A 
ATOM      9  C   UNL     1       1.791   3.091  21.319  0.00  0.00    +0.000 A 
ATOM     10  F   UNL     1       0.968   2.593  22.250  0.00  0.00    +0.000 F 
ATOM     11  C   UNL     1       1.343   4.077  20.448  0.00  0.00    +0.000 A 
ATOM     12  F   UNL     1       0.085   4.532  20.541  0.00  0.00    +0.000 F 
ATOM     13  C   UNL     1       2.191   4.582  19.472  0.00  0.00    +0.000 A 
ATOM     14  F   UNL     1       1.725   5.515  18.630  0.00  0.00    +0.000 F 
ENDBRANCH   3   6
ENDBRANCH   1   3
BRANCH   1  15
ATOM     15  C   UNL     1       7.243   4.663  18.019  0.00  0.00    +0.000 C 
BRANCH  15  16
ATOM     16  C   UNL     1       7.447   6.004  17.347  0.00  0.00    +0.000 C 
ATOM     17  O   UNL     1       7.394   7.096  17.901  0.00  0.00    +0.000 OA
BRANCH  16  18
ATOM     18  O   UNL     1       7.672   5.822  16.013  0.00  0.00    +0.000 OA
BRANCH  18  19
ATOM     19  C   UNL     1       7.205   4.570  15.519  0.00  0.00    +0.000 C 
BRANCH  19  21
ATOM     20  O   UNL     1       7.692   5.375  13.278  0.00  0.00    +0.000 OA
ATOM     21  C   UNL     1       7.088   4.573  13.989  0.00  0.00    +0.000 C 
ATOM     22  N   UNL     1       6.231   3.608  13.495  0.00  0.00    +0.000 N 
ATOM     23  H   UNL     1       5.760   2.981  14.135  0.00  0.00    +0.000 HD
BRANCH  22  24
ATOM     24  C   UNL     1       6.025   3.434  12.092  0.00  0.00    +0.000 C 
ATOM     25  C   UNL     1       5.727   2.069  11.540  0.00  0.00    +0.000 C 
ATOM     26  C   UNL     1       4.662   3.126  11.538  0.00  0.00    +0.000 C 
ENDBRANCH  22  24
ENDBRANCH  19  21
ENDBRANCH  18  19
ENDBRANCH  16  18
ENDBRANCH  15  16
ENDBRANCH   1  15
TORSDOF 8
ENDMDL
MODEL 3
REMARK VINA RESULT:      -7.4      3.126      3.643
REMARK  Name = 
REMARK  8 active torsions:
REMARK  status: ('A' for Active; 'I' for Inactive)
REMARK    1  A    between atoms: C_2  and  C_3
REMARK    2  A    between atoms: C_3  and  O_4
REMARK    3  A    between atoms: O_4  and  C_5
REMARK    4  A    between atoms: C_5  and  C_7
REMARK    5  A    between atoms: C_7  and  N_8
REMARK    6  A    between atoms: N_8  and  S_9
REMARK    7  A    between atoms: S_9  and  C_12
REMARK    8  A    between atoms: N_21  and  C_22
REMARK                            x       y       z     vdW  Elec       q    Type
REMARK                         _______ _______ _______ _____ _____    ______ ____
ROOT
ATOM      1  N   UNL     1       4.490   6.338  17.190  0.00  0.00    +0.000 NA
ATOM      2  H   UNL     1       4.510   5.656  16.427  0.00  0.00    +0.000 HD
ENDROOT
BRANCH   1   3
ATOM      3  S   UNL     1       3.531   5.854  18.470  0.00  0.00    +0.000 S 
ATOM      4  O   UNL     1       2.629   4.856  17.937  0.00  0.00    +0.000 OA
ATOM      5  O   UNL     1       4.365   5.571  19.614  0.00  0.00    +0.000 OA
BRANCH   3   6
ATOM      6  C   UNL     1       2.578   7.303  18.782  0.00  0.00    +0.000 A 
ATOM      7  C   UNL     1       2.495   8.308  17.807  0.00  0.00    +0.000 A 
ATOM      8  C   UNL     1       1.747   9.457  18.068  0.00  0.00    +0.000 A 
ATOM      9  C   UNL     1       1.088   9.587  19.286  0.00  0.00    +0.000 A 
ATOM     10  F   UNL     1       0.388  10.701  19.536  0.00  0.00    +0.000 F 
ATOM     11  C   UNL     1       1.159   8.580  20.241  0.00  0.00    +0.000 A 
ATOM     12  F   UNL     1       0.526   8.721  21.414  0.00  0.00    +0.000 F 
ATOM     13  C   UNL     1       1.899   7.432  19.988  0.00  0.00    +0.000 A 
ATOM     14  F   UNL     1       1.971   6.488  20.936  0.00  0.00    +0.000 F 
ENDBRANCH   3   6
ENDBRANCH   1   3
BRANCH   1  15
ATOM     15  C   UNL     1       5.770   6.995  17.510  0.00  0.00    +0.000 C 
BRANCH  15  16
ATOM     16  C   UNL     1       6.924   6.020  17.405  0.00  0.00    +0.000 C 
ATOM     17  O   UNL     1       7.473   5.459  18.346  0.00  0.00    +0.000 OA
BRANCH  16  18
ATOM     18  O   UNL     1       7.290   5.879  16.098  0.00  0.00    +0.000 OA
BRANCH  18  19
ATOM     19  C   UNL     1       7.056   4.575  15.574  0.00  0.00    +0.000 C 
BRANCH  19  21
ATOM     20  O   UNL     1       7.518   5.441  13.350  0.00  0.00    +0.000 OA
ATOM     21  C   UNL     1       6.963   4.588  14.042  0.00  0.00    +0.000 C 
ATOM     22  N   UNL     1       6.184   3.571  13.524  0.00  0.00    +0.000 N 
ATOM     23  H   UNL     1       5.749   2.904  14.149  0.00  0.00    +0.000 HD
BRANCH  22  24
ATOM     24  C   UNL     1       6.012   3.400  12.116  0.00  0.00    +0.000 C 
ATOM     25  C   UNL     1       5.695   2.042  11.558  0.00  0.00    +0.000 C 
ATOM     26  C   UNL     1       4.658   3.126  11.525  0.00  0.00    +0.000 C 
ENDBRANCH  22  24
ENDBRANCH  19  21
ENDBRANCH  18  19
ENDBRANCH  16  18
ENDBRANCH  15  16
ENDBRANCH   1  15
TORSDOF 8
ENDMDL
MODEL 4
REMARK VINA RESULT:      -7.3      1.390      1.844
REMARK  Name = 
REMARK  8 active torsions:
REMARK  status: ('A' for Active; 'I' for Inactive)
REMARK    1  A    between atoms: C_2  and  C_3
REMARK    2  A    between atoms: C_3  and  O_4
REMARK    3  A    between atoms: O_4  and  C_5
REMARK    4  A    between atoms: C_5  and  C_7
REMARK    5  A    between atoms: C_7  and  N_8
REMARK    6  A    between atoms: N_8  and  S_9
REMARK    7  A    between atoms: S_9  and  C_12
REMARK    8  A    between atoms: N_21  and  C_22
REMARK                            x       y       z     vdW  Elec       q    Type
REMARK                         _______ _______ _______ _____ _____    ______ ____
ROOT
ATOM      1  N   UNL     1       5.992   4.327  17.779  0.00  0.00    +0.000 NA
ATOM      2  H   UNL     1       5.830   3.329  17.942  0.00  0.00    +0.000 HD
ENDROOT
BRANCH   1   3
ATOM      3  S   UNL     1       4.822   5.297  18.476  0.00  0.00    +0.000 S 
ATOM      4  O   UNL     1       5.255   5.526  19.837  0.00  0.00    +0.000 OA
ATOM      5  O   UNL     1       4.523   6.398  17.591  0.00  0.00    +0.000 OA
BRANCH   3   6
ATOM      6  C   UNL     1       3.439   4.207  18.546  0.00  0.00    +0.000 A 
ATOM      7  C   UNL     1       3.431   3.037  17.773  0.00  0.00    +0.000 A 
ATOM      8  C   UNL     1       2.326   2.186  17.827  0.00  0.00    +0.000 A 
ATOM      9  C   UNL     1       1.252   2.504  18.653  0.00  0.00    +0.000 A 
ATOM     10  F   UNL     1       0.188   1.692  18.685  0.00  0.00    +0.000 F 
ATOM     11  C   UNL     1       1.274   3.655  19.431  0.00  0.00    +0.000 A 
ATOM     12  F   UNL     1       0.229   3.954  20.216  0.00  0.00    +0.000 F 
ATOM     13  C   UNL     1       2.371   4.506  19.384  0.00  0.00    +0.000 A 
ATOM     14  F   UNL     1       2.355   5.622  20.126  0.00  0.00    +0.000 F 
ENDBRANCH   3   6
ENDBRANCH   1   3
BRANCH   1  15
ATOM     15  C   UNL     1       7.391   4.782  17.862  0.00  0.00    +0.000 C 
BRANCH  15  16
ATOM     16  C   UNL     1       7.562   6.140  17.214  0.00  0.00    +0.000 C 
ATOM     17  O   UNL     1       7.671   7.206  17.808  0.00  0.00    +0.000 OA
BRANCH  16  18
ATOM     18  O   UNL     1       7.548   6.007  15.856  0.00  0.00    +0.000 OA
BRANCH  18  19
ATOM     19  C   UNL     1       7.111   4.726  15.410  0.00  0.00    +0.000 C 
BRANCH  19  21
ATOM     20  O   UNL     1       7.658   5.453  13.156  0.00  0.00    +0.000 OA
ATOM     21  C   UNL     1       7.084   4.639  13.878  0.00  0.00    +0.000 C 
ATOM     22  N   UNL     1       6.340   3.579  13.394  0.00  0.00    +0.000 N 
ATOM     23  H   UNL     1       5.887   2.948  14.043  0.00  0.00    +0.000 HD
BRANCH  22  24
ATOM     24  C   UNL     1       6.233   3.315  11.995  0.00  0.00    +0.000 C 
ATOM     25  C   UNL     1       7.028   2.200  11.377  0.00  0.00    +0.000 C 
ATOM     26  C   UNL     1       5.536   2.084  11.487  0.00  0.00    +0.000 C 
ENDBRANCH  22  24
ENDBRANCH  19  21
ENDBRANCH  18  19
ENDBRANCH  16  18
ENDBRANCH  15  16
ENDBRANCH   1  15
TORSDOF 8
ENDMDL
MODEL 5
REMARK VINA RESULT:      -7.3      1.046      1.143
REMARK  Name = 
REMARK  8 active torsions:
REMARK  status: ('A' for Active; 'I' for Inactive)
REMARK    1  A    between atoms: C_2  and  C_3
REMARK    2  A    between atoms: C_3  and  O_4
REMARK    3  A    between atoms: O_4  and  C_5
REMARK    4  A    between atoms: C_5  and  C_7
REMARK    5  A    between atoms: C_7  and  N_8
REMARK    6  A    between atoms: N_8  and  S_9
REMARK    7  A    between atoms: S_9  and  C_12
REMARK    8  A    between atoms: N_21  and  C_22
REMARK                            x       y       z     vdW  Elec       q    Type
REMARK                         _______ _______ _______ _____ _____    ______ ____
ROOT
ATOM      1  N   UNL     1       5.076   6.025  18.538  0.00  0.00    +0.000 NA
ATOM      2  H   UNL     1       5.423   6.952  18.278  0.00  0.00    +0.000 HD
ENDROOT
BRANCH   1   3
ATOM      3  S   UNL     1       3.609   5.658  17.824  0.00  0.00    +0.000 S 
ATOM      4  O   UNL     1       2.878   6.904  17.755  0.00  0.00    +0.000 OA
ATOM      5  O   UNL     1       3.838   4.859  16.643  0.00  0.00    +0.000 OA
BRANCH   3   6
ATOM      6  C   UNL     1       2.838   4.669  19.062  0.00  0.00    +0.000 A 
ATOM      7  C   UNL     1       2.717   5.157  20.371  0.00  0.00    +0.000 A 
ATOM      8  C   UNL     1       2.114   4.362  21.348  0.00  0.00    +0.000 A 
ATOM      9  C   UNL     1       1.634   3.101  21.007  0.00  0.00    +0.000 A 
ATOM     10  F   UNL     1       1.074   2.336  21.953  0.00  0.00    +0.000 F 
ATOM     11  C   UNL     1       1.740   2.631  19.704  0.00  0.00    +0.000 A 
ATOM     12  F   UNL     1       1.280   1.411  19.391  0.00  0.00    +0.000 F 
ATOM     13  C   UNL     1       2.336   3.417  18.727  0.00  0.00    +0.000 A 
ATOM     14  F   UNL     1       2.447   2.929  17.484  0.00  0.00    +0.000 F 
ENDBRANCH   3   6
ENDBRANCH   1   3
BRANCH   1  15
ATOM     15  C   UNL     1       6.081   4.951  18.617  0.00  0.00    +0.000 C 
BRANCH  15  16
ATOM     16  C   UNL     1       7.467   5.477  18.309  0.00  0.00    +0.000 C 
ATOM     17  O   UNL     1       8.066   6.330  18.952  0.00  0.00    +0.000 OA
BRANCH  16  18
ATOM     18  O   UNL     1       7.947   4.877  17.180  0.00  0.00    +0.000 OA
BRANCH  18  19
ATOM     19  C   UNL     1       6.962   4.141  16.460  0.00  0.00    +0.000 C 
BRANCH  19  21
ATOM     20  O   UNL     1       7.546   5.504  14.533  0.00  0.00    +0.000 OA
ATOM     21  C   UNL     1       6.943   4.526  14.974  0.00  0.00    +0.000 C 
ATOM     22  N   UNL     1       6.172   3.687  14.192  0.00  0.00    +0.000 N 
ATOM     23  H   UNL     1       5.695   2.902  14.619  0.00  0.00    +0.000 HD
BRANCH  22  24
ATOM     24  C   UNL     1       6.065   3.866  12.779  0.00  0.00    +0.000 C 
ATOM     25  C   UNL     1       6.971   3.102  11.855  0.00  0.00    +0.000 C 
ATOM     26  C   UNL     1       5.505   2.784  11.898  0.00  0.00    +0.000 C 
ENDBRANCH  22  24
ENDBRANCH  19  21
ENDBRANCH  18  19
ENDBRANCH  16  18
ENDBRANCH  15  16
ENDBRANCH   1  15
TORSDOF 8
ENDMDL
MODEL 6
REMARK VINA RESULT:      -7.2      2.375      3.129
REMARK  Name = 
REMARK  8 active torsions:
REMARK  status: ('A' for Active; 'I' for Inactive)
REMARK    1  A    between atoms: C_2  and  C_3
REMARK    2  A    between atoms: C_3  and  O_4
REMARK    3  A    between atoms: O_4  and  C_5
REMARK    4  A    between atoms: C_5  and  C_7
REMARK    5  A    between atoms: C_7  and  N_8
REMARK    6  A    between atoms: N_8  and  S_9
REMARK    7  A    between atoms: S_9  and  C_12
REMARK    8  A    between atoms: N_21  and  C_22
REMARK                            x       y       z     vdW  Elec       q    Type
REMARK                         _______ _______ _______ _____ _____    ______ ____
ROOT
ATOM      1  N   UNL     1       5.720   3.689  19.020  0.00  0.00    +0.000 NA
ATOM      2  H   UNL     1       6.195   3.755  19.924  0.00  0.00    +0.000 HD
ENDROOT
BRANCH   1   3
ATOM      3  S   UNL     1       4.084   3.381  19.167  0.00  0.00    +0.000 S 
ATOM      4  O   UNL     1       3.696   2.701  17.950  0.00  0.00    +0.000 OA
ATOM      5  O   UNL     1       3.820   2.801  20.462  0.00  0.00    +0.000 OA
BRANCH   3   6
ATOM      6  C   UNL     1       3.400   5.003  19.098  0.00  0.00    +0.000 A 
ATOM      7  C   UNL     1       3.565   5.783  17.945  0.00  0.00    +0.000 A 
ATOM      8  C   UNL     1       3.029   7.072  17.904  0.00  0.00    +0.000 A 
ATOM      9  C   UNL     1       2.330   7.561  19.004  0.00  0.00    +0.000 A 
ATOM     10  F   UNL     1       1.835   8.804  18.965  0.00  0.00    +0.000 F 
ATOM     11  C   UNL     1       2.154   6.776  20.137  0.00  0.00    +0.000 A 
ATOM     12  F   UNL     1       1.486   7.262  21.193  0.00  0.00    +0.000 F 
ATOM     13  C   UNL     1       2.683   5.493  20.184  0.00  0.00    +0.000 A 
ATOM     14  F   UNL     1       2.519   4.767  21.298  0.00  0.00    +0.000 F 
ENDBRANCH   3   6
ENDBRANCH   1   3
BRANCH   1  15
ATOM     15  C   UNL     1       6.140   4.657  17.992  0.00  0.00    +0.000 C 
BRANCH  15  16
ATOM     16  C   UNL     1       7.633   4.584  17.749  0.00  0.00    +0.000 C 
ATOM     17  O   UNL     1       8.496   4.536  18.618  0.00  0.00    +0.000 OA
BRANCH  16  18
ATOM     18  O   UNL     1       7.884   4.609  16.408  0.00  0.00    +0.000 OA
BRANCH  18  19
ATOM     19  C   UNL     1       6.810   5.136  15.634  0.00  0.00    +0.000 C 
BRANCH  19  21
ATOM     20  O   UNL     1       7.895   5.399  13.475  0.00  0.00    +0.000 OA
ATOM     21  C   UNL     1       7.005   4.865  14.136  0.00  0.00    +0.000 C 
ATOM     22  N   UNL     1       6.080   3.987  13.604  0.00  0.00    +0.000 N 
ATOM     23  H   UNL     1       5.368   3.586  14.202  0.00  0.00    +0.000 HD
BRANCH  22  24
ATOM     24  C   UNL     1       6.127   3.586  12.234  0.00  0.00    +0.000 C 
ATOM     25  C   UNL     1       5.880   2.151  11.863  0.00  0.00    +0.000 C 
ATOM     26  C   UNL     1       4.877   3.204  11.492  0.00  0.00    +0.000 C 
ENDBRANCH  22  24
ENDBRANCH  19  21
ENDBRANCH  18  19
ENDBRANCH  16  18
ENDBRANCH  15  16
ENDBRANCH   1  15
TORSDOF 8
ENDMDL
MODEL 7
REMARK VINA RESULT:      -7.2      2.050      2.861
REMARK  Name = 
REMARK  8 active torsions:
REMARK  status: ('A' for Active; 'I' for Inactive)
REMARK    1  A    between atoms: C_2  and  C_3
REMARK    2  A    between atoms: C_3  and  O_4
REMARK    3  A    between atoms: O_4  and  C_5
REMARK    4  A    between atoms: C_5  and  C_7
REMARK    5  A    between atoms: C_7  and  N_8
REMARK    6  A    between atoms: N_8  and  S_9
REMARK    7  A    between atoms: S_9  and  C_12
REMARK    8  A    between atoms: N_21  and  C_22
REMARK                            x       y       z     vdW  Elec       q    Type
REMARK                         _______ _______ _______ _____ _____    ______ ____
ROOT
ATOM      1  N   UNL     1       5.605   4.079  16.546  0.00  0.00    +0.000 NA
ATOM      2  H   UNL     1       5.356   3.109  16.756  0.00  0.00    +0.000 HD
ENDROOT
BRANCH   1   3
ATOM      3  S   UNL     1       4.949   5.168  17.632  0.00  0.00    +0.000 S 
ATOM      4  O   UNL     1       5.857   5.203  18.758  0.00  0.00    +0.000 OA
ATOM      5  O   UNL     1       4.577   6.376  16.934  0.00  0.00    +0.000 OA
BRANCH   3   6
ATOM      6  C   UNL     1       3.495   4.324  18.161  0.00  0.00    +0.000 A 
ATOM      7  C   UNL     1       3.141   3.103  17.569  0.00  0.00    +0.000 A 
ATOM      8  C   UNL     1       1.981   2.448  17.987  0.00  0.00    +0.000 A 
ATOM      9  C   UNL     1       1.198   3.010  18.991  0.00  0.00    +0.000 A 
ATOM     10  F   UNL     1       0.077   2.385  19.373  0.00  0.00    +0.000 F 
ATOM     11  C   UNL     1       1.564   4.211  19.586  0.00  0.00    +0.000 A 
ATOM     12  F   UNL     1       0.796   4.745  20.546  0.00  0.00    +0.000 F 
ATOM     13  C   UNL     1       2.717   4.867  19.177  0.00  0.00    +0.000 A 
ATOM     14  F   UNL     1       3.034   6.036  19.751  0.00  0.00    +0.000 F 
ENDBRANCH   3   6
ENDBRANCH   1   3
BRANCH   1  15
ATOM     15  C   UNL     1       6.990   4.313  16.101  0.00  0.00    +0.000 C 
BRANCH  15  16
ATOM     16  C   UNL     1       7.036   4.692  14.636  0.00  0.00    +0.000 C 
ATOM     17  O   UNL     1       7.729   5.577  14.148  0.00  0.00    +0.000 OA
BRANCH  16  18
ATOM     18  O   UNL     1       6.160   3.917  13.933  0.00  0.00    +0.000 OA
BRANCH  18  19
ATOM     19  C   UNL     1       6.568   3.661  12.592  0.00  0.00    +0.000 C 
BRANCH  19  21
ATOM     20  O   UNL     1       5.419   1.814  11.508  0.00  0.00    +0.000 OA
ATOM     21  C   UNL     1       5.444   3.016  11.771  0.00  0.00    +0.000 C 
ATOM     22  N   UNL     1       4.483   3.912  11.343  0.00  0.00    +0.000 N 
ATOM     23  H   UNL     1       4.565   4.891  11.589  0.00  0.00    +0.000 HD
BRANCH  22  24
ATOM     24  C   UNL     1       3.340   3.488  10.599  0.00  0.00    +0.000 C 
ATOM     25  C   UNL     1       2.572   4.480   9.771  0.00  0.00    +0.000 C 
ATOM     26  C   UNL     1       3.376   3.405   9.098  0.00  0.00    +0.000 C 
ENDBRANCH  22  24
ENDBRANCH  19  21
ENDBRANCH  18  19
ENDBRANCH  16  18
ENDBRANCH  15  16
ENDBRANCH   1  15
TORSDOF 8
ENDMDL
MODEL 8
REMARK VINA RESULT:      -7.2      1.260      1.595
REMARK  Name = 
REMARK  8 active torsions:
REMARK  status: ('A' for Active; 'I' for Inactive)
REMARK    1  A    between atoms: C_2  and  C_3
REMARK    2  A    between atoms: C_3  and  O_4
REMARK    3  A    between atoms: O_4  and  C_5
REMARK    4  A    between atoms: C_5  and  C_7
REMARK    5  A    between atoms: C_7  and  N_8
REMARK    6  A    between atoms: N_8  and  S_9
REMARK    7  A    between atoms: S_9  and  C_12
REMARK    8  A    between atoms: N_21  and  C_22
REMARK                            x       y       z     vdW  Elec       q    Type
REMARK                         _______ _______ _______ _____ _____    ______ ____
ROOT
ATOM      1  N   UNL     1       5.419   5.872  18.651  0.00  0.00    +0.000 NA
ATOM      2  H   UNL     1       5.683   6.542  19.378  0.00  0.00    +0.000 HD
ENDROOT
BRANCH   1   3
ATOM      3  S   UNL     1       4.026   6.312  17.837  0.00  0.00    +0.000 S 
ATOM      4  O   UNL     1       3.496   7.456  18.546  0.00  0.00    +0.000 OA
ATOM      5  O   UNL     1       4.298   6.372  16.420  0.00  0.00    +0.000 OA
BRANCH   3   6
ATOM      6  C   UNL     1       2.961   4.950  18.174  0.00  0.00    +0.000 A 
ATOM      7  C   UNL     1       1.969   5.066  19.159  0.00  0.00    +0.000 A 
ATOM      8  C   UNL     1       1.137   3.977  19.427  0.00  0.00    +0.000 A 
ATOM      9  C   UNL     1       1.296   2.797  18.708  0.00  0.00    +0.000 A 
ATOM     10  F   UNL     1       0.506   1.751  18.983  0.00  0.00    +0.000 F 
ATOM     11  C   UNL     1       2.268   2.694  17.720  0.00  0.00    +0.000 A 
ATOM     12  F   UNL     1       2.416   1.548  17.041  0.00  0.00    +0.000 F 
ATOM     13  C   UNL     1       3.098   3.773  17.447  0.00  0.00    +0.000 A 
ATOM     14  F   UNL     1       4.044   3.639  16.507  0.00  0.00    +0.000 F 
ENDBRANCH   3   6
ENDBRANCH   1   3
BRANCH   1  15
ATOM     15  C   UNL     1       6.522   5.308  17.854  0.00  0.00    +0.000 C 
BRANCH  15  16
ATOM     16  C   UNL     1       7.354   6.403  17.221  0.00  0.00    +0.000 C 
ATOM     17  O   UNL     1       7.689   7.449  17.763  0.00  0.00    +0.000 OA
BRANCH  16  18
ATOM     18  O   UNL     1       7.655   6.066  15.933  0.00  0.00    +0.000 OA
BRANCH  18  19
ATOM     19  C   UNL     1       7.115   4.812  15.527  0.00  0.00    +0.000 C 
BRANCH  19  21
ATOM     20  O   UNL     1       7.680   5.437  13.247  0.00  0.00    +0.000 OA
ATOM     21  C   UNL     1       7.055   4.689  13.999  0.00  0.00    +0.000 C 
ATOM     22  N   UNL     1       6.222   3.680  13.554  0.00  0.00    +0.000 N 
ATOM     23  H   UNL     1       5.731   3.103  14.226  0.00  0.00    +0.000 HD
BRANCH  22  24
ATOM     24  C   UNL     1       6.069   3.391  12.163  0.00  0.00    +0.000 C 
ATOM     25  C   UNL     1       7.111   2.579  11.447  0.00  0.00    +0.000 C 
ATOM     26  C   UNL     1       5.747   2.002  11.689  0.00  0.00    +0.000 C 
ENDBRANCH  22  24
ENDBRANCH  19  21
ENDBRANCH  18  19
ENDBRANCH  16  18
ENDBRANCH  15  16
ENDBRANCH   1  15
TORSDOF 8
ENDMDL
MODEL 9
REMARK VINA RESULT:      -7.1      4.049      5.791
REMARK  Name = 
REMARK  8 active torsions:
REMARK  status: ('A' for Active; 'I' for Inactive)
REMARK    1  A    between atoms: C_2  and  C_3
REMARK    2  A    between atoms: C_3  and  O_4
REMARK    3  A    between atoms: O_4  and  C_5
REMARK    4  A    between atoms: C_5  and  C_7
REMARK    5  A    between atoms: C_7  and  N_8
REMARK    6  A    between atoms: N_8  and  S_9
REMARK    7  A    between atoms: S_9  and  C_12
REMARK    8  A    between atoms: N_21  and  C_22
REMARK                            x       y       z     vdW  Elec       q    Type
REMARK                         _______ _______ _______ _____ _____    ______ ____
ROOT
ATOM      1  N   UNL     1       2.341   5.322  20.682  0.00  0.00    +0.000 NA
ATOM      2  H   UNL     1       3.169   4.967  21.166  0.00  0.00    +0.000 HD
ENDROOT
BRANCH   1   3
ATOM      3  S   UNL     1       2.718   6.197  19.308  0.00  0.00    +0.000 S 
ATOM      4  O   UNL     1       4.147   6.420  19.358  0.00  0.00    +0.000 OA
ATOM      5  O   UNL     1       2.099   5.577  18.160  0.00  0.00    +0.000 OA
BRANCH   3   6
ATOM      6  C   UNL     1       1.937   7.742  19.634  0.00  0.00    +0.000 A 
ATOM      7  C   UNL     1       1.361   7.983  20.889  0.00  0.00    +0.000 A 
ATOM      8  C   UNL     1       0.734   9.207  21.134  0.00  0.00    +0.000 A 
ATOM      9  C   UNL     1       0.698  10.173  20.134  0.00  0.00    +0.000 A 
ATOM     10  F   UNL     1       0.080  11.337  20.370  0.00  0.00    +0.000 F 
ATOM     11  C   UNL     1       1.288   9.936  18.898  0.00  0.00    +0.000 A 
ATOM     12  F   UNL     1       1.239  10.872  17.940  0.00  0.00    +0.000 F 
ATOM     13  C   UNL     1       1.914   8.722  18.647  0.00  0.00    +0.000 A 
ATOM     14  F   UNL     1       2.453   8.510  17.439  0.00  0.00    +0.000 F 
ENDBRANCH   3   6
ENDBRANCH   1   3
BRANCH   1  15
ATOM     15  C   UNL     1       1.187   4.409  20.610  0.00  0.00    +0.000 C 
BRANCH  15  16
ATOM     16  C   UNL     1       1.637   2.965  20.536  0.00  0.00    +0.000 C 
ATOM     17  O   UNL     1       1.718   2.192  21.483  0.00  0.00    +0.000 OA
BRANCH  16  18
ATOM     18  O   UNL     1       1.971   2.653  19.250  0.00  0.00    +0.000 OA
BRANCH  18  19
ATOM     19  C   UNL     1       3.203   1.947  19.132  0.00  0.00    +0.000 C 
BRANCH  19  21
ATOM     20  O   UNL     1       5.201   3.260  19.568  0.00  0.00    +0.000 OA
ATOM     21  C   UNL     1       4.358   2.884  18.755  0.00  0.00    +0.000 C 
ATOM     22  N   UNL     1       4.346   3.277  17.430  0.00  0.00    +0.000 N 
ATOM     23  H   UNL     1       3.619   2.935  16.813  0.00  0.00    +0.000 HD
BRANCH  22  24
ATOM     24  C   UNL     1       5.365   4.117  16.887  0.00  0.00    +0.000 C 
ATOM     25  C   UNL     1       5.551   4.206  15.398  0.00  0.00    +0.000 C 
ATOM     26  C   UNL     1       5.020   5.386  16.158  0.00  0.00    +0.000 C 
ENDBRANCH  22  24
ENDBRANCH  19  21
ENDBRANCH  18  19
ENDBRANCH  16  18
ENDBRANCH  15  16
ENDBRANCH   1  15
TORSDOF 8
ENDMDL
