MODEL 1
REMARK VINA RESULT:      -9.4      0.000      0.000
REMARK  Name = 
REMARK  5 active torsions:
REMARK  status: ('A' for Active; 'I' for Inactive)
REMARK    1  A    between atoms: S_2  and  C_4
REMARK    2  A    between atoms: S_2  and  N_26
REMARK    3  A    between atoms: C_8  and  C_9
REMARK    4  A    between atoms: C_16  and  C_17
REMARK    5  A    between atoms: C_29  and  O_30
REMARK                            x       y       z     vdW  Elec       q    Type
REMARK                         _______ _______ _______ _____ _____    ______ ____
ROOT
ATOM      1  C   UNL     1       1.398   9.875  20.084  0.00  0.00    +0.000 A 
ATOM      2  C   UNL     1       1.620  10.395  18.806  0.00  0.00    +0.000 A 
ATOM      3  C   UNL     1       2.125   9.562  17.808  0.00  0.00    +0.000 A 
ATOM      4  C   UNL     1       2.353   8.208  18.074  0.00  0.00    +0.000 A 
ATOM      5  C   UNL     1       2.092   7.650  19.340  0.00  0.00    +0.000 A 
ATOM      6  C   UNL     1       1.637   8.519  20.349  0.00  0.00    +0.000 A 
ENDROOT
BRANCH   5   7
ATOM      7  C   UNL     1       2.151   6.189  19.552  0.00  0.00    +0.000 A 
ATOM      8  C   UNL     1       1.229   5.476  20.297  0.00  0.00    +0.000 A 
ATOM      9  C   UNL     1       1.301   4.083  20.289  0.00  0.00    +0.000 A 
ATOM     10  C   UNL     1       2.257   3.415  19.544  0.00  0.00    +0.000 A 
ATOM     11  N   UNL     1       2.241   2.071  19.555  0.00  0.00    +0.000 NA
ATOM     12  C   UNL     1       3.150   1.438  18.797  0.00  0.00    +0.000 A 
ATOM     13  C   UNL     1       4.086   2.097  18.023  0.00  0.00    +0.000 A 
ATOM     14  C   UNL     1       4.121   3.505  18.019  0.00  0.00    +0.000 A 
ATOM     15  C   UNL     1       3.175   4.198  18.811  0.00  0.00    +0.000 A 
ATOM     16  N   UNL     1       3.124   5.554  18.857  0.00  0.00    +0.000 NA
BRANCH  14  17
ATOM     17  C   UNL     1       5.138   4.208  17.174  0.00  0.00    +0.000 A 
ATOM     18  C   UNL     1       6.302   4.774  17.715  0.00  0.00    +0.000 A 
ATOM     19  C   UNL     1       7.230   5.387  16.883  0.00  0.00    +0.000 A 
ATOM     20  N   UNL     1       7.075   5.514  15.552  0.00  0.00    +0.000 NA
ATOM     21  C   UNL     1       5.946   4.994  15.035  0.00  0.00    +0.000 A 
ATOM     22  C   UNL     1       4.976   4.341  15.785  0.00  0.00    +0.000 A 
ENDBRANCH  14  17
ENDBRANCH   5   7
BRANCH   1  24
ATOM     23  O   UNL     1       0.491  10.082  22.529  0.00  0.00    +0.000 OA
ATOM     24  S   UNL     1       0.503  10.832  21.292  0.00  0.00    +0.000 S 
ATOM     25  O   UNL     1       1.035  12.174  21.247  0.00  0.00    +0.000 OA
BRANCH  24  26
ATOM     26  N   UNL     1      -1.113  10.902  20.710  0.00  0.00    +0.000 NA
ATOM     27  C   UNL     1      -1.866  12.152  21.046  0.00  0.00    +0.000 C 
ATOM     28  C   UNL     1      -1.881  13.018  19.782  0.00  0.00    +0.000 C 
ATOM     29  C   UNL     1      -1.073  12.254  18.744  0.00  0.00    +0.000 C 
ATOM     30  C   UNL     1      -1.182  10.810  19.218  0.00  0.00    +0.000 C 
BRANCH  29  31
ATOM     31  O   UNL     1      -1.576  12.455  17.433  0.00  0.00    +0.000 OA
ATOM     32  H   UNL     1      -1.140  11.833  16.827  0.00  0.00    +0.000 HD
ENDBRANCH  29  31
ENDBRANCH  24  26
ENDBRANCH   1  24
TORSDOF 5
ENDMDL
MODEL 2
REMARK VINA RESULT:      -9.3      1.366      1.558
REMARK  Name = 
REMARK  5 active torsions:
REMARK  status: ('A' for Active; 'I' for Inactive)
REMARK    1  A    between atoms: S_2  and  C_4
REMARK    2  A    between atoms: S_2  and  N_26
REMARK    3  A    between atoms: C_8  and  C_9
REMARK    4  A    between atoms: C_16  and  C_17
REMARK    5  A    between atoms: C_29  and  O_30
REMARK                            x       y       z     vdW  Elec       q    Type
REMARK                         _______ _______ _______ _____ _____    ______ ____
ROOT
ATOM      1  C   UNL     1       0.967  10.287  19.855  0.00  0.00    +0.000 A 
ATOM      2  C   UNL     1       1.151  10.623  18.512  0.00  0.00    +0.000 A 
ATOM      3  C   UNL     1       1.785   9.718  17.661  0.00  0.00    +0.000 A 
ATOM      4  C   UNL     1       2.183   8.466  18.141  0.00  0.00    +0.000 A 
ATOM      5  C   UNL     1       1.966   8.086  19.479  0.00  0.00    +0.000 A 
ATOM      6  C   UNL     1       1.377   9.034  20.335  0.00  0.00    +0.000 A 
ENDROOT
BRANCH   5   7
ATOM      7  C   UNL     1       2.212   6.697  19.922  0.00  0.00    +0.000 A 
ATOM      8  C   UNL     1       1.360   5.984  20.744  0.00  0.00    +0.000 A 
ATOM      9  C   UNL     1       1.620   4.631  20.960  0.00  0.00    +0.000 A 
ATOM     10  C   UNL     1       2.694   3.998  20.359  0.00  0.00    +0.000 A 
ATOM     11  N   UNL     1       2.861   2.684  20.582  0.00  0.00    +0.000 NA
ATOM     12  C   UNL     1       3.884   2.077  19.961  0.00  0.00    +0.000 A 
ATOM     13  C   UNL     1       4.759   2.736  19.119  0.00  0.00    +0.000 A 
ATOM     14  C   UNL     1       4.604   4.118  18.892  0.00  0.00    +0.000 A 
ATOM     15  C   UNL     1       3.533   4.782  19.536  0.00  0.00    +0.000 A 
ATOM     16  N   UNL     1       3.297   6.108  19.365  0.00  0.00    +0.000 NA
BRANCH  14  17
ATOM     17  C   UNL     1       5.557   4.819  17.976  0.00  0.00    +0.000 A 
ATOM     18  C   UNL     1       6.553   5.686  18.449  0.00  0.00    +0.000 A 
ATOM     19  C   UNL     1       7.434   6.287  17.559  0.00  0.00    +0.000 A 
ATOM     20  N   UNL     1       7.380   6.122  16.224  0.00  0.00    +0.000 NA
ATOM     21  C   UNL     1       6.407   5.311  15.767  0.00  0.00    +0.000 A 
ATOM     22  C   UNL     1       5.501   4.648  16.583  0.00  0.00    +0.000 A 
ENDBRANCH  14  17
ENDBRANCH   5   7
BRANCH   1  24
ATOM     23  O   UNL     1      -1.035  10.422  21.534  0.00  0.00    +0.000 OA
ATOM     24  S   UNL     1      -0.075  11.294  20.892  0.00  0.00    +0.000 S 
ATOM     25  O   UNL     1       0.796  12.137  21.676  0.00  0.00    +0.000 OA
BRANCH  24  26
ATOM     26  N   UNL     1      -0.940  12.314  19.812  0.00  0.00    +0.000 NA
ATOM     27  C   UNL     1      -2.351  11.902  19.526  0.00  0.00    +0.000 C 
ATOM     28  C   UNL     1      -3.261  12.813  20.356  0.00  0.00    +0.000 C 
ATOM     29  C   UNL     1      -2.330  13.711  21.159  0.00  0.00    +0.000 C 
ATOM     30  C   UNL     1      -1.054  13.715  20.326  0.00  0.00    +0.000 C 
BRANCH  29  31
ATOM     31  O   UNL     1      -2.882  15.004  21.350  0.00  0.00    +0.000 OA
ATOM     32  H   UNL     1      -3.531  14.968  22.072  0.00  0.00    +0.000 HD
ENDBRANCH  29  31
ENDBRANCH  24  26
ENDBRANCH   1  24
TORSDOF 5
ENDMDL
MODEL 3
REMARK VINA RESULT:      -9.3      1.087      1.541
REMARK  Name = 
REMARK  5 active torsions:
REMARK  status: ('A' for Active; 'I' for Inactive)
REMARK    1  A    between atoms: S_2  and  C_4
REMARK    2  A    between atoms: S_2  and  N_26
REMARK    3  A    between atoms: C_8  and  C_9
REMARK    4  A    between atoms: C_16  and  C_17
REMARK    5  A    between atoms: C_29  and  O_30
REMARK                            x       y       z     vdW  Elec       q    Type
REMARK                         _______ _______ _______ _____ _____    ______ ____
ROOT
ATOM      1  C   UNL     1       1.161  10.040  19.830  0.00  0.00    +0.000 A 
ATOM      2  C   UNL     1       1.499  10.493  18.553  0.00  0.00    +0.000 A 
ATOM      3  C   UNL     1       2.152   9.633  17.672  0.00  0.00    +0.000 A 
ATOM      4  C   UNL     1       2.416   8.311  18.049  0.00  0.00    +0.000 A 
ATOM      5  C   UNL     1       2.042   7.817  19.313  0.00  0.00    +0.000 A 
ATOM      6  C   UNL     1       1.435   8.716  20.208  0.00  0.00    +0.000 A 
ENDROOT
BRANCH   5   7
ATOM      7  C   UNL     1       2.149   6.376  19.626  0.00  0.00    +0.000 A 
ATOM      8  C   UNL     1       1.293   5.702  20.477  0.00  0.00    +0.000 A 
ATOM      9  C   UNL     1       1.398   4.314  20.565  0.00  0.00    +0.000 A 
ATOM     10  C   UNL     1       2.321   3.611  19.811  0.00  0.00    +0.000 A 
ATOM     11  N   UNL     1       2.338   2.272  19.919  0.00  0.00    +0.000 NA
ATOM     12  C   UNL     1       3.212   1.602  19.151  0.00  0.00    +0.000 A 
ATOM     13  C   UNL     1       4.082   2.221  18.274  0.00  0.00    +0.000 A 
ATOM     14  C   UNL     1       4.084   3.626  18.167  0.00  0.00    +0.000 A 
ATOM     15  C   UNL     1       3.172   4.356  18.965  0.00  0.00    +0.000 A 
ATOM     16  N   UNL     1       3.092   5.711  18.917  0.00  0.00    +0.000 NA
BRANCH  14  17
ATOM     17  C   UNL     1       5.028   4.284  17.210  0.00  0.00    +0.000 A 
ATOM     18  C   UNL     1       4.786   4.330  15.829  0.00  0.00    +0.000 A 
ATOM     19  C   UNL     1       5.678   4.982  14.987  0.00  0.00    +0.000 A 
ATOM     20  N   UNL     1       6.817   5.564  15.407  0.00  0.00    +0.000 NA
ATOM     21  C   UNL     1       7.064   5.497  16.729  0.00  0.00    +0.000 A 
ATOM     22  C   UNL     1       6.217   4.891  17.648  0.00  0.00    +0.000 A 
ENDBRANCH  14  17
ENDBRANCH   5   7
BRANCH   1  24
ATOM     23  O   UNL     1      -0.921  10.134  21.412  0.00  0.00    +0.000 OA
ATOM     24  S   UNL     1       0.090  11.015  20.869  0.00  0.00    +0.000 S 
ATOM     25  O   UNL     1       0.940  11.790  21.742  0.00  0.00    +0.000 OA
BRANCH  24  26
ATOM     26  N   UNL     1      -0.694  12.115  19.807  0.00  0.00    +0.000 NA
ATOM     27  C   UNL     1      -2.086  11.739  19.400  0.00  0.00    +0.000 C 
ATOM     28  C   UNL     1      -3.043  12.602  20.229  0.00  0.00    +0.000 C 
ATOM     29  C   UNL     1      -2.162  13.432  21.151  0.00  0.00    +0.000 C 
ATOM     30  C   UNL     1      -0.833  13.480  20.406  0.00  0.00    +0.000 C 
BRANCH  29  31
ATOM     31  O   UNL     1      -2.717  14.715  21.393  0.00  0.00    +0.000 OA
ATOM     32  H   UNL     1      -2.022  15.386  21.286  0.00  0.00    +0.000 HD
ENDBRANCH  29  31
ENDBRANCH  24  26
ENDBRANCH   1  24
TORSDOF 5
ENDMDL
MODEL 4
REMARK VINA RESULT:      -9.2      1.479      1.963
REMARK  Name = 
REMARK  5 active torsions:
REMARK  status: ('A' for Active; 'I' for Inactive)
REMARK    1  A    between atoms: S_2  and  C_4
REMARK    2  A    between atoms: S_2  and  N_26
REMARK    3  A    between atoms: C_8  and  C_9
REMARK    4  A    between atoms: C_16  and  C_17
REMARK    5  A    between atoms: C_29  and  O_30
REMARK                            x       y       z     vdW  Elec       q    Type
REMARK                         _______ _______ _______ _____ _____    ______ ____
ROOT
ATOM      1  C   UNL     1       0.720  10.164  19.716  0.00  0.00    +0.000 A 
ATOM      2  C   UNL     1       1.117  10.561  18.437  0.00  0.00    +0.000 A 
ATOM      3  C   UNL     1       1.964   9.737  17.697  0.00  0.00    +0.000 A 
ATOM      4  C   UNL     1       2.365   8.500  18.213  0.00  0.00    +0.000 A 
ATOM      5  C   UNL     1       1.940   8.057  19.480  0.00  0.00    +0.000 A 
ATOM      6  C   UNL     1       1.133   8.927  20.234  0.00  0.00    +0.000 A 
ENDROOT
BRANCH   5   7
ATOM      7  C   UNL     1       2.209   6.675  19.929  0.00  0.00    +0.000 A 
ATOM      8  C   UNL     1       1.372   5.953  20.761  0.00  0.00    +0.000 A 
ATOM      9  C   UNL     1       1.654   4.605  20.982  0.00  0.00    +0.000 A 
ATOM     10  C   UNL     1       2.733   3.985  20.377  0.00  0.00    +0.000 A 
ATOM     11  N   UNL     1       2.920   2.675  20.606  0.00  0.00    +0.000 NA
ATOM     12  C   UNL     1       3.947   2.079  19.981  0.00  0.00    +0.000 A 
ATOM     13  C   UNL     1       4.807   2.746  19.130  0.00  0.00    +0.000 A 
ATOM     14  C   UNL     1       4.630   4.124  18.897  0.00  0.00    +0.000 A 
ATOM     15  C   UNL     1       3.555   4.777  19.544  0.00  0.00    +0.000 A 
ATOM     16  N   UNL     1       3.298   6.098  19.367  0.00  0.00    +0.000 NA
BRANCH  14  17
ATOM     17  C   UNL     1       5.567   4.834  17.970  0.00  0.00    +0.000 A 
ATOM     18  C   UNL     1       6.558   5.713  18.432  0.00  0.00    +0.000 A 
ATOM     19  C   UNL     1       7.423   6.322  17.533  0.00  0.00    +0.000 A 
ATOM     20  N   UNL     1       7.358   6.154  16.198  0.00  0.00    +0.000 NA
ATOM     21  C   UNL     1       6.391   5.331  15.752  0.00  0.00    +0.000 A 
ATOM     22  C   UNL     1       5.500   4.659  16.578  0.00  0.00    +0.000 A 
ENDBRANCH  14  17
ENDBRANCH   5   7
BRANCH   1  24
ATOM     23  O   UNL     1      -1.713  11.124  19.684  0.00  0.00    +0.000 OA
ATOM     24  S   UNL     1      -0.568  11.054  20.566  0.00  0.00    +0.000 S 
ATOM     25  O   UNL     1      -0.686  10.473  21.883  0.00  0.00    +0.000 OA
BRANCH  24  26
ATOM     26  N   UNL     1       0.036  12.652  20.763  0.00  0.00    +0.000 NA
ATOM     27  C   UNL     1      -0.468  13.658  19.775  0.00  0.00    +0.000 C 
ATOM     28  C   UNL     1      -1.539  14.489  20.489  0.00  0.00    +0.000 C 
ATOM     29  C   UNL     1      -1.667  13.893  21.883  0.00  0.00    +0.000 C 
ATOM     30  C   UNL     1      -0.313  13.228  22.099  0.00  0.00    +0.000 C 
BRANCH  29  31
ATOM     31  O   UNL     1      -1.969  14.883  22.853  0.00  0.00    +0.000 OA
ATOM     32  H   UNL     1      -1.163  15.390  23.049  0.00  0.00    +0.000 HD
ENDBRANCH  29  31
ENDBRANCH  24  26
ENDBRANCH   1  24
TORSDOF 5
ENDMDL
MODEL 5
REMARK VINA RESULT:      -9.1      1.481      1.760
REMARK  Name = 
REMARK  5 active torsions:
REMARK  status: ('A' for Active; 'I' for Inactive)
REMARK    1  A    between atoms: S_2  and  C_4
REMARK    2  A    between atoms: S_2  and  N_26
REMARK    3  A    between atoms: C_8  and  C_9
REMARK    4  A    between atoms: C_16  and  C_17
REMARK    5  A    between atoms: C_29  and  O_30
REMARK                            x       y       z     vdW  Elec       q    Type
REMARK                         _______ _______ _______ _____ _____    ______ ____
ROOT
ATOM      1  C   UNL     1       0.708  10.088  19.726  0.00  0.00    +0.000 A 
ATOM      2  C   UNL     1       1.021  10.453  18.415  0.00  0.00    +0.000 A 
ATOM      3  C   UNL     1       1.821   9.612  17.643  0.00  0.00    +0.000 A 
ATOM      4  C   UNL     1       2.259   8.389  18.163  0.00  0.00    +0.000 A 
ATOM      5  C   UNL     1       1.918   7.977  19.465  0.00  0.00    +0.000 A 
ATOM      6  C   UNL     1       1.158   8.865  20.248  0.00  0.00    +0.000 A 
ENDROOT
BRANCH   5   7
ATOM      7  C   UNL     1       2.221   6.607  19.930  0.00  0.00    +0.000 A 
ATOM      8  C   UNL     1       1.407   5.879  20.779  0.00  0.00    +0.000 A 
ATOM      9  C   UNL     1       1.719   4.541  21.016  0.00  0.00    +0.000 A 
ATOM     10  C   UNL     1       2.806   3.936  20.410  0.00  0.00    +0.000 A 
ATOM     11  N   UNL     1       3.024   2.633  20.655  0.00  0.00    +0.000 NA
ATOM     12  C   UNL     1       4.059   2.052  20.030  0.00  0.00    +0.000 A 
ATOM     13  C   UNL     1       4.898   2.725  19.163  0.00  0.00    +0.000 A 
ATOM     14  C   UNL     1       4.689   4.096  18.912  0.00  0.00    +0.000 A 
ATOM     15  C   UNL     1       3.605   4.734  19.560  0.00  0.00    +0.000 A 
ATOM     16  N   UNL     1       3.318   6.047  19.367  0.00  0.00    +0.000 NA
BRANCH  14  17
ATOM     17  C   UNL     1       5.602   4.814  17.968  0.00  0.00    +0.000 A 
ATOM     18  C   UNL     1       6.565   5.734  18.409  0.00  0.00    +0.000 A 
ATOM     19  C   UNL     1       7.411   6.349  17.495  0.00  0.00    +0.000 A 
ATOM     20  N   UNL     1       7.351   6.148  16.165  0.00  0.00    +0.000 NA
ATOM     21  C   UNL     1       6.410   5.285  15.739  0.00  0.00    +0.000 A 
ATOM     22  C   UNL     1       5.541   4.604  16.581  0.00  0.00    +0.000 A 
ENDBRANCH  14  17
ENDBRANCH   5   7
BRANCH   1  24
ATOM     23  O   UNL     1      -1.636  11.249  19.742  0.00  0.00    +0.000 OA
ATOM     24  S   UNL     1      -0.526  10.996  20.636  0.00  0.00    +0.000 S 
ATOM     25  O   UNL     1      -0.728  10.300  21.885  0.00  0.00    +0.000 OA
BRANCH  24  26
ATOM     26  N   UNL     1       0.202  12.509  21.003  0.00  0.00    +0.000 NA
ATOM     27  C   UNL     1       1.513  12.775  20.330  0.00  0.00    +0.000 C 
ATOM     28  C   UNL     1       1.233  13.733  19.167  0.00  0.00    +0.000 C 
ATOM     29  C   UNL     1      -0.272  13.958  19.166  0.00  0.00    +0.000 C 
ATOM     30  C   UNL     1      -0.665  13.664  20.610  0.00  0.00    +0.000 C 
BRANCH  29  31
ATOM     31  O   UNL     1      -0.607  15.272  18.749  0.00  0.00    +0.000 OA
ATOM     32  H   UNL     1      -0.008  15.538  18.032  0.00  0.00    +0.000 HD
ENDBRANCH  29  31
ENDBRANCH  24  26
ENDBRANCH   1  24
TORSDOF 5
ENDMDL
MODEL 6
REMARK VINA RESULT:      -8.8      1.028      1.534
REMARK  Name = 
REMARK  5 active torsions:
REMARK  status: ('A' for Active; 'I' for Inactive)
REMARK    1  A    between atoms: S_2  and  C_4
REMARK    2  A    between atoms: S_2  and  N_26
REMARK    3  A    between atoms: C_8  and  C_9
REMARK    4  A    between atoms: C_16  and  C_17
REMARK    5  A    between atoms: C_29  and  O_30
REMARK                            x       y       z     vdW  Elec       q    Type
REMARK                         _______ _______ _______ _____ _____    ______ ____
ROOT
ATOM      1  C   UNL     1       1.478   9.681  20.223  0.00  0.00    +0.000 A 
ATOM      2  C   UNL     1       1.346  10.211  18.938  0.00  0.00    +0.000 A 
ATOM      3  C   UNL     1       1.573   9.391  17.834  0.00  0.00    +0.000 A 
ATOM      4  C   UNL     1       1.878   8.038  18.016  0.00  0.00    +0.000 A 
ATOM      5  C   UNL     1       1.970   7.469  19.301  0.00  0.00    +0.000 A 
ATOM      6  C   UNL     1       1.793   8.326  20.402  0.00  0.00    +0.000 A 
ENDROOT
BRANCH   5   7
ATOM      7  C   UNL     1       2.098   6.008  19.475  0.00  0.00    +0.000 A 
ATOM      8  C   UNL     1       1.203   5.231  20.187  0.00  0.00    +0.000 A 
ATOM      9  C   UNL     1       1.344   3.844  20.144  0.00  0.00    +0.000 A 
ATOM     10  C   UNL     1       2.341   3.243  19.396  0.00  0.00    +0.000 A 
ATOM     11  N   UNL     1       2.391   1.901  19.372  0.00  0.00    +0.000 NA
ATOM     12  C   UNL     1       3.340   1.333  18.611  0.00  0.00    +0.000 A 
ATOM     13  C   UNL     1       4.252   2.057  17.869  0.00  0.00    +0.000 A 
ATOM     14  C   UNL     1       4.219   3.466  17.902  0.00  0.00    +0.000 A 
ATOM     15  C   UNL     1       3.229   4.090  18.697  0.00  0.00    +0.000 A 
ATOM     16  N   UNL     1       3.111   5.440  18.778  0.00  0.00    +0.000 NA
BRANCH  14  17
ATOM     17  C   UNL     1       5.210   4.239  17.090  0.00  0.00    +0.000 A 
ATOM     18  C   UNL     1       5.116   4.349  15.694  0.00  0.00    +0.000 A 
ATOM     19  C   UNL     1       6.043   5.105  14.991  0.00  0.00    +0.000 A 
ATOM     20  N   UNL     1       7.085   5.737  15.563  0.00  0.00    +0.000 NA
ATOM     21  C   UNL     1       7.192   5.611  16.900  0.00  0.00    +0.000 A 
ATOM     22  C   UNL     1       6.297   4.898  17.687  0.00  0.00    +0.000 A 
ENDBRANCH  14  17
ENDBRANCH   5   7
BRANCH   1  24
ATOM     23  O   UNL     1       1.267   9.866  22.824  0.00  0.00    +0.000 OA
ATOM     24  S   UNL     1       0.929  10.619  21.636  0.00  0.00    +0.000 S 
ATOM     25  O   UNL     1       1.406  11.971  21.457  0.00  0.00    +0.000 OA
BRANCH  24  26
ATOM     26  N   UNL     1      -0.785  10.661  21.515  0.00  0.00    +0.000 NA
ATOM     27  C   UNL     1      -1.522  10.745  22.817  0.00  0.00    +0.000 C 
ATOM     28  C   UNL     1      -1.976  12.199  22.981  0.00  0.00    +0.000 C 
ATOM     29  C   UNL     1      -1.432  12.944  21.770  0.00  0.00    +0.000 C 
ATOM     30  C   UNL     1      -1.269  11.840  20.732  0.00  0.00    +0.000 C 
BRANCH  29  31
ATOM     31  O   UNL     1      -2.305  13.982  21.356  0.00  0.00    +0.000 OA
ATOM     32  H   UNL     1      -1.824  14.826  21.372  0.00  0.00    +0.000 HD
ENDBRANCH  29  31
ENDBRANCH  24  26
ENDBRANCH   1  24
TORSDOF 5
ENDMDL
MODEL 7
REMARK VINA RESULT:      -8.8      3.537      8.621
REMARK  Name = 
REMARK  5 active torsions:
REMARK  status: ('A' for Active; 'I' for Inactive)
REMARK    1  A    between atoms: S_2  and  C_4
REMARK    2  A    between atoms: S_2  and  N_26
REMARK    3  A    between atoms: C_8  and  C_9
REMARK    4  A    between atoms: C_16  and  C_17
REMARK    5  A    between atoms: C_29  and  O_30
REMARK                            x       y       z     vdW  Elec       q    Type
REMARK                         _______ _______ _______ _____ _____    ______ ____
ROOT
ATOM      1  C   UNL     1       2.915   6.597  18.957  0.00  0.00    +0.000 A 
ATOM      2  C   UNL     1       3.426   7.224  17.820  0.00  0.00    +0.000 A 
ATOM      3  C   UNL     1       2.958   8.490  17.468  0.00  0.00    +0.000 A 
ATOM      4  C   UNL     1       2.025   9.143  18.280  0.00  0.00    +0.000 A 
ATOM      5  C   UNL     1       1.530   8.550  19.457  0.00  0.00    +0.000 A 
ATOM      6  C   UNL     1       1.971   7.251  19.764  0.00  0.00    +0.000 A 
ENDROOT
BRANCH   5   7
ATOM      7  C   UNL     1       0.699   9.324  20.404  0.00  0.00    +0.000 A 
ATOM      8  C   UNL     1      -0.025   8.761  21.438  0.00  0.00    +0.000 A 
ATOM      9  C   UNL     1      -0.639   9.609  22.359  0.00  0.00    +0.000 A 
ATOM     10  C   UNL     1      -0.522  10.984  22.264  0.00  0.00    +0.000 A 
ATOM     11  N   UNL     1      -1.109  11.737  23.209  0.00  0.00    +0.000 NA
ATOM     12  C   UNL     1      -0.953  13.068  23.124  0.00  0.00    +0.000 A 
ATOM     13  C   UNL     1      -0.230  13.684  22.121  0.00  0.00    +0.000 A 
ATOM     14  C   UNL     1       0.374  12.905  21.115  0.00  0.00    +0.000 A 
ATOM     15  C   UNL     1       0.224  11.500  21.180  0.00  0.00    +0.000 A 
ATOM     16  N   UNL     1       0.784  10.669  20.264  0.00  0.00    +0.000 NA
BRANCH  14  17
ATOM     17  C   UNL     1       1.157  13.585  20.035  0.00  0.00    +0.000 A 
ATOM     18  C   UNL     1       1.063  14.964  19.795  0.00  0.00    +0.000 A 
ATOM     19  C   UNL     1       1.835  15.552  18.802  0.00  0.00    +0.000 A 
ATOM     20  N   UNL     1       2.673  14.869  18.000  0.00  0.00    +0.000 NA
ATOM     21  C   UNL     1       2.744  13.541  18.212  0.00  0.00    +0.000 A 
ATOM     22  C   UNL     1       2.030  12.872  19.198  0.00  0.00    +0.000 A 
ENDBRANCH  14  17
ENDBRANCH   5   7
BRANCH   1  24
ATOM     23  O   UNL     1       5.108   5.364  19.678  0.00  0.00    +0.000 OA
ATOM     24  S   UNL     1       3.685   5.116  19.582  0.00  0.00    +0.000 S 
ATOM     25  O   UNL     1       2.929   4.702  20.740  0.00  0.00    +0.000 OA
BRANCH  24  26
ATOM     26  N   UNL     1       3.445   3.930  18.361  0.00  0.00    +0.000 NA
ATOM     27  C   UNL     1       3.853   2.536  18.727  0.00  0.00    +0.000 C 
ATOM     28  C   UNL     1       2.570   1.766  19.056  0.00  0.00    +0.000 C 
ATOM     29  C   UNL     1       1.435   2.771  18.922  0.00  0.00    +0.000 C 
ATOM     30  C   UNL     1       2.007   3.809  17.964  0.00  0.00    +0.000 C 
BRANCH  29  31
ATOM     31  O   UNL     1       0.246   2.161  18.446  0.00  0.00    +0.000 OA
ATOM     32  H   UNL     1       0.408   1.212  18.313  0.00  0.00    +0.000 HD
ENDBRANCH  29  31
ENDBRANCH  24  26
ENDBRANCH   1  24
TORSDOF 5
ENDMDL
MODEL 8
REMARK VINA RESULT:      -8.7      1.489      2.219
REMARK  Name = 
REMARK  5 active torsions:
REMARK  status: ('A' for Active; 'I' for Inactive)
REMARK    1  A    between atoms: S_2  and  C_4
REMARK    2  A    between atoms: S_2  and  N_26
REMARK    3  A    between atoms: C_8  and  C_9
REMARK    4  A    between atoms: C_16  and  C_17
REMARK    5  A    between atoms: C_29  and  O_30
REMARK                            x       y       z     vdW  Elec       q    Type
REMARK                         _______ _______ _______ _____ _____    ______ ____
ROOT
ATOM      1  C   UNL     1       0.889  10.111  19.460  0.00  0.00    +0.000 A 
ATOM      2  C   UNL     1       1.394  10.501  18.218  0.00  0.00    +0.000 A 
ATOM      3  C   UNL     1       2.290   9.666  17.551  0.00  0.00    +0.000 A 
ATOM      4  C   UNL     1       2.635   8.427  18.101  0.00  0.00    +0.000 A 
ATOM      5  C   UNL     1       2.103   7.991  19.329  0.00  0.00    +0.000 A 
ATOM      6  C   UNL     1       1.246   8.871  20.013  0.00  0.00    +0.000 A 
ENDROOT
BRANCH   5   7
ATOM      7  C   UNL     1       2.321   6.607  19.801  0.00  0.00    +0.000 A 
ATOM      8  C   UNL     1       1.507   5.962  20.713  0.00  0.00    +0.000 A 
ATOM      9  C   UNL     1       1.723   4.606  20.957  0.00  0.00    +0.000 A 
ATOM     10  C   UNL     1       2.714   3.904  20.295  0.00  0.00    +0.000 A 
ATOM     11  N   UNL     1       2.839   2.591  20.552  0.00  0.00    +0.000 NA
ATOM     12  C   UNL     1       3.780   1.916  19.873  0.00  0.00    +0.000 A 
ATOM     13  C   UNL     1       4.613   2.504  18.942  0.00  0.00    +0.000 A 
ATOM     14  C   UNL     1       4.503   3.884  18.678  0.00  0.00    +0.000 A 
ATOM     15  C   UNL     1       3.519   4.619  19.381  0.00  0.00    +0.000 A 
ATOM     16  N   UNL     1       3.330   5.949  19.181  0.00  0.00    +0.000 NA
BRANCH  14  17
ATOM     17  C   UNL     1       5.409   4.509  17.664  0.00  0.00    +0.000 A 
ATOM     18  C   UNL     1       5.159   4.432  16.286  0.00  0.00    +0.000 A 
ATOM     19  C   UNL     1       6.014   5.057  15.387  0.00  0.00    +0.000 A 
ATOM     20  N   UNL     1       7.124   5.726  15.750  0.00  0.00    +0.000 NA
ATOM     21  C   UNL     1       7.379   5.779  17.071  0.00  0.00    +0.000 A 
ATOM     22  C   UNL     1       6.567   5.207  18.042  0.00  0.00    +0.000 A 
ENDBRANCH  14  17
ENDBRANCH   5   7
BRANCH   1  24
ATOM     23  O   UNL     1      -0.857  12.050  19.272  0.00  0.00    +0.000 OA
ATOM     24  S   UNL     1      -0.456  11.015  20.201  0.00  0.00    +0.000 S 
ATOM     25  O   UNL     1      -1.409  10.041  20.677  0.00  0.00    +0.000 OA
BRANCH  24  26
ATOM     26  N   UNL     1       0.220  11.787  21.580  0.00  0.00    +0.000 NA
ATOM     27  C   UNL     1       0.606  13.222  21.392  0.00  0.00    +0.000 C 
ATOM     28  C   UNL     1      -0.488  14.070  22.048  0.00  0.00    +0.000 C 
ATOM     29  C   UNL     1      -1.527  13.083  22.562  0.00  0.00    +0.000 C 
ATOM     30  C   UNL     1      -0.724  11.800  22.741  0.00  0.00    +0.000 C 
BRANCH  29  31
ATOM     31  O   UNL     1      -2.136  13.537  23.760  0.00  0.00    +0.000 OA
ATOM     32  H   UNL     1      -2.292  12.776  24.344  0.00  0.00    +0.000 HD
ENDBRANCH  29  31
ENDBRANCH  24  26
ENDBRANCH   1  24
TORSDOF 5
ENDMDL
MODEL 9
REMARK VINA RESULT:      -8.5      3.443      8.939
REMARK  Name = 
REMARK  5 active torsions:
REMARK  status: ('A' for Active; 'I' for Inactive)
REMARK    1  A    between atoms: S_2  and  C_4
REMARK    2  A    between atoms: S_2  and  N_26
REMARK    3  A    between atoms: C_8  and  C_9
REMARK    4  A    between atoms: C_16  and  C_17
REMARK    5  A    between atoms: C_29  and  O_30
REMARK                            x       y       z     vdW  Elec       q    Type
REMARK                         _______ _______ _______ _____ _____    ______ ____
ROOT
ATOM      1  C   UNL     1       2.493   6.404  19.191  0.00  0.00    +0.000 A 
ATOM      2  C   UNL     1       3.194   6.835  18.062  0.00  0.00    +0.000 A 
ATOM      3  C   UNL     1       2.957   8.113  17.558  0.00  0.00    +0.000 A 
ATOM      4  C   UNL     1       2.066   8.971  18.211  0.00  0.00    +0.000 A 
ATOM      5  C   UNL     1       1.383   8.576  19.377  0.00  0.00    +0.000 A 
ATOM      6  C   UNL     1       1.592   7.264  19.838  0.00  0.00    +0.000 A 
ENDROOT
BRANCH   5   7
ATOM      7  C   UNL     1       0.599   9.551  20.164  0.00  0.00    +0.000 A 
ATOM      8  C   UNL     1       0.983  10.038  21.400  0.00  0.00    +0.000 A 
ATOM      9  C   UNL     1       0.241  11.073  21.968  0.00  0.00    +0.000 A 
ATOM     10  C   UNL     1      -0.847  11.623  21.314  0.00  0.00    +0.000 A 
ATOM     11  N   UNL     1      -1.491  12.644  21.904  0.00  0.00    +0.000 NA
ATOM     12  C   UNL     1      -2.520  13.192  21.240  0.00  0.00    +0.000 A 
ATOM     13  C   UNL     1      -2.940  12.756  19.998  0.00  0.00    +0.000 A 
ATOM     14  C   UNL     1      -2.283  11.675  19.378  0.00  0.00    +0.000 A 
ATOM     15  C   UNL     1      -1.195  11.078  20.058  0.00  0.00    +0.000 A 
ATOM     16  N   UNL     1      -0.493  10.042  19.531  0.00  0.00    +0.000 NA
BRANCH  14  17
ATOM     17  C   UNL     1      -2.746  11.215  18.031  0.00  0.00    +0.000 A 
ATOM     18  C   UNL     1      -4.003  11.558  17.511  0.00  0.00    +0.000 A 
ATOM     19  C   UNL     1      -4.371  11.132  16.242  0.00  0.00    +0.000 A 
ATOM     20  N   UNL     1      -3.599  10.357  15.457  0.00  0.00    +0.000 NA
ATOM     21  C   UNL     1      -2.403  10.006  15.965  0.00  0.00    +0.000 A 
ATOM     22  C   UNL     1      -1.941  10.406  17.212  0.00  0.00    +0.000 A 
ENDBRANCH  14  17
ENDBRANCH   5   7
BRANCH   1  24
ATOM     23  O   UNL     1       4.364   4.653  19.717  0.00  0.00    +0.000 OA
ATOM     24  S   UNL     1       2.970   4.897  20.015  0.00  0.00    +0.000 S 
ATOM     25  O   UNL     1       2.515   5.001  21.382  0.00  0.00    +0.000 OA
BRANCH  24  26
ATOM     26  N   UNL     1       2.051   3.656  19.261  0.00  0.00    +0.000 NA
ATOM     27  C   UNL     1       2.023   3.693  17.764  0.00  0.00    +0.000 C 
ATOM     28  C   UNL     1       2.993   2.613  17.272  0.00  0.00    +0.000 C 
ATOM     29  C   UNL     1       3.609   2.005  18.523  0.00  0.00    +0.000 C 
ATOM     30  C   UNL     1       2.563   2.290  19.595  0.00  0.00    +0.000 C 
BRANCH  29  31
ATOM     31  O   UNL     1       3.881   0.623  18.357  0.00  0.00    +0.000 OA
ATOM     32  H   UNL     1       3.168   0.220  17.835  0.00  0.00    +0.000 HD
ENDBRANCH  29  31
ENDBRANCH  24  26
ENDBRANCH   1  24
TORSDOF 5
ENDMDL
