MODEL 1
REMARK VINA RESULT:      -8.5      0.000      0.000
REMARK  Name = 
REMARK  10 active torsions:
REMARK  status: ('A' for Active; 'I' for Inactive)
REMARK    1  A    between atoms: C_1  and  O_2
REMARK    2  A    between atoms: O_2  and  C_3
REMARK    3  A    between atoms: C_3  and  C_5
REMARK    4  A    between atoms: C_8  and  C_9
REMARK    5  A    between atoms: C_9  and  N_10
REMARK    6  A    between atoms: C_15  and  C_16
REMARK    7  A    between atoms: C_19  and  C_20
REMARK    8  A    between atoms: C_21  and  C_22
REMARK    9  A    between atoms: C_22  and  C_24
REMARK   10  A    between atoms: C_29  and  O_30
REMARK                            x       y       z     vdW  Elec       q    Type
REMARK                         _______ _______ _______ _____ _____    ______ ____
ROOT
ATOM      1  N   UNL     1      -0.062  12.033  19.973  0.00  0.00    +0.000 N 
ATOM      2  C   UNL     1       0.887  12.346  19.039  0.00  0.00    +0.000 C 
ATOM      3  O   UNL     1       1.183  13.461  18.632  0.00  0.00    +0.000 OA
ATOM      4  S   UNL     1       1.710  10.894  18.503  0.00  0.00    +0.000 S 
ATOM      5  C   UNL     1       0.888   9.912  19.650  0.00  0.00    +0.000 C 
ATOM      6  C   UNL     1       1.084   8.611  19.908  0.00  0.00    +0.000 C 
ATOM      7  C   UNL     1      -0.100  10.729  20.411  0.00  0.00    +0.000 C 
ATOM      8  O   UNL     1      -0.793  10.288  21.313  0.00  0.00    +0.000 OA
ENDROOT
BRANCH   6   9
ATOM      9  C   UNL     1       2.087   7.767  19.254  0.00  0.00    +0.000 A 
ATOM     10  C   UNL     1       2.588   6.634  19.902  0.00  0.00    +0.000 A 
ATOM     11  C   UNL     1       3.559   5.834  19.285  0.00  0.00    +0.000 A 
ATOM     12  C   UNL     1       4.030   6.141  18.002  0.00  0.00    +0.000 A 
ATOM     13  C   UNL     1       3.529   7.288  17.367  0.00  0.00    +0.000 A 
ATOM     14  C   UNL     1       2.566   8.094  17.985  0.00  0.00    +0.000 A 
BRANCH  12  15
ATOM     15  C   UNL     1       5.051   5.282  17.376  0.00  0.00    +0.000 C 
ATOM     16  C   UNL     1       6.016   5.757  16.580  0.00  0.00    +0.000 C 
BRANCH  16  17
ATOM     17  C   UNL     1       6.978   4.849  15.896  0.00  0.00    +0.000 C 
ATOM     18  O   UNL     1       7.970   4.409  16.468  0.00  0.00    +0.000 OA
BRANCH  17  19
ATOM     19  C   UNL     1       6.727   4.540  14.459  0.00  0.00    +0.000 A 
ATOM     20  C   UNL     1       5.597   3.770  14.143  0.00  0.00    +0.000 A 
ATOM     21  C   UNL     1       5.309   3.447  12.815  0.00  0.00    +0.000 A 
ATOM     22  C   UNL     1       6.140   3.901  11.791  0.00  0.00    +0.000 A 
ATOM     23  C   UNL     1       7.259   4.680  12.091  0.00  0.00    +0.000 A 
ATOM     24  C   UNL     1       7.550   5.000  13.418  0.00  0.00    +0.000 A 
BRANCH  24  25
ATOM     25  O   UNL     1       8.644   5.780  13.676  0.00  0.00    +0.000 OA
ATOM     26  H   UNL     1       8.891   5.704  14.612  0.00  0.00    +0.000 HD
ENDBRANCH  24  25
ENDBRANCH  17  19
ENDBRANCH  16  17
ENDBRANCH  12  15
ENDBRANCH   6   9
BRANCH   1  27
ATOM     27  C   UNL     1      -0.875  13.071  20.573  0.00  0.00    +0.000 C 
BRANCH  27  31
ATOM     28  C   UNL     1      -5.138  12.323  20.423  0.00  0.00    +0.000 A 
ATOM     29  C   UNL     1      -4.519  12.685  21.625  0.00  0.00    +0.000 A 
ATOM     30  C   UNL     1      -3.140  12.902  21.667  0.00  0.00    +0.000 A 
ATOM     31  C   UNL     1      -2.357  12.767  20.512  0.00  0.00    +0.000 A 
ATOM     32  C   UNL     1      -2.977  12.380  19.314  0.00  0.00    +0.000 A 
ATOM     33  C   UNL     1      -4.359  12.165  19.270  0.00  0.00    +0.000 A 
BRANCH  28  34
ATOM     34  C   UNL     1      -6.613  12.137  20.414  0.00  0.00    +0.000 C 
ATOM     35  O   UNL     1      -7.321  12.370  19.448  0.00  0.00    +0.000 OA
BRANCH  34  37
ATOM     36  C   UNL     1      -7.916  10.563  21.543  0.00  0.00    +0.000 C 
ATOM     37  O   UNL     1      -7.032  11.679  21.619  0.00  0.00    +0.000 OA
ENDBRANCH  34  37
ENDBRANCH  28  34
ENDBRANCH  27  31
ENDBRANCH   1  27
TORSDOF 9
ENDMDL
MODEL 2
REMARK VINA RESULT:      -8.4      3.020     12.842
REMARK  Name = 
REMARK  10 active torsions:
REMARK  status: ('A' for Active; 'I' for Inactive)
REMARK    1  A    between atoms: C_1  and  O_2
REMARK    2  A    between atoms: O_2  and  C_3
REMARK    3  A    between atoms: C_3  and  C_5
REMARK    4  A    between atoms: C_8  and  C_9
REMARK    5  A    between atoms: C_9  and  N_10
REMARK    6  A    between atoms: C_15  and  C_16
REMARK    7  A    between atoms: C_19  and  C_20
REMARK    8  A    between atoms: C_21  and  C_22
REMARK    9  A    between atoms: C_22  and  C_24
REMARK   10  A    between atoms: C_29  and  O_30
REMARK                            x       y       z     vdW  Elec       q    Type
REMARK                         _______ _______ _______ _____ _____    ______ ____
ROOT
ATOM      1  N   UNL     1       3.394   4.510  19.678  0.00  0.00    +0.000 N 
ATOM      2  C   UNL     1       2.474   4.186  20.636  0.00  0.00    +0.000 C 
ATOM      3  O   UNL     1       2.351   3.111  21.207  0.00  0.00    +0.000 OA
ATOM      4  S   UNL     1       1.476   5.577  21.012  0.00  0.00    +0.000 S 
ATOM      5  C   UNL     1       2.404   6.613  20.002  0.00  0.00    +0.000 C 
ATOM      6  C   UNL     1       2.278   7.939  19.848  0.00  0.00    +0.000 C 
ATOM      7  C   UNL     1       3.467   5.833  19.305  0.00  0.00    +0.000 C 
ATOM      8  O   UNL     1       4.292   6.331  18.557  0.00  0.00    +0.000 OA
ENDROOT
BRANCH   6   9
ATOM      9  C   UNL     1       1.309   8.778  20.557  0.00  0.00    +0.000 A 
ATOM     10  C   UNL     1       1.241   8.754  21.953  0.00  0.00    +0.000 A 
ATOM     11  C   UNL     1       0.304   9.544  22.633  0.00  0.00    +0.000 A 
ATOM     12  C   UNL     1      -0.567  10.386  21.929  0.00  0.00    +0.000 A 
ATOM     13  C   UNL     1      -0.498  10.392  20.528  0.00  0.00    +0.000 A 
ATOM     14  C   UNL     1       0.431   9.596  19.847  0.00  0.00    +0.000 A 
BRANCH  12  15
ATOM     15  C   UNL     1      -1.542  11.207  22.668  0.00  0.00    +0.000 C 
ATOM     16  C   UNL     1      -1.571  12.543  22.603  0.00  0.00    +0.000 C 
BRANCH  16  17
ATOM     17  C   UNL     1      -2.515  13.343  23.432  0.00  0.00    +0.000 C 
ATOM     18  O   UNL     1      -2.117  14.133  24.282  0.00  0.00    +0.000 OA
BRANCH  17  19
ATOM     19  C   UNL     1      -3.973  13.101  23.238  0.00  0.00    +0.000 A 
ATOM     20  C   UNL     1      -4.487  13.212  21.936  0.00  0.00    +0.000 A 
ATOM     21  C   UNL     1      -5.846  12.998  21.691  0.00  0.00    +0.000 A 
ATOM     22  C   UNL     1      -6.698  12.659  22.741  0.00  0.00    +0.000 A 
ATOM     23  C   UNL     1      -6.197  12.531  24.037  0.00  0.00    +0.000 A 
ATOM     24  C   UNL     1      -4.841  12.749  24.285  0.00  0.00    +0.000 A 
BRANCH  24  25
ATOM     25  O   UNL     1      -4.378  12.599  25.563  0.00  0.00    +0.000 OA
ATOM     26  H   UNL     1      -4.363  11.658  25.801  0.00  0.00    +0.000 HD
ENDBRANCH  24  25
ENDBRANCH  17  19
ENDBRANCH  16  17
ENDBRANCH  12  15
ENDBRANCH   6   9
BRANCH   1  27
ATOM     27  C   UNL     1       4.342   3.523  19.202  0.00  0.00    +0.000 C 
BRANCH  27  31
ATOM     28  C   UNL     1       6.208   4.498  15.418  0.00  0.00    +0.000 A 
ATOM     29  C   UNL     1       6.920   4.618  16.616  0.00  0.00    +0.000 A 
ATOM     30  C   UNL     1       6.302   4.322  17.834  0.00  0.00    +0.000 A 
ATOM     31  C   UNL     1       4.966   3.898  17.875  0.00  0.00    +0.000 A 
ATOM     32  C   UNL     1       4.247   3.803  16.674  0.00  0.00    +0.000 A 
ATOM     33  C   UNL     1       4.866   4.096  15.453  0.00  0.00    +0.000 A 
BRANCH  28  34
ATOM     34  C   UNL     1       6.914   4.786  14.142  0.00  0.00    +0.000 C 
ATOM     35  O   UNL     1       7.853   5.558  14.044  0.00  0.00    +0.000 OA
BRANCH  34  37
ATOM     36  C   UNL     1       7.175   3.982  11.965  0.00  0.00    +0.000 C 
ATOM     37  O   UNL     1       6.360   4.071  13.132  0.00  0.00    +0.000 OA
ENDBRANCH  34  37
ENDBRANCH  28  34
ENDBRANCH  27  31
ENDBRANCH   1  27
TORSDOF 9
ENDMDL
MODEL 3
REMARK VINA RESULT:      -8.2      2.447      3.646
REMARK  Name = 
REMARK  10 active torsions:
REMARK  status: ('A' for Active; 'I' for Inactive)
REMARK    1  A    between atoms: C_1  and  O_2
REMARK    2  A    between atoms: O_2  and  C_3
REMARK    3  A    between atoms: C_3  and  C_5
REMARK    4  A    between atoms: C_8  and  C_9
REMARK    5  A    between atoms: C_9  and  N_10
REMARK    6  A    between atoms: C_15  and  C_16
REMARK    7  A    between atoms: C_19  and  C_20
REMARK    8  A    between atoms: C_21  and  C_22
REMARK    9  A    between atoms: C_22  and  C_24
REMARK   10  A    between atoms: C_29  and  O_30
REMARK                            x       y       z     vdW  Elec       q    Type
REMARK                         _______ _______ _______ _____ _____    ______ ____
ROOT
ATOM      1  N   UNL     1      -0.604  10.483  22.212  0.00  0.00    +0.000 N 
ATOM      2  C   UNL     1       0.314   9.771  22.933  0.00  0.00    +0.000 C 
ATOM      3  O   UNL     1       0.346   9.623  24.147  0.00  0.00    +0.000 OA
ATOM      4  S   UNL     1       1.468   9.007  21.857  0.00  0.00    +0.000 S 
ATOM      5  C   UNL     1       0.616   9.517  20.454  0.00  0.00    +0.000 C 
ATOM      6  C   UNL     1       0.875   9.206  19.177  0.00  0.00    +0.000 C 
ATOM      7  C   UNL     1      -0.551  10.361  20.842  0.00  0.00    +0.000 C 
ATOM      8  O   UNL     1      -1.348  10.824  20.043  0.00  0.00    +0.000 OA
ENDROOT
BRANCH   6   9
ATOM      9  C   UNL     1       1.955   8.323  18.731  0.00  0.00    +0.000 A 
ATOM     10  C   UNL     1       2.812   8.721  17.700  0.00  0.00    +0.000 A 
ATOM     11  C   UNL     1       3.837   7.872  17.261  0.00  0.00    +0.000 A 
ATOM     12  C   UNL     1       4.035   6.620  17.857  0.00  0.00    +0.000 A 
ATOM     13  C   UNL     1       3.161   6.226  18.881  0.00  0.00    +0.000 A 
ATOM     14  C   UNL     1       2.130   7.069  19.315  0.00  0.00    +0.000 A 
BRANCH  12  15
ATOM     15  C   UNL     1       5.120   5.747  17.376  0.00  0.00    +0.000 C 
ATOM     16  C   UNL     1       5.738   5.930  16.203  0.00  0.00    +0.000 C 
BRANCH  16  17
ATOM     17  C   UNL     1       6.771   4.976  15.711  0.00  0.00    +0.000 C 
ATOM     18  O   UNL     1       7.686   4.588  16.430  0.00  0.00    +0.000 OA
BRANCH  17  19
ATOM     19  C   UNL     1       6.693   4.557  14.282  0.00  0.00    +0.000 A 
ATOM     20  C   UNL     1       5.642   3.703  13.908  0.00  0.00    +0.000 A 
ATOM     21  C   UNL     1       5.517   3.274  12.585  0.00  0.00    +0.000 A 
ATOM     22  C   UNL     1       6.430   3.704  11.623  0.00  0.00    +0.000 A 
ATOM     23  C   UNL     1       7.470   4.564  11.979  0.00  0.00    +0.000 A 
ATOM     24  C   UNL     1       7.600   4.990  13.302  0.00  0.00    +0.000 A 
BRANCH  24  25
ATOM     25  O   UNL     1       8.619   5.847  13.614  0.00  0.00    +0.000 OA
ATOM     26  H   UNL     1       9.405   5.344  13.881  0.00  0.00    +0.000 HD
ENDBRANCH  24  25
ENDBRANCH  17  19
ENDBRANCH  16  17
ENDBRANCH  12  15
ENDBRANCH   6   9
BRANCH   1  27
ATOM     27  C   UNL     1      -1.669  11.202  22.881  0.00  0.00    +0.000 C 
BRANCH  27  31
ATOM     28  C   UNL     1      -1.753  15.359  21.672  0.00  0.00    +0.000 A 
ATOM     29  C   UNL     1      -0.616  14.816  22.280  0.00  0.00    +0.000 A 
ATOM     30  C   UNL     1      -0.607  13.480  22.686  0.00  0.00    +0.000 A 
ATOM     31  C   UNL     1      -1.729  12.662  22.489  0.00  0.00    +0.000 A 
ATOM     32  C   UNL     1      -2.877  13.217  21.902  0.00  0.00    +0.000 A 
ATOM     33  C   UNL     1      -2.886  14.555  21.491  0.00  0.00    +0.000 A 
BRANCH  28  34
ATOM     34  C   UNL     1      -1.708  16.775  21.221  0.00  0.00    +0.000 C 
ATOM     35  O   UNL     1      -1.473  17.716  21.960  0.00  0.00    +0.000 OA
BRANCH  34  37
ATOM     36  C   UNL     1      -0.939  17.491  19.136  0.00  0.00    +0.000 C 
ATOM     37  O   UNL     1      -1.963  16.848  19.892  0.00  0.00    +0.000 OA
ENDBRANCH  34  37
ENDBRANCH  28  34
ENDBRANCH  27  31
ENDBRANCH   1  27
TORSDOF 9
ENDMDL
MODEL 4
REMARK VINA RESULT:      -8.2      2.556     12.602
REMARK  Name = 
REMARK  10 active torsions:
REMARK  status: ('A' for Active; 'I' for Inactive)
REMARK    1  A    between atoms: C_1  and  O_2
REMARK    2  A    between atoms: O_2  and  C_3
REMARK    3  A    between atoms: C_3  and  C_5
REMARK    4  A    between atoms: C_8  and  C_9
REMARK    5  A    between atoms: C_9  and  N_10
REMARK    6  A    between atoms: C_15  and  C_16
REMARK    7  A    between atoms: C_19  and  C_20
REMARK    8  A    between atoms: C_21  and  C_22
REMARK    9  A    between atoms: C_22  and  C_24
REMARK   10  A    between atoms: C_29  and  O_30
REMARK                            x       y       z     vdW  Elec       q    Type
REMARK                         _______ _______ _______ _____ _____    ______ ____
ROOT
ATOM      1  N   UNL     1       4.581   5.369  18.491  0.00  0.00    +0.000 N 
ATOM      2  C   UNL     1       3.686   4.963  19.441  0.00  0.00    +0.000 C 
ATOM      3  O   UNL     1       3.772   3.979  20.162  0.00  0.00    +0.000 OA
ATOM      4  S   UNL     1       2.361   6.105  19.553  0.00  0.00    +0.000 S 
ATOM      5  C   UNL     1       3.100   7.190  18.443  0.00  0.00    +0.000 C 
ATOM      6  C   UNL     1       2.680   8.411  18.084  0.00  0.00    +0.000 C 
ATOM      7  C   UNL     1       4.371   6.607  17.925  0.00  0.00    +0.000 C 
ATOM      8  O   UNL     1       5.116   7.185  17.150  0.00  0.00    +0.000 OA
ENDROOT
BRANCH   6   9
ATOM      9  C   UNL     1       1.484   9.075  18.609  0.00  0.00    +0.000 A 
ATOM     10  C   UNL     1       0.552   9.645  17.736  0.00  0.00    +0.000 A 
ATOM     11  C   UNL     1      -0.585  10.295  18.237  0.00  0.00    +0.000 A 
ATOM     12  C   UNL     1      -0.818  10.369  19.616  0.00  0.00    +0.000 A 
ATOM     13  C   UNL     1       0.131   9.805  20.482  0.00  0.00    +0.000 A 
ATOM     14  C   UNL     1       1.272   9.164  19.985  0.00  0.00    +0.000 A 
BRANCH  12  15
ATOM     15  C   UNL     1      -2.021  11.057  20.115  0.00  0.00    +0.000 C 
ATOM     16  C   UNL     1      -2.427  12.246  19.652  0.00  0.00    +0.000 C 
BRANCH  16  17
ATOM     17  C   UNL     1      -3.599  12.951  20.242  0.00  0.00    +0.000 C 
ATOM     18  O   UNL     1      -3.468  13.796  21.121  0.00  0.00    +0.000 OA
BRANCH  17  19
ATOM     19  C   UNL     1      -4.953  12.546  19.768  0.00  0.00    +0.000 A 
ATOM     20  C   UNL     1      -5.086  12.151  18.427  0.00  0.00    +0.000 A 
ATOM     21  C   UNL     1      -6.330  11.762  17.924  0.00  0.00    +0.000 A 
ATOM     22  C   UNL     1      -7.447  11.751  18.759  0.00  0.00    +0.000 A 
ATOM     23  C   UNL     1      -7.325  12.128  20.097  0.00  0.00    +0.000 A 
ATOM     24  C   UNL     1      -6.084  12.522  20.600  0.00  0.00    +0.000 A 
BRANCH  24  25
ATOM     25  O   UNL     1      -5.995  12.867  21.921  0.00  0.00    +0.000 OA
ATOM     26  H   UNL     1      -6.878  13.066  22.272  0.00  0.00    +0.000 HD
ENDBRANCH  24  25
ENDBRANCH  17  19
ENDBRANCH  16  17
ENDBRANCH  12  15
ENDBRANCH   6   9
BRANCH   1  27
ATOM     27  C   UNL     1       5.770   4.589  18.217  0.00  0.00    +0.000 C 
BRANCH  27  31
ATOM     28  C   UNL     1       6.311   3.998  13.961  0.00  0.00    +0.000 A 
ATOM     29  C   UNL     1       5.158   3.533  14.605  0.00  0.00    +0.000 A 
ATOM     30  C   UNL     1       5.004   3.710  15.982  0.00  0.00    +0.000 A 
ATOM     31  C   UNL     1       5.993   4.355  16.738  0.00  0.00    +0.000 A 
ATOM     32  C   UNL     1       7.158   4.796  16.093  0.00  0.00    +0.000 A 
ATOM     33  C   UNL     1       7.313   4.624  14.713  0.00  0.00    +0.000 A 
BRANCH  28  34
ATOM     34  C   UNL     1       6.419   3.823  12.489  0.00  0.00    +0.000 C 
ATOM     35  O   UNL     1       7.350   4.243  11.821  0.00  0.00    +0.000 OA
BRANCH  34  37
ATOM     36  C   UNL     1       5.671   1.897  11.399  0.00  0.00    +0.000 C 
ATOM     37  O   UNL     1       5.346   3.139  12.021  0.00  0.00    +0.000 OA
ENDBRANCH  34  37
ENDBRANCH  28  34
ENDBRANCH  27  31
ENDBRANCH   1  27
TORSDOF 9
ENDMDL
MODEL 5
REMARK VINA RESULT:      -8.0      2.706     12.875
REMARK  Name = 
REMARK  10 active torsions:
REMARK  status: ('A' for Active; 'I' for Inactive)
REMARK    1  A    between atoms: C_1  and  O_2
REMARK    2  A    between atoms: O_2  and  C_3
REMARK    3  A    between atoms: C_3  and  C_5
REMARK    4  A    between atoms: C_8  and  C_9
REMARK    5  A    between atoms: C_9  and  N_10
REMARK    6  A    between atoms: C_15  and  C_16
REMARK    7  A    between atoms: C_19  and  C_20
REMARK    8  A    between atoms: C_21  and  C_22
REMARK    9  A    between atoms: C_22  and  C_24
REMARK   10  A    between atoms: C_29  and  O_30
REMARK                            x       y       z     vdW  Elec       q    Type
REMARK                         _______ _______ _______ _____ _____    ______ ____
ROOT
ATOM      1  N   UNL     1       4.437   5.449  18.320  0.00  0.00    +0.000 N 
ATOM      2  C   UNL     1       3.549   5.023  19.268  0.00  0.00    +0.000 C 
ATOM      3  O   UNL     1       3.623   4.007  19.945  0.00  0.00    +0.000 OA
ATOM      4  S   UNL     1       2.254   6.190  19.453  0.00  0.00    +0.000 S 
ATOM      5  C   UNL     1       3.001   7.304  18.377  0.00  0.00    +0.000 C 
ATOM      6  C   UNL     1       2.604   8.549  18.078  0.00  0.00    +0.000 C 
ATOM      7  C   UNL     1       4.249   6.715  17.812  0.00  0.00    +0.000 C 
ATOM      8  O   UNL     1       4.994   7.308  17.049  0.00  0.00    +0.000 OA
ENDROOT
BRANCH   6   9
ATOM      9  C   UNL     1       1.434   9.218  18.652  0.00  0.00    +0.000 A 
ATOM     10  C   UNL     1       0.412   9.690  17.823  0.00  0.00    +0.000 A 
ATOM     11  C   UNL     1      -0.701  10.345  18.369  0.00  0.00    +0.000 A 
ATOM     12  C   UNL     1      -0.820  10.519  19.753  0.00  0.00    +0.000 A 
ATOM     13  C   UNL     1       0.217  10.053  20.574  0.00  0.00    +0.000 A 
ATOM     14  C   UNL     1       1.334   9.407  20.031  0.00  0.00    +0.000 A 
BRANCH  12  15
ATOM     15  C   UNL     1      -2.001  11.210  20.301  0.00  0.00    +0.000 C 
ATOM     16  C   UNL     1      -2.257  12.505  20.079  0.00  0.00    +0.000 C 
BRANCH  16  17
ATOM     17  C   UNL     1      -3.414  13.190  20.720  0.00  0.00    +0.000 C 
ATOM     18  O   UNL     1      -4.436  13.453  20.095  0.00  0.00    +0.000 OA
BRANCH  17  19
ATOM     19  C   UNL     1      -3.262  13.608  22.143  0.00  0.00    +0.000 A 
ATOM     20  C   UNL     1      -2.177  14.439  22.468  0.00  0.00    +0.000 A 
ATOM     21  C   UNL     1      -1.980  14.863  23.784  0.00  0.00    +0.000 A 
ATOM     22  C   UNL     1      -2.872  14.473  24.783  0.00  0.00    +0.000 A 
ATOM     23  C   UNL     1      -3.961  13.659  24.471  0.00  0.00    +0.000 A 
ATOM     24  C   UNL     1      -4.157  13.230  23.157  0.00  0.00    +0.000 A 
BRANCH  24  25
ATOM     25  O   UNL     1      -5.245  12.448  22.881  0.00  0.00    +0.000 OA
ATOM     26  H   UNL     1      -6.058  12.905  23.150  0.00  0.00    +0.000 HD
ENDBRANCH  24  25
ENDBRANCH  17  19
ENDBRANCH  16  17
ENDBRANCH  12  15
ENDBRANCH   6   9
BRANCH   1  27
ATOM     27  C   UNL     1       5.603   4.654  17.992  0.00  0.00    +0.000 C 
BRANCH  27  31
ATOM     28  C   UNL     1       6.183   3.977  13.754  0.00  0.00    +0.000 A 
ATOM     29  C   UNL     1       7.184   4.580  14.524  0.00  0.00    +0.000 A 
ATOM     30  C   UNL     1       6.979   4.814  15.885  0.00  0.00    +0.000 A 
ATOM     31  C   UNL     1       5.774   4.447  16.502  0.00  0.00    +0.000 A 
ATOM     32  C   UNL     1       4.762   3.867  15.721  0.00  0.00    +0.000 A 
ATOM     33  C   UNL     1       4.968   3.628  14.358  0.00  0.00    +0.000 A 
BRANCH  28  34
ATOM     34  C   UNL     1       6.456   3.713  12.317  0.00  0.00    +0.000 C 
ATOM     35  O   UNL     1       7.398   4.190  11.705  0.00  0.00    +0.000 OA
BRANCH  34  37
ATOM     36  C   UNL     1       6.020   1.600  11.423  0.00  0.00    +0.000 C 
ATOM     37  O   UNL     1       5.517   2.877  11.811  0.00  0.00    +0.000 OA
ENDBRANCH  34  37
ENDBRANCH  28  34
ENDBRANCH  27  31
ENDBRANCH   1  27
TORSDOF 9
ENDMDL
MODEL 6
REMARK VINA RESULT:      -8.0      2.641     12.698
REMARK  Name = 
REMARK  10 active torsions:
REMARK  status: ('A' for Active; 'I' for Inactive)
REMARK    1  A    between atoms: C_1  and  O_2
REMARK    2  A    between atoms: O_2  and  C_3
REMARK    3  A    between atoms: C_3  and  C_5
REMARK    4  A    between atoms: C_8  and  C_9
REMARK    5  A    between atoms: C_9  and  N_10
REMARK    6  A    between atoms: C_15  and  C_16
REMARK    7  A    between atoms: C_19  and  C_20
REMARK    8  A    between atoms: C_21  and  C_22
REMARK    9  A    between atoms: C_22  and  C_24
REMARK   10  A    between atoms: C_29  and  O_30
REMARK                            x       y       z     vdW  Elec       q    Type
REMARK                         _______ _______ _______ _____ _____    ______ ____
ROOT
ATOM      1  N   UNL     1       3.430   5.227  19.543  0.00  0.00    +0.000 N 
ATOM      2  C   UNL     1       2.488   5.116  20.528  0.00  0.00    +0.000 C 
ATOM      3  O   UNL     1       2.403   4.234  21.372  0.00  0.00    +0.000 OA
ATOM      4  S   UNL     1       1.393   6.483  20.475  0.00  0.00    +0.000 S 
ATOM      5  C   UNL     1       2.303   7.263  19.242  0.00  0.00    +0.000 C 
ATOM      6  C   UNL     1       2.106   8.483  18.723  0.00  0.00    +0.000 C 
ATOM      7  C   UNL     1       3.442   6.398  18.820  0.00  0.00    +0.000 C 
ATOM      8  O   UNL     1       4.269   6.726  17.985  0.00  0.00    +0.000 OA
ENDROOT
BRANCH   6   9
ATOM      9  C   UNL     1       1.057   9.415  19.143  0.00  0.00    +0.000 A 
ATOM     10  C   UNL     1       0.965   9.819  20.479  0.00  0.00    +0.000 A 
ATOM     11  C   UNL     1      -0.047  10.699  20.886  0.00  0.00    +0.000 A 
ATOM     12  C   UNL     1      -0.971  11.204  19.962  0.00  0.00    +0.000 A 
ATOM     13  C   UNL     1      -0.877  10.781  18.628  0.00  0.00    +0.000 A 
ATOM     14  C   UNL     1       0.128   9.895  18.221  0.00  0.00    +0.000 A 
BRANCH  12  15
ATOM     15  C   UNL     1      -2.025  12.128  20.418  0.00  0.00    +0.000 C 
ATOM     16  C   UNL     1      -1.800  13.421  20.678  0.00  0.00    +0.000 C 
BRANCH  16  17
ATOM     17  C   UNL     1      -2.870  14.304  21.220  0.00  0.00    +0.000 C 
ATOM     18  O   UNL     1      -2.959  15.484  20.897  0.00  0.00    +0.000 OA
BRANCH  17  19
ATOM     19  C   UNL     1      -3.800  13.717  22.227  0.00  0.00    +0.000 A 
ATOM     20  C   UNL     1      -3.266  13.354  23.474  0.00  0.00    +0.000 A 
ATOM     21  C   UNL     1      -4.086  12.797  24.459  0.00  0.00    +0.000 A 
ATOM     22  C   UNL     1      -5.446  12.613  24.212  0.00  0.00    +0.000 A 
ATOM     23  C   UNL     1      -5.991  12.983  22.982  0.00  0.00    +0.000 A 
ATOM     24  C   UNL     1      -5.172  13.534  21.995  0.00  0.00    +0.000 A 
BRANCH  24  25
ATOM     25  O   UNL     1      -5.741  13.903  20.807  0.00  0.00    +0.000 OA
ATOM     26  H   UNL     1      -5.866  14.866  20.784  0.00  0.00    +0.000 HD
ENDBRANCH  24  25
ENDBRANCH  17  19
ENDBRANCH  16  17
ENDBRANCH  12  15
ENDBRANCH   6   9
BRANCH   1  27
ATOM     27  C   UNL     1       4.456   4.215  19.387  0.00  0.00    +0.000 C 
BRANCH  27  31
ATOM     28  C   UNL     1       6.367   4.508  15.513  0.00  0.00    +0.000 A 
ATOM     29  C   UNL     1       5.037   4.089  15.622  0.00  0.00    +0.000 A 
ATOM     30  C   UNL     1       4.436   3.977  16.877  0.00  0.00    +0.000 A 
ATOM     31  C   UNL     1       5.151   4.284  18.044  0.00  0.00    +0.000 A 
ATOM     32  C   UNL     1       6.493   4.679  17.933  0.00  0.00    +0.000 A 
ATOM     33  C   UNL     1       7.095   4.796  16.675  0.00  0.00    +0.000 A 
BRANCH  28  34
ATOM     34  C   UNL     1       6.957   4.649  14.155  0.00  0.00    +0.000 C 
ATOM     35  O   UNL     1       7.798   5.484  13.863  0.00  0.00    +0.000 OA
BRANCH  34  37
ATOM     36  C   UNL     1       6.887   3.823  11.972  0.00  0.00    +0.000 C 
ATOM     37  O   UNL     1       6.425   3.725  13.318  0.00  0.00    +0.000 OA
ENDBRANCH  34  37
ENDBRANCH  28  34
ENDBRANCH  27  31
ENDBRANCH   1  27
TORSDOF 9
ENDMDL
MODEL 7
REMARK VINA RESULT:      -7.9      3.488      5.292
REMARK  Name = 
REMARK  10 active torsions:
REMARK  status: ('A' for Active; 'I' for Inactive)
REMARK    1  A    between atoms: C_1  and  O_2
REMARK    2  A    between atoms: O_2  and  C_3
REMARK    3  A    between atoms: C_3  and  C_5
REMARK    4  A    between atoms: C_8  and  C_9
REMARK    5  A    between atoms: C_9  and  N_10
REMARK    6  A    between atoms: C_15  and  C_16
REMARK    7  A    between atoms: C_19  and  C_20
REMARK    8  A    between atoms: C_21  and  C_22
REMARK    9  A    between atoms: C_22  and  C_24
REMARK   10  A    between atoms: C_29  and  O_30
REMARK                            x       y       z     vdW  Elec       q    Type
REMARK                         _______ _______ _______ _____ _____    ______ ____
ROOT
ATOM      1  N   UNL     1       0.531  14.636  19.357  0.00  0.00    +0.000 N 
ATOM      2  C   UNL     1       1.790  14.460  18.852  0.00  0.00    +0.000 C 
ATOM      3  O   UNL     1       2.622  15.328  18.626  0.00  0.00    +0.000 OA
ATOM      4  S   UNL     1       2.111  12.755  18.607  0.00  0.00    +0.000 S 
ATOM      5  C   UNL     1       0.622  12.291  19.330  0.00  0.00    +0.000 C 
ATOM      6  C   UNL     1       0.189  11.050  19.594  0.00  0.00    +0.000 C 
ATOM      7  C   UNL     1      -0.167  13.500  19.702  0.00  0.00    +0.000 C 
ATOM      8  O   UNL     1      -1.247  13.458  20.266  0.00  0.00    +0.000 OA
ENDROOT
BRANCH   6   9
ATOM      9  C   UNL     1       0.943   9.823  19.327  0.00  0.00    +0.000 A 
ATOM     10  C   UNL     1       1.373   9.527  18.030  0.00  0.00    +0.000 A 
ATOM     11  C   UNL     1       2.081   8.345  17.770  0.00  0.00    +0.000 A 
ATOM     12  C   UNL     1       2.387   7.451  18.803  0.00  0.00    +0.000 A 
ATOM     13  C   UNL     1       1.938   7.752  20.098  0.00  0.00    +0.000 A 
ATOM     14  C   UNL     1       1.223   8.927  20.359  0.00  0.00    +0.000 A 
BRANCH  12  15
ATOM     15  C   UNL     1       3.133   6.216  18.501  0.00  0.00    +0.000 C 
ATOM     16  C   UNL     1       3.963   5.633  19.373  0.00  0.00    +0.000 C 
BRANCH  16  17
ATOM     17  C   UNL     1       4.766   4.435  19.002  0.00  0.00    +0.000 C 
ATOM     18  O   UNL     1       4.894   3.482  19.763  0.00  0.00    +0.000 OA
BRANCH  17  19
ATOM     19  C   UNL     1       5.470   4.461  17.687  0.00  0.00    +0.000 A 
ATOM     20  C   UNL     1       4.711   4.201  16.535  0.00  0.00    +0.000 A 
ATOM     21  C   UNL     1       5.314   4.209  15.274  0.00  0.00    +0.000 A 
ATOM     22  C   UNL     1       6.674   4.490  15.154  0.00  0.00    +0.000 A 
ATOM     23  C   UNL     1       7.436   4.764  16.291  0.00  0.00    +0.000 A 
ATOM     24  C   UNL     1       6.837   4.751  17.551  0.00  0.00    +0.000 A 
BRANCH  24  25
ATOM     25  O   UNL     1       7.607   5.041  18.643  0.00  0.00    +0.000 OA
ATOM     26  H   UNL     1       8.438   4.541  18.605  0.00  0.00    +0.000 HD
ENDBRANCH  24  25
ENDBRANCH  17  19
ENDBRANCH  16  17
ENDBRANCH  12  15
ENDBRANCH   6   9
BRANCH   1  27
ATOM     27  C   UNL     1       0.034  15.964  19.651  0.00  0.00    +0.000 C 
BRANCH  27  31
ATOM     28  C   UNL     1       0.700  17.037  23.793  0.00  0.00    +0.000 A 
ATOM     29  C   UNL     1      -0.586  16.733  23.333  0.00  0.00    +0.000 A 
ATOM     30  C   UNL     1      -0.793  16.409  21.990  0.00  0.00    +0.000 A 
ATOM     31  C   UNL     1       0.278  16.380  21.086  0.00  0.00    +0.000 A 
ATOM     32  C   UNL     1       1.562  16.710  21.545  0.00  0.00    +0.000 A 
ATOM     33  C   UNL     1       1.772  17.030  22.891  0.00  0.00    +0.000 A 
BRANCH  28  34
ATOM     34  C   UNL     1       0.883  17.339  25.237  0.00  0.00    +0.000 C 
ATOM     35  O   UNL     1       1.217  18.431  25.666  0.00  0.00    +0.000 OA
BRANCH  34  37
ATOM     36  C   UNL     1      -0.204  16.476  27.115  0.00  0.00    +0.000 C 
ATOM     37  O   UNL     1       0.625  16.235  25.980  0.00  0.00    +0.000 OA
ENDBRANCH  34  37
ENDBRANCH  28  34
ENDBRANCH  27  31
ENDBRANCH   1  27
TORSDOF 9
ENDMDL
MODEL 8
REMARK VINA RESULT:      -7.8      1.173      1.882
REMARK  Name = 
REMARK  10 active torsions:
REMARK  status: ('A' for Active; 'I' for Inactive)
REMARK    1  A    between atoms: C_1  and  O_2
REMARK    2  A    between atoms: O_2  and  C_3
REMARK    3  A    between atoms: C_3  and  C_5
REMARK    4  A    between atoms: C_8  and  C_9
REMARK    5  A    between atoms: C_9  and  N_10
REMARK    6  A    between atoms: C_15  and  C_16
REMARK    7  A    between atoms: C_19  and  C_20
REMARK    8  A    between atoms: C_21  and  C_22
REMARK    9  A    between atoms: C_22  and  C_24
REMARK   10  A    between atoms: C_29  and  O_30
REMARK                            x       y       z     vdW  Elec       q    Type
REMARK                         _______ _______ _______ _____ _____    ______ ____
ROOT
ATOM      1  N   UNL     1      -0.044  11.596  20.733  0.00  0.00    +0.000 N 
ATOM      2  C   UNL     1       0.487  11.684  19.476  0.00  0.00    +0.000 C 
ATOM      3  O   UNL     1       0.558  12.682  18.773  0.00  0.00    +0.000 OA
ATOM      4  S   UNL     1       1.138  10.132  18.985  0.00  0.00    +0.000 S 
ATOM      5  C   UNL     1       0.836   9.430  20.525  0.00  0.00    +0.000 C 
ATOM      6  C   UNL     1       1.180   8.207  20.951  0.00  0.00    +0.000 C 
ATOM      7  C   UNL     1       0.147  10.413  21.410  0.00  0.00    +0.000 C 
ATOM      8  O   UNL     1      -0.151  10.186  22.571  0.00  0.00    +0.000 OA
ENDROOT
BRANCH   6   9
ATOM      9  C   UNL     1       1.923   7.221  20.163  0.00  0.00    +0.000 A 
ATOM     10  C   UNL     1       2.607   7.611  19.007  0.00  0.00    +0.000 A 
ATOM     11  C   UNL     1       3.306   6.666  18.243  0.00  0.00    +0.000 A 
ATOM     12  C   UNL     1       3.350   5.322  18.632  0.00  0.00    +0.000 A 
ATOM     13  C   UNL     1       2.649   4.941  19.786  0.00  0.00    +0.000 A 
ATOM     14  C   UNL     1       1.943   5.880  20.546  0.00  0.00    +0.000 A 
BRANCH  12  15
ATOM     15  C   UNL     1       4.092   4.350  17.811  0.00  0.00    +0.000 C 
ATOM     16  C   UNL     1       4.685   4.673  16.655  0.00  0.00    +0.000 C 
BRANCH  16  17
ATOM     17  C   UNL     1       5.353   3.645  15.809  0.00  0.00    +0.000 C 
ATOM     18  O   UNL     1       5.337   2.455  16.106  0.00  0.00    +0.000 OA
BRANCH  17  19
ATOM     19  C   UNL     1       6.103   4.123  14.613  0.00  0.00    +0.000 A 
ATOM     20  C   UNL     1       5.757   3.580  13.365  0.00  0.00    +0.000 A 
ATOM     21  C   UNL     1       6.425   3.987  12.207  0.00  0.00    +0.000 A 
ATOM     22  C   UNL     1       7.434   4.946  12.285  0.00  0.00    +0.000 A 
ATOM     23  C   UNL     1       7.778   5.503  13.517  0.00  0.00    +0.000 A 
ATOM     24  C   UNL     1       7.115   5.095  14.676  0.00  0.00    +0.000 A 
BRANCH  24  25
ATOM     25  O   UNL     1       7.463   5.673  15.865  0.00  0.00    +0.000 OA
ATOM     26  H   UNL     1       7.271   6.624  15.840  0.00  0.00    +0.000 HD
ENDBRANCH  24  25
ENDBRANCH  17  19
ENDBRANCH  16  17
ENDBRANCH  12  15
ENDBRANCH   6   9
BRANCH   1  27
ATOM     27  C   UNL     1      -0.641  12.756  21.364  0.00  0.00    +0.000 C 
BRANCH  27  31
ATOM     28  C   UNL     1      -4.964  12.574  21.209  0.00  0.00    +0.000 A 
ATOM     29  C   UNL     1      -4.209  12.597  20.032  0.00  0.00    +0.000 A 
ATOM     30  C   UNL     1      -2.816  12.678  20.092  0.00  0.00    +0.000 A 
ATOM     31  C   UNL     1      -2.154  12.733  21.327  0.00  0.00    +0.000 A 
ATOM     32  C   UNL     1      -2.916  12.736  22.505  0.00  0.00    +0.000 A 
ATOM     33  C   UNL     1      -4.312  12.651  22.446  0.00  0.00    +0.000 A 
BRANCH  28  34
ATOM     34  C   UNL     1      -6.442  12.450  21.101  0.00  0.00    +0.000 C 
ATOM     35  O   UNL     1      -7.052  11.410  21.287  0.00  0.00    +0.000 OA
BRANCH  34  37
ATOM     36  C   UNL     1      -7.750  13.629  19.567  0.00  0.00    +0.000 C 
ATOM     37  O   UNL     1      -6.987  13.647  20.772  0.00  0.00    +0.000 OA
ENDBRANCH  34  37
ENDBRANCH  28  34
ENDBRANCH  27  31
ENDBRANCH   1  27
TORSDOF 9
ENDMDL
MODEL 9
REMARK VINA RESULT:      -7.8      2.543     12.490
REMARK  Name = 
REMARK  10 active torsions:
REMARK  status: ('A' for Active; 'I' for Inactive)
REMARK    1  A    between atoms: C_1  and  O_2
REMARK    2  A    between atoms: O_2  and  C_3
REMARK    3  A    between atoms: C_3  and  C_5
REMARK    4  A    between atoms: C_8  and  C_9
REMARK    5  A    between atoms: C_9  and  N_10
REMARK    6  A    between atoms: C_15  and  C_16
REMARK    7  A    between atoms: C_19  and  C_20
REMARK    8  A    between atoms: C_21  and  C_22
REMARK    9  A    between atoms: C_22  and  C_24
REMARK   10  A    between atoms: C_29  and  O_30
REMARK                            x       y       z     vdW  Elec       q    Type
REMARK                         _______ _______ _______ _____ _____    ______ ____
ROOT
ATOM      1  N   UNL     1       3.361   5.684  19.452  0.00  0.00    +0.000 N 
ATOM      2  C   UNL     1       2.386   5.637  20.409  0.00  0.00    +0.000 C 
ATOM      3  O   UNL     1       2.284   4.827  21.320  0.00  0.00    +0.000 OA
ATOM      4  S   UNL     1       1.271   6.974  20.203  0.00  0.00    +0.000 S 
ATOM      5  C   UNL     1       2.213   7.667  18.943  0.00  0.00    +0.000 C 
ATOM      6  C   UNL     1       2.015   8.835  18.317  0.00  0.00    +0.000 C 
ATOM      7  C   UNL     1       3.380   6.791  18.634  0.00  0.00    +0.000 C 
ATOM      8  O   UNL     1       4.232   7.065  17.805  0.00  0.00    +0.000 OA
ENDROOT
BRANCH   6   9
ATOM      9  C   UNL     1       0.936   9.778  18.620  0.00  0.00    +0.000 A 
ATOM     10  C   UNL     1       1.131  10.795  19.560  0.00  0.00    +0.000 A 
ATOM     11  C   UNL     1       0.095  11.689  19.864  0.00  0.00    +0.000 A 
ATOM     12  C   UNL     1      -1.145  11.595  19.219  0.00  0.00    +0.000 A 
ATOM     13  C   UNL     1      -1.332  10.563  18.287  0.00  0.00    +0.000 A 
ATOM     14  C   UNL     1      -0.302   9.662  17.989  0.00  0.00    +0.000 A 
BRANCH  12  15
ATOM     15  C   UNL     1      -2.216  12.548  19.557  0.00  0.00    +0.000 C 
ATOM     16  C   UNL     1      -3.126  12.316  20.510  0.00  0.00    +0.000 C 
BRANCH  16  17
ATOM     17  C   UNL     1      -4.246  13.265  20.764  0.00  0.00    +0.000 C 
ATOM     18  O   UNL     1      -4.239  14.030  21.723  0.00  0.00    +0.000 OA
BRANCH  17  19
ATOM     19  C   UNL     1      -5.417  13.207  19.843  0.00  0.00    +0.000 A 
ATOM     20  C   UNL     1      -5.978  11.947  19.577  0.00  0.00    +0.000 A 
ATOM     21  C   UNL     1      -7.075  11.828  18.721  0.00  0.00    +0.000 A 
ATOM     22  C   UNL     1      -7.629  12.966  18.135  0.00  0.00    +0.000 A 
ATOM     23  C   UNL     1      -7.090  14.225  18.403  0.00  0.00    +0.000 A 
ATOM     24  C   UNL     1      -5.991  14.345  19.254  0.00  0.00    +0.000 A 
BRANCH  24  25
ATOM     25  O   UNL     1      -5.497  15.595  19.510  0.00  0.00    +0.000 OA
ATOM     26  H   UNL     1      -5.319  15.693  20.459  0.00  0.00    +0.000 HD
ENDBRANCH  24  25
ENDBRANCH  17  19
ENDBRANCH  16  17
ENDBRANCH  12  15
ENDBRANCH   6   9
BRANCH   1  27
ATOM     27  C   UNL     1       4.408   4.684  19.417  0.00  0.00    +0.000 C 
BRANCH  27  31
ATOM     28  C   UNL     1       6.340   4.572  15.544  0.00  0.00    +0.000 A 
ATOM     29  C   UNL     1       4.979   4.275  15.670  0.00  0.00    +0.000 A 
ATOM     30  C   UNL     1       4.370   4.293  16.927  0.00  0.00    +0.000 A 
ATOM     31  C   UNL     1       5.107   4.610  18.077  0.00  0.00    +0.000 A 
ATOM     32  C   UNL     1       6.478   4.881  17.949  0.00  0.00    +0.000 A 
ATOM     33  C   UNL     1       7.089   4.868  16.690  0.00  0.00    +0.000 A 
BRANCH  28  34
ATOM     34  C   UNL     1       6.941   4.578  14.184  0.00  0.00    +0.000 C 
ATOM     35  O   UNL     1       7.753   5.405  13.804  0.00  0.00    +0.000 OA
BRANCH  34  37
ATOM     36  C   UNL     1       6.596   3.706  12.045  0.00  0.00    +0.000 C 
ATOM     37  O   UNL     1       6.454   3.544  13.455  0.00  0.00    +0.000 OA
ENDBRANCH  34  37
ENDBRANCH  28  34
ENDBRANCH  27  31
ENDBRANCH   1  27
TORSDOF 9
ENDMDL
