MODEL 1
REMARK VINA RESULT:      -9.0      0.000      0.000
REMARK  Name = 
REMARK  7 active torsions:
REMARK  status: ('A' for Active; 'I' for Inactive)
REMARK    1  A    between atoms: C_2  and  C_3
REMARK    2  A    between atoms: C_3  and  C_4
REMARK    3  A    between atoms: C_8  and  O_9
REMARK    4  A    between atoms: O_9  and  C_10
REMARK    5  A    between atoms: N_17  and  C_18
REMARK    6  A    between atoms: C_18  and  C_19
REMARK    7  A    between atoms: C_18  and  C_25
REMARK                            x       y       z     vdW  Elec       q    Type
REMARK                         _______ _______ _______ _____ _____    ______ ____
ROOT
ATOM      1  O   UNL     1       1.741   8.336  19.933  0.00  0.00    +0.000 OA
ATOM      2  C   UNL     1       2.031   8.308  18.742  0.00  0.00    +0.000 C 
ATOM      3  N   UNL     1       2.835   7.350  18.174  0.00  0.00    +0.000 N 
ATOM      4  H   UNL     1       3.078   7.426  17.197  0.00  0.00    +0.000 HD
ENDROOT
BRANCH   2   5
ATOM      5  C   UNL     1       1.533   9.335  17.723  0.00  0.00    +0.000 C 
BRANCH   5   6
ATOM      6  C   UNL     1       0.184   9.928  18.075  0.00  0.00    +0.000 A 
ATOM      7  C   UNL     1      -0.991   9.505  17.445  0.00  0.00    +0.000 A 
ATOM      8  C   UNL     1      -2.208  10.131  17.730  0.00  0.00    +0.000 A 
ATOM      9  C   UNL     1      -2.255  11.201  18.625  0.00  0.00    +0.000 A 
ATOM     10  C   UNL     1      -1.088  11.626  19.256  0.00  0.00    +0.000 A 
ATOM     11  C   UNL     1       0.110  10.936  19.039  0.00  0.00    +0.000 A 
BRANCH  10  12
ATOM     12  O   UNL     1      -1.184  12.732  20.077  0.00  0.00    +0.000 OA
BRANCH  12  13
ATOM     13  C   UNL     1      -1.978  12.646  21.205  0.00  0.00    +0.000 A 
ATOM     14  C   UNL     1      -3.193  13.325  21.357  0.00  0.00    +0.000 A 
ATOM     15  C   UNL     1      -3.880  13.275  22.570  0.00  0.00    +0.000 A 
ATOM     16  C   UNL     1      -3.398  12.480  23.607  0.00  0.00    +0.000 A 
ATOM     17  C   UNL     1      -2.234  11.731  23.428  0.00  0.00    +0.000 A 
ATOM     18  C   UNL     1      -1.522  11.816  22.229  0.00  0.00    +0.000 A 
ENDBRANCH  12  13
ENDBRANCH  10  12
ENDBRANCH   5   6
ENDBRANCH   2   5
BRANCH   3  19
ATOM     19  C   UNL     1       3.506   6.281  18.909  0.00  0.00    +0.000 C 
BRANCH  19  20
ATOM     20  C   UNL     1       2.471   5.170  19.098  0.00  0.00    +0.000 A 
ATOM     21  C   UNL     1       1.944   4.877  20.372  0.00  0.00    +0.000 A 
ATOM     22  C   UNL     1       1.081   3.798  20.561  0.00  0.00    +0.000 A 
ATOM     23  C   UNL     1       0.726   2.995  19.481  0.00  0.00    +0.000 A 
ATOM     24  C   UNL     1       1.210   3.290  18.207  0.00  0.00    +0.000 A 
ATOM     25  C   UNL     1       2.074   4.371  18.014  0.00  0.00    +0.000 A 
ENDBRANCH  19  20
BRANCH  19  26
ATOM     26  C   UNL     1       4.771   5.869  18.146  0.00  0.00    +0.000 A 
ATOM     27  C   UNL     1       4.884   6.146  16.770  0.00  0.00    +0.000 A 
ATOM     28  C   UNL     1       5.967   5.685  16.023  0.00  0.00    +0.000 A 
ATOM     29  C   UNL     1       6.987   4.979  16.648  0.00  0.00    +0.000 A 
ATOM     30  C   UNL     1       6.940   4.769  18.024  0.00  0.00    +0.000 A 
ATOM     31  C   UNL     1       5.849   5.222  18.771  0.00  0.00    +0.000 A 
ENDBRANCH  19  26
ENDBRANCH   3  19
TORSDOF 7
ENDMDL
MODEL 2
REMARK VINA RESULT:      -8.9      2.542      3.605
REMARK  Name = 
REMARK  7 active torsions:
REMARK  status: ('A' for Active; 'I' for Inactive)
REMARK    1  A    between atoms: C_2  and  C_3
REMARK    2  A    between atoms: C_3  and  C_4
REMARK    3  A    between atoms: C_8  and  O_9
REMARK    4  A    between atoms: O_9  and  C_10
REMARK    5  A    between atoms: N_17  and  C_18
REMARK    6  A    between atoms: C_18  and  C_19
REMARK    7  A    between atoms: C_18  and  C_25
REMARK                            x       y       z     vdW  Elec       q    Type
REMARK                         _______ _______ _______ _____ _____    ______ ____
ROOT
ATOM      1  O   UNL     1       1.765   8.270  19.988  0.00  0.00    +0.000 OA
ATOM      2  C   UNL     1       1.996   8.215  18.785  0.00  0.00    +0.000 C 
ATOM      3  N   UNL     1       2.778   7.247  18.202  0.00  0.00    +0.000 N 
ATOM      4  H   UNL     1       2.973   7.301  17.213  0.00  0.00    +0.000 HD
ENDROOT
BRANCH   2   5
ATOM      5  C   UNL     1       1.444   9.215  17.768  0.00  0.00    +0.000 C 
BRANCH   5   6
ATOM      6  C   UNL     1       0.724  10.387  18.405  0.00  0.00    +0.000 A 
ATOM      7  C   UNL     1      -0.668  10.510  18.354  0.00  0.00    +0.000 A 
ATOM      8  C   UNL     1      -1.294  11.646  18.876  0.00  0.00    +0.000 A 
ATOM      9  C   UNL     1      -0.532  12.677  19.427  0.00  0.00    +0.000 A 
ATOM     10  C   UNL     1       0.855  12.559  19.481  0.00  0.00    +0.000 A 
ATOM     11  C   UNL     1       1.469  11.380  19.044  0.00  0.00    +0.000 A 
BRANCH  10  12
ATOM     12  O   UNL     1       1.558  13.640  19.974  0.00  0.00    +0.000 OA
BRANCH  12  13
ATOM     13  C   UNL     1       2.030  14.582  19.079  0.00  0.00    +0.000 A 
ATOM     14  C   UNL     1       3.114  14.367  18.220  0.00  0.00    +0.000 A 
ATOM     15  C   UNL     1       3.599  15.407  17.427  0.00  0.00    +0.000 A 
ATOM     16  C   UNL     1       2.951  16.639  17.427  0.00  0.00    +0.000 A 
ATOM     17  C   UNL     1       1.814  16.829  18.214  0.00  0.00    +0.000 A 
ATOM     18  C   UNL     1       1.356  15.802  19.043  0.00  0.00    +0.000 A 
ENDBRANCH  12  13
ENDBRANCH  10  12
ENDBRANCH   5   6
ENDBRANCH   2   5
BRANCH   3  19
ATOM     19  C   UNL     1       3.491   6.200  18.928  0.00  0.00    +0.000 C 
BRANCH  19  20
ATOM     20  C   UNL     1       2.488   5.065  19.146  0.00  0.00    +0.000 A 
ATOM     21  C   UNL     1       1.997   4.767  20.434  0.00  0.00    +0.000 A 
ATOM     22  C   UNL     1       1.165   3.669  20.648  0.00  0.00    +0.000 A 
ATOM     23  C   UNL     1       0.805   2.852  19.581  0.00  0.00    +0.000 A 
ATOM     24  C   UNL     1       1.252   3.151  18.294  0.00  0.00    +0.000 A 
ATOM     25  C   UNL     1       2.085   4.252  18.076  0.00  0.00    +0.000 A 
ENDBRANCH  19  20
BRANCH  19  26
ATOM     26  C   UNL     1       4.748   5.813  18.140  0.00  0.00    +0.000 A 
ATOM     27  C   UNL     1       4.848   6.135  16.773  0.00  0.00    +0.000 A 
ATOM     28  C   UNL     1       5.924   5.699  16.001  0.00  0.00    +0.000 A 
ATOM     29  C   UNL     1       6.950   4.974  16.593  0.00  0.00    +0.000 A 
ATOM     30  C   UNL     1       6.917   4.719  17.962  0.00  0.00    +0.000 A 
ATOM     31  C   UNL     1       5.833   5.148  18.733  0.00  0.00    +0.000 A 
ENDBRANCH  19  26
ENDBRANCH   3  19
TORSDOF 7
ENDMDL
MODEL 3
REMARK VINA RESULT:      -8.7      2.371      5.580
REMARK  Name = 
REMARK  7 active torsions:
REMARK  status: ('A' for Active; 'I' for Inactive)
REMARK    1  A    between atoms: C_2  and  C_3
REMARK    2  A    between atoms: C_3  and  C_4
REMARK    3  A    between atoms: C_8  and  O_9
REMARK    4  A    between atoms: O_9  and  C_10
REMARK    5  A    between atoms: N_17  and  C_18
REMARK    6  A    between atoms: C_18  and  C_19
REMARK    7  A    between atoms: C_18  and  C_25
REMARK                            x       y       z     vdW  Elec       q    Type
REMARK                         _______ _______ _______ _____ _____    ______ ____
ROOT
ATOM      1  O   UNL     1       4.209   2.614  17.869  0.00  0.00    +0.000 OA
ATOM      2  C   UNL     1       3.852   3.648  17.314  0.00  0.00    +0.000 C 
ATOM      3  N   UNL     1       4.689   4.442  16.567  0.00  0.00    +0.000 N 
ATOM      4  H   UNL     1       4.338   5.309  16.189  0.00  0.00    +0.000 HD
ENDROOT
BRANCH   2   5
ATOM      5  C   UNL     1       2.425   4.194  17.375  0.00  0.00    +0.000 C 
BRANCH   5   6
ATOM      6  C   UNL     1       2.220   5.222  18.469  0.00  0.00    +0.000 A 
ATOM      7  C   UNL     1       1.785   4.858  19.747  0.00  0.00    +0.000 A 
ATOM      8  C   UNL     1       1.522   5.840  20.708  0.00  0.00    +0.000 A 
ATOM      9  C   UNL     1       1.667   7.191  20.390  0.00  0.00    +0.000 A 
ATOM     10  C   UNL     1       2.101   7.559  19.118  0.00  0.00    +0.000 A 
ATOM     11  C   UNL     1       2.452   6.571  18.191  0.00  0.00    +0.000 A 
BRANCH  10  12
ATOM     12  O   UNL     1       2.158   8.910  18.841  0.00  0.00    +0.000 OA
BRANCH  12  13
ATOM     13  C   UNL     1       1.001   9.656  18.962  0.00  0.00    +0.000 A 
ATOM     14  C   UNL     1       0.716  10.482  20.056  0.00  0.00    +0.000 A 
ATOM     15  C   UNL     1      -0.523  11.115  20.155  0.00  0.00    +0.000 A 
ATOM     16  C   UNL     1      -1.449  10.994  19.122  0.00  0.00    +0.000 A 
ATOM     17  C   UNL     1      -1.132  10.245  17.987  0.00  0.00    +0.000 A 
ATOM     18  C   UNL     1       0.090   9.573  17.908  0.00  0.00    +0.000 A 
ENDBRANCH  12  13
ENDBRANCH  10  12
ENDBRANCH   5   6
ENDBRANCH   2   5
BRANCH   3  19
ATOM     19  C   UNL     1       6.119   4.208  16.385  0.00  0.00    +0.000 C 
BRANCH  19  20
ATOM     20  C   UNL     1       6.365   4.187  14.874  0.00  0.00    +0.000 A 
ATOM     21  C   UNL     1       7.448   4.887  14.305  0.00  0.00    +0.000 A 
ATOM     22  C   UNL     1       7.611   4.954  12.922  0.00  0.00    +0.000 A 
ATOM     23  C   UNL     1       6.699   4.321  12.083  0.00  0.00    +0.000 A 
ATOM     24  C   UNL     1       5.641   3.594  12.629  0.00  0.00    +0.000 A 
ATOM     25  C   UNL     1       5.476   3.524  14.015  0.00  0.00    +0.000 A 
ENDBRANCH  19  20
BRANCH  19  26
ATOM     26  C   UNL     1       6.902   5.277  17.156  0.00  0.00    +0.000 A 
ATOM     27  C   UNL     1       7.581   4.932  18.341  0.00  0.00    +0.000 A 
ATOM     28  C   UNL     1       8.207   5.899  19.127  0.00  0.00    +0.000 A 
ATOM     29  C   UNL     1       8.208   7.227  18.718  0.00  0.00    +0.000 A 
ATOM     30  C   UNL     1       7.619   7.578  17.506  0.00  0.00    +0.000 A 
ATOM     31  C   UNL     1       6.984   6.609  16.723  0.00  0.00    +0.000 A 
ENDBRANCH  19  26
ENDBRANCH   3  19
TORSDOF 7
ENDMDL
MODEL 4
REMARK VINA RESULT:      -8.7      1.560      4.506
REMARK  Name = 
REMARK  7 active torsions:
REMARK  status: ('A' for Active; 'I' for Inactive)
REMARK    1  A    between atoms: C_2  and  C_3
REMARK    2  A    between atoms: C_3  and  C_4
REMARK    3  A    between atoms: C_8  and  O_9
REMARK    4  A    between atoms: O_9  and  C_10
REMARK    5  A    between atoms: N_17  and  C_18
REMARK    6  A    between atoms: C_18  and  C_19
REMARK    7  A    between atoms: C_18  and  C_25
REMARK                            x       y       z     vdW  Elec       q    Type
REMARK                         _______ _______ _______ _____ _____    ______ ____
ROOT
ATOM      1  O   UNL     1       1.451   8.474  19.168  0.00  0.00    +0.000 OA
ATOM      2  C   UNL     1       1.916   7.839  20.109  0.00  0.00    +0.000 C 
ATOM      3  N   UNL     1       2.635   6.677  19.964  0.00  0.00    +0.000 N 
ATOM      4  H   UNL     1       2.935   6.178  20.788  0.00  0.00    +0.000 HD
ENDROOT
BRANCH   2   5
ATOM      5  C   UNL     1       1.761   8.255  21.572  0.00  0.00    +0.000 C 
BRANCH   5   6
ATOM      6  C   UNL     1       0.761   9.375  21.777  0.00  0.00    +0.000 A 
ATOM      7  C   UNL     1       0.053   9.518  22.975  0.00  0.00    +0.000 A 
ATOM      8  C   UNL     1      -0.926  10.509  23.101  0.00  0.00    +0.000 A 
ATOM      9  C   UNL     1      -1.221  11.345  22.024  0.00  0.00    +0.000 A 
ATOM     10  C   UNL     1      -0.518  11.208  20.828  0.00  0.00    +0.000 A 
ATOM     11  C   UNL     1       0.523  10.278  20.739  0.00  0.00    +0.000 A 
BRANCH  10  12
ATOM     12  O   UNL     1      -0.902  12.016  19.778  0.00  0.00    +0.000 OA
BRANCH  12  13
ATOM     13  C   UNL     1      -1.821  11.525  18.870  0.00  0.00    +0.000 A 
ATOM     14  C   UNL     1      -3.172  11.891  18.852  0.00  0.00    +0.000 A 
ATOM     15  C   UNL     1      -4.058  11.265  17.975  0.00  0.00    +0.000 A 
ATOM     16  C   UNL     1      -3.583  10.332  17.057  0.00  0.00    +0.000 A 
ATOM     17  C   UNL     1      -2.220  10.031  17.011  0.00  0.00    +0.000 A 
ATOM     18  C   UNL     1      -1.340  10.624  17.919  0.00  0.00    +0.000 A 
ENDBRANCH  12  13
ENDBRANCH  10  12
ENDBRANCH   5   6
ENDBRANCH   2   5
BRANCH   3  19
ATOM     19  C   UNL     1       2.888   6.005  18.693  0.00  0.00    +0.000 C 
BRANCH  19  20
ATOM     20  C   UNL     1       4.396   6.098  18.447  0.00  0.00    +0.000 A 
ATOM     21  C   UNL     1       4.907   6.739  17.300  0.00  0.00    +0.000 A 
ATOM     22  C   UNL     1       6.273   6.733  17.023  0.00  0.00    +0.000 A 
ATOM     23  C   UNL     1       7.154   6.091  17.887  0.00  0.00    +0.000 A 
ATOM     24  C   UNL     1       6.672   5.482  19.045  0.00  0.00    +0.000 A 
ATOM     25  C   UNL     1       5.303   5.487  19.326  0.00  0.00    +0.000 A 
ENDBRANCH  19  20
BRANCH  19  26
ATOM     26  C   UNL     1       2.328   4.580  18.761  0.00  0.00    +0.000 A 
ATOM     27  C   UNL     1       2.760   3.610  17.836  0.00  0.00    +0.000 A 
ATOM     28  C   UNL     1       2.189   2.338  17.796  0.00  0.00    +0.000 A 
ATOM     29  C   UNL     1       1.207   1.993  18.716  0.00  0.00    +0.000 A 
ATOM     30  C   UNL     1       0.826   2.906  19.697  0.00  0.00    +0.000 A 
ATOM     31  C   UNL     1       1.392   4.184  19.730  0.00  0.00    +0.000 A 
ENDBRANCH  19  26
ENDBRANCH   3  19
TORSDOF 7
ENDMDL
MODEL 5
REMARK VINA RESULT:      -8.7      1.082      3.503
REMARK  Name = 
REMARK  7 active torsions:
REMARK  status: ('A' for Active; 'I' for Inactive)
REMARK    1  A    between atoms: C_2  and  C_3
REMARK    2  A    between atoms: C_3  and  C_4
REMARK    3  A    between atoms: C_8  and  O_9
REMARK    4  A    between atoms: O_9  and  C_10
REMARK    5  A    between atoms: N_17  and  C_18
REMARK    6  A    between atoms: C_18  and  C_19
REMARK    7  A    between atoms: C_18  and  C_25
REMARK                            x       y       z     vdW  Elec       q    Type
REMARK                         _______ _______ _______ _____ _____    ______ ____
ROOT
ATOM      1  O   UNL     1       2.295   8.793  17.271  0.00  0.00    +0.000 OA
ATOM      2  C   UNL     1       2.130   8.348  18.402  0.00  0.00    +0.000 C 
ATOM      3  N   UNL     1       2.497   7.080  18.784  0.00  0.00    +0.000 N 
ATOM      4  H   UNL     1       2.275   6.763  19.716  0.00  0.00    +0.000 HD
ENDROOT
BRANCH   2   5
ATOM      5  C   UNL     1       1.495   9.144  19.543  0.00  0.00    +0.000 C 
BRANCH   5   6
ATOM      6  C   UNL     1       0.251   9.903  19.128  0.00  0.00    +0.000 A 
ATOM      7  C   UNL     1      -0.441   9.593  17.953  0.00  0.00    +0.000 A 
ATOM      8  C   UNL     1      -1.534  10.368  17.554  0.00  0.00    +0.000 A 
ATOM      9  C   UNL     1      -1.925  11.473  18.310  0.00  0.00    +0.000 A 
ATOM     10  C   UNL     1      -1.239  11.787  19.482  0.00  0.00    +0.000 A 
ATOM     11  C   UNL     1      -0.207  10.954  19.926  0.00  0.00    +0.000 A 
BRANCH  10  12
ATOM     12  O   UNL     1      -1.628  12.930  20.150  0.00  0.00    +0.000 OA
BRANCH  12  13
ATOM     13  C   UNL     1      -2.621  12.829  21.106  0.00  0.00    +0.000 A 
ATOM     14  C   UNL     1      -3.978  13.064  20.850  0.00  0.00    +0.000 A 
ATOM     15  C   UNL     1      -4.903  13.051  21.893  0.00  0.00    +0.000 A 
ATOM     16  C   UNL     1      -4.491  12.720  23.181  0.00  0.00    +0.000 A 
ATOM     17  C   UNL     1      -3.155  12.396  23.424  0.00  0.00    +0.000 A 
ATOM     18  C   UNL     1      -2.220  12.453  22.388  0.00  0.00    +0.000 A 
ENDBRANCH  12  13
ENDBRANCH  10  12
ENDBRANCH   5   6
ENDBRANCH   2   5
BRANCH   3  19
ATOM     19  C   UNL     1       3.066   6.071  17.895  0.00  0.00    +0.000 C 
BRANCH  19  20
ATOM     20  C   UNL     1       4.584   6.145  18.073  0.00  0.00    +0.000 A 
ATOM     21  C   UNL     1       5.389   6.864  17.167  0.00  0.00    +0.000 A 
ATOM     22  C   UNL     1       6.779   6.845  17.269  0.00  0.00    +0.000 A 
ATOM     23  C   UNL     1       7.391   6.110  18.280  0.00  0.00    +0.000 A 
ATOM     24  C   UNL     1       6.611   5.420  19.208  0.00  0.00    +0.000 A 
ATOM     25  C   UNL     1       5.217   5.438  19.108  0.00  0.00    +0.000 A 
ENDBRANCH  19  20
BRANCH  19  26
ATOM     26  C   UNL     1       2.439   4.710  18.217  0.00  0.00    +0.000 A 
ATOM     27  C   UNL     1       1.555   4.583  19.306  0.00  0.00    +0.000 A 
ATOM     28  C   UNL     1       1.057   3.341  19.696  0.00  0.00    +0.000 A 
ATOM     29  C   UNL     1       1.393   2.204  18.972  0.00  0.00    +0.000 A 
ATOM     30  C   UNL     1       2.194   2.317  17.839  0.00  0.00    +0.000 A 
ATOM     31  C   UNL     1       2.701   3.561  17.454  0.00  0.00    +0.000 A 
ENDBRANCH  19  26
ENDBRANCH   3  19
TORSDOF 7
ENDMDL
MODEL 6
REMARK VINA RESULT:      -8.7      2.343      5.450
REMARK  Name = 
REMARK  7 active torsions:
REMARK  status: ('A' for Active; 'I' for Inactive)
REMARK    1  A    between atoms: C_2  and  C_3
REMARK    2  A    between atoms: C_3  and  C_4
REMARK    3  A    between atoms: C_8  and  O_9
REMARK    4  A    between atoms: O_9  and  C_10
REMARK    5  A    between atoms: N_17  and  C_18
REMARK    6  A    between atoms: C_18  and  C_19
REMARK    7  A    between atoms: C_18  and  C_25
REMARK                            x       y       z     vdW  Elec       q    Type
REMARK                         _______ _______ _______ _____ _____    ______ ____
ROOT
ATOM      1  O   UNL     1       4.140   2.554  17.782  0.00  0.00    +0.000 OA
ATOM      2  C   UNL     1       3.766   3.639  17.350  0.00  0.00    +0.000 C 
ATOM      3  N   UNL     1       4.591   4.528  16.704  0.00  0.00    +0.000 N 
ATOM      4  H   UNL     1       4.226   5.428  16.429  0.00  0.00    +0.000 HD
ENDROOT
BRANCH   2   5
ATOM      5  C   UNL     1       2.330   4.151  17.471  0.00  0.00    +0.000 C 
BRANCH   5   6
ATOM      6  C   UNL     1       2.163   5.234  18.518  0.00  0.00    +0.000 A 
ATOM      7  C   UNL     1       1.810   4.933  19.837  0.00  0.00    +0.000 A 
ATOM      8  C   UNL     1       1.579   5.960  20.757  0.00  0.00    +0.000 A 
ATOM      9  C   UNL     1       1.674   7.294  20.359  0.00  0.00    +0.000 A 
ATOM     10  C   UNL     1       2.027   7.600  19.046  0.00  0.00    +0.000 A 
ATOM     11  C   UNL     1       2.348   6.570  18.155  0.00  0.00    +0.000 A 
BRANCH  10  12
ATOM     12  O   UNL     1       2.037   8.935  18.693  0.00  0.00    +0.000 OA
BRANCH  12  13
ATOM     13  C   UNL     1       0.864   9.656  18.814  0.00  0.00    +0.000 A 
ATOM     14  C   UNL     1      -0.176   9.617  17.878  0.00  0.00    +0.000 A 
ATOM     15  C   UNL     1      -1.278  10.460  18.016  0.00  0.00    +0.000 A 
ATOM     16  C   UNL     1      -1.385  11.285  19.132  0.00  0.00    +0.000 A 
ATOM     17  C   UNL     1      -0.393  11.261  20.115  0.00  0.00    +0.000 A 
ATOM     18  C   UNL     1       0.733  10.450  19.954  0.00  0.00    +0.000 A 
ENDBRANCH  12  13
ENDBRANCH  10  12
ENDBRANCH   5   6
ENDBRANCH   2   5
BRANCH   3  19
ATOM     19  C   UNL     1       6.024   4.341  16.499  0.00  0.00    +0.000 C 
BRANCH  19  20
ATOM     20  C   UNL     1       6.253   4.371  14.986  0.00  0.00    +0.000 A 
ATOM     21  C   UNL     1       5.390   3.687  14.106  0.00  0.00    +0.000 A 
ATOM     22  C   UNL     1       5.658   3.629  12.739  0.00  0.00    +0.000 A 
ATOM     23  C   UNL     1       6.789   4.255  12.226  0.00  0.00    +0.000 A 
ATOM     24  C   UNL     1       7.637   4.966  13.075  0.00  0.00    +0.000 A 
ATOM     25  C   UNL     1       7.370   5.027  14.445  0.00  0.00    +0.000 A 
ENDBRANCH  19  20
BRANCH  19  26
ATOM     26  C   UNL     1       6.786   5.407  17.293  0.00  0.00    +0.000 A 
ATOM     27  C   UNL     1       6.774   6.748  16.861  0.00  0.00    +0.000 A 
ATOM     28  C   UNL     1       7.547   7.722  17.492  0.00  0.00    +0.000 A 
ATOM     29  C   UNL     1       8.311   7.385  18.603  0.00  0.00    +0.000 A 
ATOM     30  C   UNL     1       8.270   6.085  19.102  0.00  0.00    +0.000 A 
ATOM     31  C   UNL     1       7.503   5.107  18.463  0.00  0.00    +0.000 A 
ENDBRANCH  19  26
ENDBRANCH   3  19
TORSDOF 7
ENDMDL
MODEL 7
REMARK VINA RESULT:      -8.6      0.969      1.249
REMARK  Name = 
REMARK  7 active torsions:
REMARK  status: ('A' for Active; 'I' for Inactive)
REMARK    1  A    between atoms: C_2  and  C_3
REMARK    2  A    between atoms: C_3  and  C_4
REMARK    3  A    between atoms: C_8  and  O_9
REMARK    4  A    between atoms: O_9  and  C_10
REMARK    5  A    between atoms: N_17  and  C_18
REMARK    6  A    between atoms: C_18  and  C_19
REMARK    7  A    between atoms: C_18  and  C_25
REMARK                            x       y       z     vdW  Elec       q    Type
REMARK                         _______ _______ _______ _____ _____    ______ ____
ROOT
ATOM      1  O   UNL     1       1.859   8.060  20.300  0.00  0.00    +0.000 OA
ATOM      2  C   UNL     1       2.025   8.079  19.085  0.00  0.00    +0.000 C 
ATOM      3  N   UNL     1       2.761   7.143  18.400  0.00  0.00    +0.000 N 
ATOM      4  H   UNL     1       2.904   7.258  17.408  0.00  0.00    +0.000 HD
ENDROOT
BRANCH   2   5
ATOM      5  C   UNL     1       1.434   9.149  18.165  0.00  0.00    +0.000 C 
BRANCH   5   6
ATOM      6  C   UNL     1       0.394  10.018  18.843  0.00  0.00    +0.000 A 
ATOM      7  C   UNL     1      -0.781  10.403  18.189  0.00  0.00    +0.000 A 
ATOM      8  C   UNL     1      -1.679  11.276  18.811  0.00  0.00    +0.000 A 
ATOM      9  C   UNL     1      -1.397  11.791  20.077  0.00  0.00    +0.000 A 
ATOM     10  C   UNL     1      -0.227  11.410  20.733  0.00  0.00    +0.000 A 
ATOM     11  C   UNL     1       0.621  10.464  20.147  0.00  0.00    +0.000 A 
BRANCH  10  12
ATOM     12  O   UNL     1       0.031  12.005  21.951  0.00  0.00    +0.000 OA
BRANCH  12  13
ATOM     13  C   UNL     1      -1.034  12.490  22.686  0.00  0.00    +0.000 A 
ATOM     14  C   UNL     1      -2.105  11.700  23.123  0.00  0.00    +0.000 A 
ATOM     15  C   UNL     1      -3.196  12.287  23.764  0.00  0.00    +0.000 A 
ATOM     16  C   UNL     1      -3.185  13.651  24.043  0.00  0.00    +0.000 A 
ATOM     17  C   UNL     1      -2.079  14.426  23.689  0.00  0.00    +0.000 A 
ATOM     18  C   UNL     1      -1.006  13.847  23.008  0.00  0.00    +0.000 A 
ENDBRANCH  12  13
ENDBRANCH  10  12
ENDBRANCH   5   6
ENDBRANCH   2   5
BRANCH   3  19
ATOM     19  C   UNL     1       3.497   6.044  19.019  0.00  0.00    +0.000 C 
BRANCH  19  20
ATOM     20  C   UNL     1       2.497   4.898  19.192  0.00  0.00    +0.000 A 
ATOM     21  C   UNL     1       1.975   4.574  20.460  0.00  0.00    +0.000 A 
ATOM     22  C   UNL     1       1.146   3.466  20.634  0.00  0.00    +0.000 A 
ATOM     23  C   UNL     1       0.822   2.664  19.544  0.00  0.00    +0.000 A 
ATOM     24  C   UNL     1       1.300   2.988  18.275  0.00  0.00    +0.000 A 
ATOM     25  C   UNL     1       2.130   4.098  18.098  0.00  0.00    +0.000 A 
ENDBRANCH  19  20
BRANCH  19  26
ATOM     26  C   UNL     1       4.721   5.714  18.157  0.00  0.00    +0.000 A 
ATOM     27  C   UNL     1       4.797   6.190  16.834  0.00  0.00    +0.000 A 
ATOM     28  C   UNL     1       5.839   5.815  15.986  0.00  0.00    +0.000 A 
ATOM     29  C   UNL     1       6.855   4.995  16.461  0.00  0.00    +0.000 A 
ATOM     30  C   UNL     1       6.847   4.583  17.791  0.00  0.00    +0.000 A 
ATOM     31  C   UNL     1       5.797   4.951  18.638  0.00  0.00    +0.000 A 
ENDBRANCH  19  26
ENDBRANCH   3  19
TORSDOF 7
ENDMDL
MODEL 8
REMARK VINA RESULT:      -8.6      0.991      1.902
REMARK  Name = 
REMARK  7 active torsions:
REMARK  status: ('A' for Active; 'I' for Inactive)
REMARK    1  A    between atoms: C_2  and  C_3
REMARK    2  A    between atoms: C_3  and  C_4
REMARK    3  A    between atoms: C_8  and  O_9
REMARK    4  A    between atoms: O_9  and  C_10
REMARK    5  A    between atoms: N_17  and  C_18
REMARK    6  A    between atoms: C_18  and  C_19
REMARK    7  A    between atoms: C_18  and  C_25
REMARK                            x       y       z     vdW  Elec       q    Type
REMARK                         _______ _______ _______ _____ _____    ______ ____
ROOT
ATOM      1  O   UNL     1       1.910   8.056  19.986  0.00  0.00    +0.000 OA
ATOM      2  C   UNL     1       2.144   7.850  18.800  0.00  0.00    +0.000 C 
ATOM      3  N   UNL     1       2.950   6.834  18.346  0.00  0.00    +0.000 N 
ATOM      4  H   UNL     1       3.144   6.763  17.359  0.00  0.00    +0.000 HD
ENDROOT
BRANCH   2   5
ATOM      5  C   UNL     1       1.569   8.695  17.663  0.00  0.00    +0.000 C 
BRANCH   5   6
ATOM      6  C   UNL     1       1.266  10.124  18.068  0.00  0.00    +0.000 A 
ATOM      7  C   UNL     1       2.276  11.085  18.178  0.00  0.00    +0.000 A 
ATOM      8  C   UNL     1       1.976  12.372  18.638  0.00  0.00    +0.000 A 
ATOM      9  C   UNL     1       0.673  12.697  19.015  0.00  0.00    +0.000 A 
ATOM     10  C   UNL     1      -0.338  11.743  18.906  0.00  0.00    +0.000 A 
ATOM     11  C   UNL     1      -0.050  10.488  18.357  0.00  0.00    +0.000 A 
BRANCH  10  12
ATOM     12  O   UNL     1      -1.591  12.101  19.358  0.00  0.00    +0.000 OA
BRANCH  12  13
ATOM     13  C   UNL     1      -1.835  12.067  20.718  0.00  0.00    +0.000 A 
ATOM     14  C   UNL     1      -1.010  11.414  21.642  0.00  0.00    +0.000 A 
ATOM     15  C   UNL     1      -1.385  11.332  22.983  0.00  0.00    +0.000 A 
ATOM     16  C   UNL     1      -2.541  11.972  23.421  0.00  0.00    +0.000 A 
ATOM     17  C   UNL     1      -3.319  12.701  22.519  0.00  0.00    +0.000 A 
ATOM     18  C   UNL     1      -2.968  12.746  21.168  0.00  0.00    +0.000 A 
ENDBRANCH  12  13
ENDBRANCH  10  12
ENDBRANCH   5   6
ENDBRANCH   2   5
BRANCH   3  19
ATOM     19  C   UNL     1       3.687   5.908  19.202  0.00  0.00    +0.000 C 
BRANCH  19  20
ATOM     20  C   UNL     1       2.690   4.829  19.632  0.00  0.00    +0.000 A 
ATOM     21  C   UNL     1       2.605   4.412  20.975  0.00  0.00    +0.000 A 
ATOM     22  C   UNL     1       1.772   3.358  21.349  0.00  0.00    +0.000 A 
ATOM     23  C   UNL     1       1.007   2.704  20.388  0.00  0.00    +0.000 A 
ATOM     24  C   UNL     1       1.051   3.125  19.059  0.00  0.00    +0.000 A 
ATOM     25  C   UNL     1       1.884   4.182  18.682  0.00  0.00    +0.000 A 
ENDBRANCH  19  20
BRANCH  19  26
ATOM     26  C   UNL     1       4.913   5.392  18.440  0.00  0.00    +0.000 A 
ATOM     27  C   UNL     1       6.180   5.408  19.055  0.00  0.00    +0.000 A 
ATOM     28  C   UNL     1       7.332   5.054  18.353  0.00  0.00    +0.000 A 
ATOM     29  C   UNL     1       7.235   4.629  17.034  0.00  0.00    +0.000 A 
ATOM     30  C   UNL     1       5.983   4.522  16.433  0.00  0.00    +0.000 A 
ATOM     31  C   UNL     1       4.830   4.886  17.133  0.00  0.00    +0.000 A 
ENDBRANCH  19  26
ENDBRANCH   3  19
TORSDOF 7
ENDMDL
MODEL 9
REMARK VINA RESULT:      -8.6      2.606      4.877
REMARK  Name = 
REMARK  7 active torsions:
REMARK  status: ('A' for Active; 'I' for Inactive)
REMARK    1  A    between atoms: C_2  and  C_3
REMARK    2  A    between atoms: C_3  and  C_4
REMARK    3  A    between atoms: C_8  and  O_9
REMARK    4  A    between atoms: O_9  and  C_10
REMARK    5  A    between atoms: N_17  and  C_18
REMARK    6  A    between atoms: C_18  and  C_19
REMARK    7  A    between atoms: C_18  and  C_25
REMARK                            x       y       z     vdW  Elec       q    Type
REMARK                         _______ _______ _______ _____ _____    ______ ____
ROOT
ATOM      1  O   UNL     1       2.343   8.744  17.443  0.00  0.00    +0.000 OA
ATOM      2  C   UNL     1       2.194   8.225  18.544  0.00  0.00    +0.000 C 
ATOM      3  N   UNL     1       2.548   6.929  18.831  0.00  0.00    +0.000 N 
ATOM      4  H   UNL     1       2.340   6.552  19.744  0.00  0.00    +0.000 HD
ENDROOT
BRANCH   2   5
ATOM      5  C   UNL     1       1.594   8.950  19.750  0.00  0.00    +0.000 C 
BRANCH   5   6
ATOM      6  C   UNL     1       0.746  10.148  19.372  0.00  0.00    +0.000 A 
ATOM      7  C   UNL     1      -0.308  10.042  18.459  0.00  0.00    +0.000 A 
ATOM      8  C   UNL     1      -1.016  11.183  18.066  0.00  0.00    +0.000 A 
ATOM      9  C   UNL     1      -0.658  12.437  18.560  0.00  0.00    +0.000 A 
ATOM     10  C   UNL     1       0.391  12.548  19.471  0.00  0.00    +0.000 A 
ATOM     11  C   UNL     1       1.034  11.394  19.932  0.00  0.00    +0.000 A 
BRANCH  10  12
ATOM     12  O   UNL     1       0.743  13.821  19.871  0.00  0.00    +0.000 OA
BRANCH  12  13
ATOM     13  C   UNL     1       1.569  14.564  19.049  0.00  0.00    +0.000 A 
ATOM     14  C   UNL     1       2.710  14.052  18.419  0.00  0.00    +0.000 A 
ATOM     15  C   UNL     1       3.552  14.896  17.695  0.00  0.00    +0.000 A 
ATOM     16  C   UNL     1       3.214  16.236  17.528  0.00  0.00    +0.000 A 
ATOM     17  C   UNL     1       2.031  16.731  18.079  0.00  0.00    +0.000 A 
ATOM     18  C   UNL     1       1.210  15.897  18.842  0.00  0.00    +0.000 A 
ENDBRANCH  12  13
ENDBRANCH  10  12
ENDBRANCH   5   6
ENDBRANCH   2   5
BRANCH   3  19
ATOM     19  C   UNL     1       3.084   5.976  17.863  0.00  0.00    +0.000 C 
BRANCH  19  20
ATOM     20  C   UNL     1       4.608   6.045  17.986  0.00  0.00    +0.000 A 
ATOM     21  C   UNL     1       5.282   5.400  19.042  0.00  0.00    +0.000 A 
ATOM     22  C   UNL     1       6.658   5.549  19.213  0.00  0.00    +0.000 A 
ATOM     23  C   UNL     1       7.385   6.342  18.331  0.00  0.00    +0.000 A 
ATOM     24  C   UNL     1       6.742   6.960  17.259  0.00  0.00    +0.000 A 
ATOM     25  C   UNL     1       5.363   6.811  17.084  0.00  0.00    +0.000 A 
ENDBRANCH  19  20
BRANCH  19  26
ATOM     26  C   UNL     1       2.472   4.596  18.130  0.00  0.00    +0.000 A 
ATOM     27  C   UNL     1       1.554   4.426  19.184  0.00  0.00    +0.000 A 
ATOM     28  C   UNL     1       1.067   3.165  19.527  0.00  0.00    +0.000 A 
ATOM     29  C   UNL     1       1.450   2.053  18.788  0.00  0.00    +0.000 A 
ATOM     30  C   UNL     1       2.287   2.208  17.686  0.00  0.00    +0.000 A 
ATOM     31  C   UNL     1       2.783   3.471  17.349  0.00  0.00    +0.000 A 
ENDBRANCH  19  26
ENDBRANCH   3  19
TORSDOF 7
ENDMDL
