MODEL 1
REMARK VINA RESULT:      -6.7      0.000      0.000
REMARK  Name = 
REMARK  6 active torsions:
REMARK  status: ('A' for Active; 'I' for Inactive)
REMARK    1  A    between atoms: C_1  and  C_2
REMARK    2  A    between atoms: C_10  and  C_11
REMARK    3  A    between atoms: C_11  and  O_12
REMARK    4  A    between atoms: C_13  and  C_14
REMARK    5  A    between atoms: C_14  and  N_15
REMARK    6  A    between atoms: N_19  and  C_20
REMARK                            x       y       z     vdW  Elec       q    Type
REMARK                         _______ _______ _______ _____ _____    ______ ____
ROOT
ATOM      1  C   UNL     1       3.322  16.781  17.512  0.00  0.00    +0.000 C 
ATOM      2  C   UNL     1       2.563  15.716  18.249  0.00  0.00    +0.000 A 
ATOM      3  C   UNL     1       1.601  16.056  19.218  0.00  0.00    +0.000 A 
ATOM      4  C   UNL     1       0.843  15.080  19.880  0.00  0.00    +0.000 A 
ATOM      5  C   UNL     1       1.096  13.765  19.507  0.00  0.00    +0.000 A 
ATOM      6  O   UNL     1       0.476  12.637  19.957  0.00  0.00    +0.000 OA
ATOM      7  C   UNL     1       1.093  11.617  19.275  0.00  0.00    +0.000 A 
ATOM      8  N   UNL     1       0.699  10.360  19.553  0.00  0.00    +0.000 N 
ATOM      9  C   UNL     1      -0.324  10.035  20.530  0.00  0.00    +0.000 C 
ATOM     10  C   UNL     1       0.259   8.833  21.288  0.00  0.00    +0.000 C 
ATOM     11  C   UNL     1       1.016   8.092  20.156  0.00  0.00    +0.000 C 
ATOM     12  C   UNL     1       1.608   9.236  19.312  0.00  0.00    +0.000 C 
ATOM     13  N   UNL     1       2.053  12.012  18.466  0.00  0.00    +0.000 NA
ATOM     14  C   UNL     1       2.046  13.378  18.581  0.00  0.00    +0.000 A 
ATOM     15  C   UNL     1       2.805  14.364  17.936  0.00  0.00    +0.000 A 
ENDROOT
BRANCH  10  16
ATOM     16  C   UNL     1       1.090   9.309  22.495  0.00  0.00    +0.000 C 
BRANCH  16  17
ATOM     17  O   UNL     1       0.311   9.797  23.573  0.00  0.00    +0.000 OA
ATOM     18  H   UNL     1      -0.545   9.332  23.566  0.00  0.00    +0.000 HD
ENDBRANCH  16  17
ENDBRANCH  10  16
BRANCH  11  19
ATOM     19  C   UNL     1       2.045   7.045  20.620  0.00  0.00    +0.000 C 
BRANCH  19  20
ATOM     20  N   UNL     1       2.006   5.781  19.861  0.00  0.00    +0.000 NA
ATOM     21  C   UNL     1       2.485   4.621  20.620  0.00  0.00    +0.000 C 
ATOM     22  C   UNL     1       2.993   3.407  19.830  0.00  0.00    +0.000 C 
ATOM     23  C   UNL     1       4.418   3.570  19.288  0.00  0.00    +0.000 C 
ATOM     24  N   UNL     1       4.530   4.407  18.090  0.00  0.00    +0.000 NA
ATOM     25  C   UNL     1       5.907   4.389  17.587  0.00  0.00    +0.000 C 
ATOM     26  C   UNL     1       4.081   5.793  18.318  0.00  0.00    +0.000 C 
ATOM     27  C   UNL     1       2.554   5.913  18.502  0.00  0.00    +0.000 C 
ENDBRANCH  19  20
ENDBRANCH  11  19
TORSDOF 4
ENDMDL
MODEL 2
REMARK VINA RESULT:      -6.6      3.137      8.808
REMARK  Name = 
REMARK  6 active torsions:
REMARK  status: ('A' for Active; 'I' for Inactive)
REMARK    1  A    between atoms: C_1  and  C_2
REMARK    2  A    between atoms: C_10  and  C_11
REMARK    3  A    between atoms: C_11  and  O_12
REMARK    4  A    between atoms: C_13  and  C_14
REMARK    5  A    between atoms: C_14  and  N_15
REMARK    6  A    between atoms: N_19  and  C_20
REMARK                            x       y       z     vdW  Elec       q    Type
REMARK                         _______ _______ _______ _____ _____    ______ ____
ROOT
ATOM      1  C   UNL     1       4.787   3.640  19.416  0.00  0.00    +0.000 C 
ATOM      2  C   UNL     1       4.143   4.924  18.977  0.00  0.00    +0.000 A 
ATOM      3  C   UNL     1       4.308   5.402  17.665  0.00  0.00    +0.000 A 
ATOM      4  C   UNL     1       3.674   6.570  17.219  0.00  0.00    +0.000 A 
ATOM      5  C   UNL     1       2.867   7.210  18.150  0.00  0.00    +0.000 A 
ATOM      6  O   UNL     1       2.108   8.329  17.967  0.00  0.00    +0.000 OA
ATOM      7  C   UNL     1       1.512   8.536  19.186  0.00  0.00    +0.000 A 
ATOM      8  N   UNL     1       0.718   9.617  19.311  0.00  0.00    +0.000 N 
ATOM      9  C   UNL     1       0.473  10.564  18.238  0.00  0.00    +0.000 C 
ATOM     10  C   UNL     1       0.567  11.933  18.928  0.00  0.00    +0.000 C 
ATOM     11  C   UNL     1      -0.042  11.621  20.319  0.00  0.00    +0.000 C 
ATOM     12  C   UNL     1       0.486  10.208  20.632  0.00  0.00    +0.000 C 
ATOM     13  N   UNL     1       1.853   7.663  20.110  0.00  0.00    +0.000 NA
ATOM     14  C   UNL     1       2.691   6.797  19.457  0.00  0.00    +0.000 A 
ATOM     15  C   UNL     1       3.341   5.634  19.893  0.00  0.00    +0.000 A 
ENDROOT
BRANCH  10  16
ATOM     16  C   UNL     1       2.016  12.455  18.895  0.00  0.00    +0.000 C 
BRANCH  16  17
ATOM     17  O   UNL     1       2.690  12.206  17.675  0.00  0.00    +0.000 OA
ATOM     18  H   UNL     1       3.616  11.979  17.878  0.00  0.00    +0.000 HD
ENDBRANCH  16  17
ENDBRANCH  10  16
BRANCH  11  19
ATOM     19  C   UNL     1       0.240  12.663  21.416  0.00  0.00    +0.000 C 
BRANCH  19  20
ATOM     20  N   UNL     1      -0.857  13.626  21.631  0.00  0.00    +0.000 NA
ATOM     21  C   UNL     1      -0.650  14.508  22.784  0.00  0.00    +0.000 C 
ATOM     22  C   UNL     1      -1.887  15.153  23.425  0.00  0.00    +0.000 C 
ATOM     23  C   UNL     1      -2.666  14.214  24.354  0.00  0.00    +0.000 C 
ATOM     24  N   UNL     1      -3.519  13.238  23.670  0.00  0.00    +0.000 NA
ATOM     25  C   UNL     1      -4.310  12.485  24.648  0.00  0.00    +0.000 C 
ATOM     26  C   UNL     1      -2.755  12.321  22.805  0.00  0.00    +0.000 C 
ATOM     27  C   UNL     1      -2.188  13.007  21.544  0.00  0.00    +0.000 C 
ENDBRANCH  19  20
ENDBRANCH  11  19
TORSDOF 4
ENDMDL
MODEL 3
REMARK VINA RESULT:      -6.6      6.636     10.966
REMARK  Name = 
REMARK  6 active torsions:
REMARK  status: ('A' for Active; 'I' for Inactive)
REMARK    1  A    between atoms: C_1  and  C_2
REMARK    2  A    between atoms: C_10  and  C_11
REMARK    3  A    between atoms: C_11  and  O_12
REMARK    4  A    between atoms: C_13  and  C_14
REMARK    5  A    between atoms: C_14  and  N_15
REMARK    6  A    between atoms: N_19  and  C_20
REMARK                            x       y       z     vdW  Elec       q    Type
REMARK                         _______ _______ _______ _____ _____    ______ ____
ROOT
ATOM      1  C   UNL     1       4.946   4.377  16.656  0.00  0.00    +0.000 C 
ATOM      2  C   UNL     1       5.902   5.315  17.335  0.00  0.00    +0.000 A 
ATOM      3  C   UNL     1       6.684   4.885  18.421  0.00  0.00    +0.000 A 
ATOM      4  C   UNL     1       7.621   5.728  19.036  0.00  0.00    +0.000 A 
ATOM      5  C   UNL     1       7.731   7.002  18.495  0.00  0.00    +0.000 A 
ATOM      6  O   UNL     1       8.586   7.997  18.870  0.00  0.00    +0.000 OA
ATOM      7  C   UNL     1       8.290   9.035  18.022  0.00  0.00    +0.000 A 
ATOM      8  N   UNL     1       8.970  10.185  18.191  0.00  0.00    +0.000 N 
ATOM      9  C   UNL     1       9.979  10.380  19.216  0.00  0.00    +0.000 C 
ATOM     10  C   UNL     1       9.671  11.777  19.775  0.00  0.00    +0.000 C 
ATOM     11  C   UNL     1       9.198  12.522  18.500  0.00  0.00    +0.000 C 
ATOM     12  C   UNL     1       8.390  11.453  17.740  0.00  0.00    +0.000 C 
ATOM     13  N   UNL     1       7.314   8.780  17.176  0.00  0.00    +0.000 NA
ATOM     14  C   UNL     1       6.969   7.481  17.446  0.00  0.00    +0.000 A 
ATOM     15  C   UNL     1       6.028   6.632  16.849  0.00  0.00    +0.000 A 
ENDROOT
BRANCH  10  16
ATOM     16  C   UNL     1       8.674  11.681  20.945  0.00  0.00    +0.000 C 
BRANCH  16  17
ATOM     17  O   UNL     1       9.224  11.126  22.126  0.00  0.00    +0.000 OA
ATOM     18  H   UNL     1       9.425  11.854  22.741  0.00  0.00    +0.000 HD
ENDBRANCH  16  17
ENDBRANCH  10  16
BRANCH  11  19
ATOM     19  C   UNL     1       8.439  13.839  18.744  0.00  0.00    +0.000 C 
BRANCH  19  20
ATOM     20  N   UNL     1       9.053  15.019  18.105  0.00  0.00    +0.000 NA
ATOM     21  C   UNL     1      10.311  14.726  17.411  0.00  0.00    +0.000 C 
ATOM     22  C   UNL     1      11.291  15.885  17.182  0.00  0.00    +0.000 C 
ATOM     23  C   UNL     1      12.122  16.248  18.418  0.00  0.00    +0.000 C 
ATOM     24  N   UNL     1      11.412  17.037  19.429  0.00  0.00    +0.000 NA
ATOM     25  C   UNL     1      12.333  17.435  20.498  0.00  0.00    +0.000 C 
ATOM     26  C   UNL     1      10.245  16.330  19.988  0.00  0.00    +0.000 C 
ATOM     27  C   UNL     1       9.080  16.196  18.985  0.00  0.00    +0.000 C 
ENDBRANCH  19  20
ENDBRANCH  11  19
TORSDOF 4
ENDMDL
MODEL 4
REMARK VINA RESULT:      -6.4      2.731      4.497
REMARK  Name = 
REMARK  6 active torsions:
REMARK  status: ('A' for Active; 'I' for Inactive)
REMARK    1  A    between atoms: C_1  and  C_2
REMARK    2  A    between atoms: C_10  and  C_11
REMARK    3  A    between atoms: C_11  and  O_12
REMARK    4  A    between atoms: C_13  and  C_14
REMARK    5  A    between atoms: C_14  and  N_15
REMARK    6  A    between atoms: N_19  and  C_20
REMARK                            x       y       z     vdW  Elec       q    Type
REMARK                         _______ _______ _______ _____ _____    ______ ____
ROOT
ATOM      1  C   UNL     1      -4.161  12.921  24.618  0.00  0.00    +0.000 C 
ATOM      2  C   UNL     1      -3.312  12.701  23.400  0.00  0.00    +0.000 A 
ATOM      3  C   UNL     1      -3.430  13.540  22.278  0.00  0.00    +0.000 A 
ATOM      4  C   UNL     1      -2.611  13.386  21.151  0.00  0.00    +0.000 A 
ATOM      5  C   UNL     1      -1.673  12.364  21.223  0.00  0.00    +0.000 A 
ATOM      6  O   UNL     1      -0.732  12.028  20.294  0.00  0.00    +0.000 OA
ATOM      7  C   UNL     1      -0.070  10.963  20.854  0.00  0.00    +0.000 A 
ATOM      8  N   UNL     1       0.909  10.391  20.126  0.00  0.00    +0.000 N 
ATOM      9  C   UNL     1       1.285  10.833  18.796  0.00  0.00    +0.000 C 
ATOM     10  C   UNL     1       1.460   9.526  18.009  0.00  0.00    +0.000 C 
ATOM     11  C   UNL     1       2.047   8.588  19.095  0.00  0.00    +0.000 C 
ATOM     12  C   UNL     1       1.284   8.996  20.370  0.00  0.00    +0.000 C 
ATOM     13  N   UNL     1      -0.533  10.596  22.030  0.00  0.00    +0.000 NA
ATOM     14  C   UNL     1      -1.533  11.497  22.290  0.00  0.00    +0.000 A 
ATOM     15  C   UNL     1      -2.367  11.655  23.405  0.00  0.00    +0.000 A 
ENDROOT
BRANCH  10  16
ATOM     16  C   UNL     1       0.128   9.105  17.360  0.00  0.00    +0.000 C 
BRANCH  16  17
ATOM     17  O   UNL     1      -0.850  10.129  17.336  0.00  0.00    +0.000 OA
ATOM     18  H   UNL     1      -1.241  10.199  18.226  0.00  0.00    +0.000 HD
ENDBRANCH  16  17
ENDBRANCH  10  16
BRANCH  11  19
ATOM     19  C   UNL     1       1.991   7.084  18.774  0.00  0.00    +0.000 C 
BRANCH  19  20
ATOM     20  N   UNL     1       2.993   6.274  19.494  0.00  0.00    +0.000 NA
ATOM     21  C   UNL     1       4.261   6.125  18.771  0.00  0.00    +0.000 C 
ATOM     22  C   UNL     1       5.149   4.924  19.122  0.00  0.00    +0.000 C 
ATOM     23  C   UNL     1       4.695   3.607  18.483  0.00  0.00    +0.000 C 
ATOM     24  N   UNL     1       3.553   2.964  19.140  0.00  0.00    +0.000 NA
ATOM     25  C   UNL     1       3.287   1.658  18.529  0.00  0.00    +0.000 C 
ATOM     26  C   UNL     1       2.339   3.801  19.120  0.00  0.00    +0.000 C 
ATOM     27  C   UNL     1       2.435   5.032  20.046  0.00  0.00    +0.000 C 
ENDBRANCH  19  20
ENDBRANCH  11  19
TORSDOF 4
ENDMDL
MODEL 5
REMARK VINA RESULT:      -6.4      5.574     10.310
REMARK  Name = 
REMARK  6 active torsions:
REMARK  status: ('A' for Active; 'I' for Inactive)
REMARK    1  A    between atoms: C_1  and  C_2
REMARK    2  A    between atoms: C_10  and  C_11
REMARK    3  A    between atoms: C_11  and  O_12
REMARK    4  A    between atoms: C_13  and  C_14
REMARK    5  A    between atoms: C_14  and  N_15
REMARK    6  A    between atoms: N_19  and  C_20
REMARK                            x       y       z     vdW  Elec       q    Type
REMARK                         _______ _______ _______ _____ _____    ______ ____
ROOT
ATOM      1  C   UNL     1       5.074   4.936  16.992  0.00  0.00    +0.000 C 
ATOM      2  C   UNL     1       6.107   5.853  17.580  0.00  0.00    +0.000 A 
ATOM      3  C   UNL     1       7.001   5.395  18.564  0.00  0.00    +0.000 A 
ATOM      4  C   UNL     1       8.007   6.219  19.090  0.00  0.00    +0.000 A 
ATOM      5  C   UNL     1       8.067   7.504  18.567  0.00  0.00    +0.000 A 
ATOM      6  O   UNL     1       8.966   8.485  18.866  0.00  0.00    +0.000 OA
ATOM      7  C   UNL     1       8.586   9.544  18.079  0.00  0.00    +0.000 A 
ATOM      8  N   UNL     1       9.290  10.686  18.196  0.00  0.00    +0.000 N 
ATOM      9  C   UNL     1      10.408  10.852  19.107  0.00  0.00    +0.000 C 
ATOM     10  C   UNL     1      10.175  12.238  19.726  0.00  0.00    +0.000 C 
ATOM     11  C   UNL     1       9.570  13.014  18.528  0.00  0.00    +0.000 C 
ATOM     12  C   UNL     1       8.674  11.967  17.839  0.00  0.00    +0.000 C 
ATOM     13  N   UNL     1       7.521   9.313  17.341  0.00  0.00    +0.000 NA
ATOM     14  C   UNL     1       7.198   8.010  17.619  0.00  0.00    +0.000 A 
ATOM     15  C   UNL     1       6.189   7.180  17.112  0.00  0.00    +0.000 A 
ENDROOT
BRANCH  10  16
ATOM     16  C   UNL     1       9.312  12.122  20.997  0.00  0.00    +0.000 C 
BRANCH  16  17
ATOM     17  O   UNL     1       9.288  10.823  21.560  0.00  0.00    +0.000 OA
ATOM     18  H   UNL     1       9.179  10.909  22.525  0.00  0.00    +0.000 HD
ENDBRANCH  16  17
ENDBRANCH  10  16
BRANCH  11  19
ATOM     19  C   UNL     1       8.853  14.329  18.883  0.00  0.00    +0.000 C 
BRANCH  19  20
ATOM     20  N   UNL     1       7.385  14.212  18.975  0.00  0.00    +0.000 NA
ATOM     21  C   UNL     1       6.676  14.747  17.808  0.00  0.00    +0.000 C 
ATOM     22  C   UNL     1       5.213  15.172  17.990  0.00  0.00    +0.000 C 
ATOM     23  C   UNL     1       5.042  16.544  18.652  0.00  0.00    +0.000 C 
ATOM     24  N   UNL     1       5.235  16.556  20.105  0.00  0.00    +0.000 NA
ATOM     25  C   UNL     1       4.924  17.883  20.645  0.00  0.00    +0.000 C 
ATOM     26  C   UNL     1       6.593  16.141  20.503  0.00  0.00    +0.000 C 
ATOM     27  C   UNL     1       6.858  14.637  20.279  0.00  0.00    +0.000 C 
ENDBRANCH  19  20
ENDBRANCH  11  19
TORSDOF 4
ENDMDL
MODEL 6
REMARK VINA RESULT:      -6.4      3.238      8.789
REMARK  Name = 
REMARK  6 active torsions:
REMARK  status: ('A' for Active; 'I' for Inactive)
REMARK    1  A    between atoms: C_1  and  C_2
REMARK    2  A    between atoms: C_10  and  C_11
REMARK    3  A    between atoms: C_11  and  O_12
REMARK    4  A    between atoms: C_13  and  C_14
REMARK    5  A    between atoms: C_14  and  N_15
REMARK    6  A    between atoms: N_19  and  C_20
REMARK                            x       y       z     vdW  Elec       q    Type
REMARK                         _______ _______ _______ _____ _____    ______ ____
ROOT
ATOM      1  C   UNL     1       4.800   3.963  19.169  0.00  0.00    +0.000 C 
ATOM      2  C   UNL     1       4.066   5.229  18.832  0.00  0.00    +0.000 A 
ATOM      3  C   UNL     1       4.093   5.752  17.527  0.00  0.00    +0.000 A 
ATOM      4  C   UNL     1       3.372   6.903  17.177  0.00  0.00    +0.000 A 
ATOM      5  C   UNL     1       2.626   7.479  18.197  0.00  0.00    +0.000 A 
ATOM      6  O   UNL     1       1.808   8.568  18.119  0.00  0.00    +0.000 OA
ATOM      7  C   UNL     1       1.316   8.713  19.393  0.00  0.00    +0.000 A 
ATOM      8  N   UNL     1       0.491   9.753  19.623  0.00  0.00    +0.000 N 
ATOM      9  C   UNL     1       0.112  10.718  18.608  0.00  0.00    +0.000 C 
ATOM     10  C   UNL     1       0.210  12.069  19.331  0.00  0.00    +0.000 C 
ATOM     11  C   UNL     1      -0.258  11.690  20.760  0.00  0.00    +0.000 C 
ATOM     12  C   UNL     1       0.355  10.294  20.978  0.00  0.00    +0.000 C 
ATOM     13  N   UNL     1       1.775   7.829  20.254  0.00  0.00    +0.000 NA
ATOM     14  C   UNL     1       2.586   7.020  19.500  0.00  0.00    +0.000 A 
ATOM     15  C   UNL     1       3.321   5.876  19.838  0.00  0.00    +0.000 A 
ENDROOT
BRANCH  10  16
ATOM     16  C   UNL     1       1.627  12.656  19.187  0.00  0.00    +0.000 C 
BRANCH  16  17
ATOM     17  O   UNL     1       2.265  12.327  17.967  0.00  0.00    +0.000 OA
ATOM     18  H   UNL     1       1.934  11.458  17.674  0.00  0.00    +0.000 HD
ENDBRANCH  16  17
ENDBRANCH  10  16
BRANCH  11  19
ATOM     19  C   UNL     1       0.077  12.712  21.861  0.00  0.00    +0.000 C 
BRANCH  19  20
ATOM     20  N   UNL     1      -0.881  12.727  22.984  0.00  0.00    +0.000 NA
ATOM     21  C   UNL     1      -2.083  11.923  22.744  0.00  0.00    +0.000 C 
ATOM     22  C   UNL     1      -3.346  12.266  23.546  0.00  0.00    +0.000 C 
ATOM     23  C   UNL     1      -4.116  13.476  23.006  0.00  0.00    +0.000 C 
ATOM     24  N   UNL     1      -3.537  14.779  23.347  0.00  0.00    +0.000 NA
ATOM     25  C   UNL     1      -4.418  15.859  22.894  0.00  0.00    +0.000 C 
ATOM     26  C   UNL     1      -2.177  14.957  22.805  0.00  0.00    +0.000 C 
ATOM     27  C   UNL     1      -1.122  14.079  23.510  0.00  0.00    +0.000 C 
ENDBRANCH  19  20
ENDBRANCH  11  19
TORSDOF 4
ENDMDL
MODEL 7
REMARK VINA RESULT:      -6.4      3.597      6.325
REMARK  Name = 
REMARK  6 active torsions:
REMARK  status: ('A' for Active; 'I' for Inactive)
REMARK    1  A    between atoms: C_1  and  C_2
REMARK    2  A    between atoms: C_10  and  C_11
REMARK    3  A    between atoms: C_11  and  O_12
REMARK    4  A    between atoms: C_13  and  C_14
REMARK    5  A    between atoms: C_14  and  N_15
REMARK    6  A    between atoms: N_19  and  C_20
REMARK                            x       y       z     vdW  Elec       q    Type
REMARK                         _______ _______ _______ _____ _____    ______ ____
ROOT
ATOM      1  C   UNL     1      -0.700  11.960  19.909  0.00  0.00    +0.000 C 
ATOM      2  C   UNL     1       0.104  10.692  19.922  0.00  0.00    +0.000 A 
ATOM      3  C   UNL     1       0.110   9.853  21.050  0.00  0.00    +0.000 A 
ATOM      4  C   UNL     1       0.812   8.639  21.065  0.00  0.00    +0.000 A 
ATOM      5  C   UNL     1       1.486   8.319  19.893  0.00  0.00    +0.000 A 
ATOM      6  O   UNL     1       2.203   7.190  19.625  0.00  0.00    +0.000 OA
ATOM      7  C   UNL     1       2.653   7.372  18.341  0.00  0.00    +0.000 A 
ATOM      8  N   UNL     1       3.435   6.409  17.817  0.00  0.00    +0.000 N 
ATOM      9  C   UNL     1       3.827   5.211  18.537  0.00  0.00    +0.000 C 
ATOM     10  C   UNL     1       5.319   5.054  18.206  0.00  0.00    +0.000 C 
ATOM     11  C   UNL     1       5.364   5.556  16.740  0.00  0.00    +0.000 C 
ATOM     12  C   UNL     1       4.366   6.730  16.733  0.00  0.00    +0.000 C 
ATOM     13  N   UNL     1       2.300   8.520  17.803  0.00  0.00    +0.000 NA
ATOM     14  C   UNL     1       1.533   9.120  18.768  0.00  0.00    +0.000 A 
ATOM     15  C   UNL     1       0.837  10.336  18.772  0.00  0.00    +0.000 A 
ENDROOT
BRANCH  10  16
ATOM     16  C   UNL     1       6.181   5.809  19.235  0.00  0.00    +0.000 C 
BRANCH  16  17
ATOM     17  O   UNL     1       7.321   5.089  19.669  0.00  0.00    +0.000 OA
ATOM     18  H   UNL     1       7.521   4.404  19.005  0.00  0.00    +0.000 HD
ENDBRANCH  16  17
ENDBRANCH  10  16
BRANCH  11  19
ATOM     19  C   UNL     1       6.762   5.906  16.201  0.00  0.00    +0.000 C 
BRANCH  19  20
ATOM     20  N   UNL     1       7.323   4.903  15.275  0.00  0.00    +0.000 NA
ATOM     21  C   UNL     1       7.913   5.481  14.064  0.00  0.00    +0.000 C 
ATOM     22  C   UNL     1       8.035   4.583  12.826  0.00  0.00    +0.000 C 
ATOM     23  C   UNL     1       6.726   4.424  12.043  0.00  0.00    +0.000 C 
ATOM     24  N   UNL     1       5.763   3.490  12.636  0.00  0.00    +0.000 NA
ATOM     25  C   UNL     1       4.612   3.319  11.745  0.00  0.00    +0.000 C 
ATOM     26  C   UNL     1       5.320   3.906  13.979  0.00  0.00    +0.000 C 
ATOM     27  C   UNL     1       6.420   3.764  15.052  0.00  0.00    +0.000 C 
ENDBRANCH  19  20
ENDBRANCH  11  19
TORSDOF 4
ENDMDL
MODEL 8
REMARK VINA RESULT:      -6.3      1.969      8.726
REMARK  Name = 
REMARK  6 active torsions:
REMARK  status: ('A' for Active; 'I' for Inactive)
REMARK    1  A    between atoms: C_1  and  C_2
REMARK    2  A    between atoms: C_10  and  C_11
REMARK    3  A    between atoms: C_11  and  O_12
REMARK    4  A    between atoms: C_13  and  C_14
REMARK    5  A    between atoms: C_14  and  N_15
REMARK    6  A    between atoms: N_19  and  C_20
REMARK                            x       y       z     vdW  Elec       q    Type
REMARK                         _______ _______ _______ _____ _____    ______ ____
ROOT
ATOM      1  C   UNL     1       3.141   1.549  18.192  0.00  0.00    +0.000 C 
ATOM      2  C   UNL     1       2.783   2.780  18.974  0.00  0.00    +0.000 A 
ATOM      3  C   UNL     1       2.550   2.711  20.359  0.00  0.00    +0.000 A 
ATOM      4  C   UNL     1       2.266   3.855  21.118  0.00  0.00    +0.000 A 
ATOM      5  C   UNL     1       2.245   5.054  20.416  0.00  0.00    +0.000 A 
ATOM      6  O   UNL     1       2.041   6.308  20.912  0.00  0.00    +0.000 OA
ATOM      7  C   UNL     1       2.122   7.124  19.812  0.00  0.00    +0.000 A 
ATOM      8  N   UNL     1       1.919   8.442  20.003  0.00  0.00    +0.000 N 
ATOM      9  C   UNL     1       1.614   9.030  21.294  0.00  0.00    +0.000 C 
ATOM     10  C   UNL     1       0.494  10.034  20.985  0.00  0.00    +0.000 C 
ATOM     11  C   UNL     1       0.914  10.545  19.583  0.00  0.00    +0.000 C 
ATOM     12  C   UNL     1       1.462   9.282  18.893  0.00  0.00    +0.000 C 
ATOM     13  N   UNL     1       2.333   6.486  18.680  0.00  0.00    +0.000 NA
ATOM     14  C   UNL     1       2.443   5.172  19.054  0.00  0.00    +0.000 A 
ATOM     15  C   UNL     1       2.713   4.018  18.305  0.00  0.00    +0.000 A 
ENDROOT
BRANCH  10  16
ATOM     16  C   UNL     1      -0.885   9.357  21.104  0.00  0.00    +0.000 C 
BRANCH  16  17
ATOM     17  O   UNL     1      -0.867   8.138  21.825  0.00  0.00    +0.000 OA
ATOM     18  H   UNL     1      -0.505   8.314  22.713  0.00  0.00    +0.000 HD
ENDBRANCH  16  17
ENDBRANCH  10  16
BRANCH  11  19
ATOM     19  C   UNL     1      -0.181  11.280  18.789  0.00  0.00    +0.000 C 
BRANCH  19  20
ATOM     20  N   UNL     1       0.131  12.692  18.495  0.00  0.00    +0.000 NA
ATOM     21  C   UNL     1       1.566  12.993  18.497  0.00  0.00    +0.000 C 
ATOM     22  C   UNL     1       1.993  14.447  18.739  0.00  0.00    +0.000 C 
ATOM     23  C   UNL     1       1.961  14.867  20.213  0.00  0.00    +0.000 C 
ATOM     24  N   UNL     1       0.626  15.164  20.741  0.00  0.00    +0.000 NA
ATOM     25  C   UNL     1       0.725  15.676  22.111  0.00  0.00    +0.000 C 
ATOM     26  C   UNL     1      -0.280  14.001  20.688  0.00  0.00    +0.000 C 
ATOM     27  C   UNL     1      -0.710  13.632  19.252  0.00  0.00    +0.000 C 
ENDBRANCH  19  20
ENDBRANCH  11  19
TORSDOF 4
ENDMDL
MODEL 9
REMARK VINA RESULT:      -6.2      5.466      6.678
REMARK  Name = 
REMARK  6 active torsions:
REMARK  status: ('A' for Active; 'I' for Inactive)
REMARK    1  A    between atoms: C_1  and  C_2
REMARK    2  A    between atoms: C_10  and  C_11
REMARK    3  A    between atoms: C_11  and  O_12
REMARK    4  A    between atoms: C_13  and  C_14
REMARK    5  A    between atoms: C_14  and  N_15
REMARK    6  A    between atoms: N_19  and  C_20
REMARK                            x       y       z     vdW  Elec       q    Type
REMARK                         _______ _______ _______ _____ _____    ______ ____
ROOT
ATOM      1  C   UNL     1      10.977  13.335  19.794  0.00  0.00    +0.000 C 
ATOM      2  C   UNL     1      10.014  12.396  19.125  0.00  0.00    +0.000 A 
ATOM      3  C   UNL     1       9.136  12.855  18.127  0.00  0.00    +0.000 A 
ATOM      4  C   UNL     1       8.266  11.986  17.453  0.00  0.00    +0.000 A 
ATOM      5  C   UNL     1       8.339  10.650  17.826  0.00  0.00    +0.000 A 
ATOM      6  O   UNL     1       7.644   9.599  17.305  0.00  0.00    +0.000 OA
ATOM      7  C   UNL     1       8.088   8.513  18.018  0.00  0.00    +0.000 A 
ATOM      8  N   UNL     1       7.534   7.318  17.735  0.00  0.00    +0.000 N 
ATOM      9  C   UNL     1       6.499   7.129  16.735  0.00  0.00    +0.000 C 
ATOM     10  C   UNL     1       5.498   6.183  17.416  0.00  0.00    +0.000 C 
ATOM     11  C   UNL     1       6.444   5.279  18.248  0.00  0.00    +0.000 C 
ATOM     12  C   UNL     1       7.527   6.256  18.744  0.00  0.00    +0.000 C 
ATOM     13  N   UNL     1       8.974   8.802  18.947  0.00  0.00    +0.000 NA
ATOM     14  C   UNL     1       9.165  10.154  18.816  0.00  0.00    +0.000 A 
ATOM     15  C   UNL     1      10.021  11.035  19.491  0.00  0.00    +0.000 A 
ENDROOT
BRANCH  10  16
ATOM     16  C   UNL     1       4.436   6.988  18.188  0.00  0.00    +0.000 C 
BRANCH  16  17
ATOM     17  O   UNL     1       3.466   7.604  17.360  0.00  0.00    +0.000 OA
ATOM     18  H   UNL     1       2.628   7.652  17.854  0.00  0.00    +0.000 HD
ENDBRANCH  16  17
ENDBRANCH  10  16
BRANCH  11  19
ATOM     19  C   UNL     1       5.770   4.459  19.362  0.00  0.00    +0.000 C 
BRANCH  19  20
ATOM     20  N   UNL     1       5.028   3.278  18.878  0.00  0.00    +0.000 NA
ATOM     21  C   UNL     1       4.244   3.529  17.665  0.00  0.00    +0.000 C 
ATOM     22  C   UNL     1       3.056   2.602  17.375  0.00  0.00    +0.000 C 
ATOM     23  C   UNL     1       1.798   2.931  18.188  0.00  0.00    +0.000 C 
ATOM     24  N   UNL     1       1.826   2.472  19.580  0.00  0.00    +0.000 NA
ATOM     25  C   UNL     1       0.532   2.724  20.221  0.00  0.00    +0.000 C 
ATOM     26  C   UNL     1       2.918   3.084  20.360  0.00  0.00    +0.000 C 
ATOM     27  C   UNL     1       4.315   2.571  19.953  0.00  0.00    +0.000 C 
ENDBRANCH  19  20
ENDBRANCH  11  19
TORSDOF 4
ENDMDL
