MODEL 1
REMARK VINA RESULT:      -7.0      0.000      0.000
REMARK  Name = 
REMARK  7 active torsions:
REMARK  status: ('A' for Active; 'I' for Inactive)
REMARK    1  A    between atoms: C_1  and  O_2
REMARK    2  A    between atoms: O_2  and  C_3
REMARK    3  A    between atoms: C_5  and  O_6
REMARK    4  A    between atoms: O_6  and  C_7
REMARK    5  A    between atoms: C_8  and  C_9
REMARK    6  A    between atoms: C_20  and  O_21
REMARK    7  A    between atoms: O_21  and  C_22
REMARK                            x       y       z     vdW  Elec       q    Type
REMARK                         _______ _______ _______ _____ _____    ______ ____
ROOT
ATOM      1  C   UNL     1       4.214   4.641  18.427  0.00  0.00    +0.000 A 
ATOM      2  C   UNL     1       3.668   4.332  19.675  0.00  0.00    +0.000 A 
ATOM      3  C   UNL     1       2.631   5.187  20.375  0.00  0.00    +0.000 A 
ATOM      4  C   UNL     1       2.196   6.549  19.927  0.00  0.00    +0.000 A 
ATOM      5  C   UNL     1       2.618   6.664  18.562  0.00  0.00    +0.000 A 
ATOM      6  C   UNL     1       3.573   5.746  17.860  0.00  0.00    +0.000 A 
ENDROOT
BRANCH   4   7
ATOM      7  C   UNL     1       1.125   7.772  20.739  0.00  0.00    +0.000 C 
ATOM      8  C   UNL     1       0.808   8.977  21.658  0.00  0.00    +0.000 C 
ATOM      9  C   UNL     1       0.350   9.672  20.436  0.00  0.00    +0.000 C 
ATOM     10  O   UNL     1      -0.773   9.429  19.985  0.00  0.00    +0.000 OA
ATOM     11  N   UNL     1       0.952  10.898  20.682  0.00  0.00    +0.000 N 
ATOM     12  C   UNL     1       0.208  11.344  21.765  0.00  0.00    +0.000 A 
ATOM     13  C   UNL     1       0.079  12.880  21.678  0.00  0.00    +0.000 A 
ATOM     14  C   UNL     1      -0.793  13.661  22.386  0.00  0.00    +0.000 A 
ATOM     15  C   UNL     1      -1.579  12.828  23.103  0.00  0.00    +0.000 A 
ATOM     16  C   UNL     1      -1.263  11.224  23.143  0.00  0.00    +0.000 A 
ATOM     17  C   UNL     1      -0.345  10.208  22.488  0.00  0.00    +0.000 A 
ATOM     18  H   UNL     1       1.883  10.825  21.099  0.00  0.00    +0.000 HD
ENDBRANCH   4   7
BRANCH   1  20
ATOM     19  C   UNL     1       5.518   4.196  16.505  0.00  0.00    +0.000 C 
ATOM     20  O   UNL     1       5.091   3.791  17.784  0.00  0.00    +0.000 OA
ENDBRANCH   1  20
BRANCH   3  21
ATOM     21  O   UNL     1       2.101   4.376  21.386  0.00  0.00    +0.000 OA
ATOM     22  C   UNL     1       1.468   3.193  20.957  0.00  0.00    +0.000 C 
ENDBRANCH   3  21
BRANCH   5  23
ATOM     23  O   UNL     1       1.957   7.630  17.839  0.00  0.00    +0.000 OA
ATOM     24  C   UNL     1       2.594   8.902  17.761  0.00  0.00    +0.000 C 
ENDBRANCH   5  23
TORSDOF 4
ENDMDL
MODEL 2
REMARK VINA RESULT:      -7.0      2.248      8.241
REMARK  Name = 
REMARK  7 active torsions:
REMARK  status: ('A' for Active; 'I' for Inactive)
REMARK    1  A    between atoms: C_1  and  O_2
REMARK    2  A    between atoms: O_2  and  C_3
REMARK    3  A    between atoms: C_5  and  O_6
REMARK    4  A    between atoms: O_6  and  C_7
REMARK    5  A    between atoms: C_8  and  C_9
REMARK    6  A    between atoms: C_20  and  O_21
REMARK    7  A    between atoms: O_21  and  C_22
REMARK                            x       y       z     vdW  Elec       q    Type
REMARK                         _______ _______ _______ _____ _____    ______ ____
ROOT
ATOM      1  C   UNL     1       0.178  10.131  22.060  0.00  0.00    +0.000 A 
ATOM      2  C   UNL     1       0.022  10.527  20.730  0.00  0.00    +0.000 A 
ATOM      3  C   UNL     1       0.615   9.780  19.553  0.00  0.00    +0.000 A 
ATOM      4  C   UNL     1       1.587   8.644  19.659  0.00  0.00    +0.000 A 
ATOM      5  C   UNL     1       1.496   8.176  21.010  0.00  0.00    +0.000 A 
ATOM      6  C   UNL     1       0.817   8.890  22.140  0.00  0.00    +0.000 A 
ENDROOT
BRANCH   4   7
ATOM      7  C   UNL     1       2.530   7.775  18.371  0.00  0.00    +0.000 C 
ATOM      8  C   UNL     1       3.791   7.420  17.546  0.00  0.00    +0.000 C 
ATOM      9  C   UNL     1       3.658   6.056  18.100  0.00  0.00    +0.000 C 
ATOM     10  O   UNL     1       2.837   5.278  17.606  0.00  0.00    +0.000 OA
ATOM     11  N   UNL     1       4.997   5.846  18.401  0.00  0.00    +0.000 N 
ATOM     12  C   UNL     1       5.545   5.770  17.130  0.00  0.00    +0.000 A 
ATOM     13  C   UNL     1       6.714   4.763  17.154  0.00  0.00    +0.000 A 
ATOM     14  C   UNL     1       7.326   4.204  16.065  0.00  0.00    +0.000 A 
ATOM     15  C   UNL     1       6.654   4.629  14.973  0.00  0.00    +0.000 A 
ATOM     16  C   UNL     1       5.480   5.758  15.112  0.00  0.00    +0.000 A 
ATOM     17  C   UNL     1       4.717   6.508  16.187  0.00  0.00    +0.000 A 
ATOM     18  H   UNL     1       5.471   6.673  18.771  0.00  0.00    +0.000 HD
ENDBRANCH   4   7
BRANCH   1  20
ATOM     19  C   UNL     1      -1.276  11.871  22.730  0.00  0.00    +0.000 C 
ATOM     20  O   UNL     1      -0.452  10.790  23.097  0.00  0.00    +0.000 OA
ENDBRANCH   1  20
BRANCH   3  21
ATOM     21  O   UNL     1      -0.048  10.275  18.425  0.00  0.00    +0.000 OA
ATOM     22  C   UNL     1      -1.444  10.423  18.546  0.00  0.00    +0.000 C 
ENDBRANCH   3  21
BRANCH   5  23
ATOM     23  O   UNL     1       1.962   6.897  21.205  0.00  0.00    +0.000 OA
ATOM     24  C   UNL     1       1.124   5.844  20.737  0.00  0.00    +0.000 C 
ENDBRANCH   5  23
TORSDOF 4
ENDMDL
MODEL 3
REMARK VINA RESULT:      -6.9      2.445      8.060
REMARK  Name = 
REMARK  7 active torsions:
REMARK  status: ('A' for Active; 'I' for Inactive)
REMARK    1  A    between atoms: C_1  and  O_2
REMARK    2  A    between atoms: O_2  and  C_3
REMARK    3  A    between atoms: C_5  and  O_6
REMARK    4  A    between atoms: O_6  and  C_7
REMARK    5  A    between atoms: C_8  and  C_9
REMARK    6  A    between atoms: C_20  and  O_21
REMARK    7  A    between atoms: O_21  and  C_22
REMARK                            x       y       z     vdW  Elec       q    Type
REMARK                         _______ _______ _______ _____ _____    ______ ____
ROOT
ATOM      1  C   UNL     1      -0.203  12.311  20.187  0.00  0.00    +0.000 A 
ATOM      2  C   UNL     1      -0.226  11.546  19.019  0.00  0.00    +0.000 A 
ATOM      3  C   UNL     1       0.288  10.123  18.934  0.00  0.00    +0.000 A 
ATOM      4  C   UNL     1       1.046   9.417  20.017  0.00  0.00    +0.000 A 
ATOM      5  C   UNL     1       0.811  10.171  21.213  0.00  0.00    +0.000 A 
ATOM      6  C   UNL     1       0.211  11.543  21.280  0.00  0.00    +0.000 A 
ENDROOT
BRANCH   4   7
ATOM      7  C   UNL     1       1.887   7.806  20.010  0.00  0.00    +0.000 C 
ATOM      8  C   UNL     1       1.972   6.261  20.043  0.00  0.00    +0.000 C 
ATOM      9  C   UNL     1       2.551   6.355  18.686  0.00  0.00    +0.000 C 
ATOM     10  O   UNL     1       3.744   6.644  18.555  0.00  0.00    +0.000 OA
ATOM     11  N   UNL     1       1.829   5.323  18.103  0.00  0.00    +0.000 N 
ATOM     12  C   UNL     1       2.367   4.223  18.753  0.00  0.00    +0.000 A 
ATOM     13  C   UNL     1       2.391   3.031  17.773  0.00  0.00    +0.000 A 
ATOM     14  C   UNL     1       3.086   1.864  17.933  0.00  0.00    +0.000 A 
ATOM     15  C   UNL     1       3.818   1.990  19.061  0.00  0.00    +0.000 A 
ATOM     16  C   UNL     1       3.622   3.292  20.031  0.00  0.00    +0.000 A 
ATOM     17  C   UNL     1       2.892   4.622  20.051  0.00  0.00    +0.000 A 
ATOM     18  H   UNL     1       0.854   5.277  18.411  0.00  0.00    +0.000 HD
ENDBRANCH   4   7
BRANCH   1  20
ATOM     19  C   UNL     1      -0.267  14.507  19.313  0.00  0.00    +0.000 C 
ATOM     20  O   UNL     1      -0.760  13.573  20.244  0.00  0.00    +0.000 OA
ENDBRANCH   1  20
BRANCH   3  21
ATOM     21  O   UNL     1      -0.227   9.613  17.736  0.00  0.00    +0.000 OA
ATOM     22  C   UNL     1      -1.529  10.031  17.398  0.00  0.00    +0.000 C 
ENDBRANCH   3  21
BRANCH   5  23
ATOM     23  O   UNL     1       1.043   9.479  22.379  0.00  0.00    +0.000 OA
ATOM     24  C   UNL     1      -0.002   9.510  23.346  0.00  0.00    +0.000 C 
ENDBRANCH   5  23
TORSDOF 4
ENDMDL
MODEL 4
REMARK VINA RESULT:      -6.7      2.484      8.207
REMARK  Name = 
REMARK  7 active torsions:
REMARK  status: ('A' for Active; 'I' for Inactive)
REMARK    1  A    between atoms: C_1  and  O_2
REMARK    2  A    between atoms: O_2  and  C_3
REMARK    3  A    between atoms: C_5  and  O_6
REMARK    4  A    between atoms: O_6  and  C_7
REMARK    5  A    between atoms: C_8  and  C_9
REMARK    6  A    between atoms: C_20  and  O_21
REMARK    7  A    between atoms: O_21  and  C_22
REMARK                            x       y       z     vdW  Elec       q    Type
REMARK                         _______ _______ _______ _____ _____    ______ ____
ROOT
ATOM      1  C   UNL     1      -1.740  11.904  19.756  0.00  0.00    +0.000 A 
ATOM      2  C   UNL     1      -1.905  11.328  18.494  0.00  0.00    +0.000 A 
ATOM      3  C   UNL     1      -1.007  10.241  17.941  0.00  0.00    +0.000 A 
ATOM      4  C   UNL     1       0.268   9.773  18.576  0.00  0.00    +0.000 A 
ATOM      5  C   UNL     1       0.221  10.236  19.932  0.00  0.00    +0.000 A 
ATOM      6  C   UNL     1      -0.744  11.244  20.481  0.00  0.00    +0.000 A 
ENDROOT
BRANCH   4   7
ATOM      7  C   UNL     1       1.544   8.636  17.961  0.00  0.00    +0.000 C 
ATOM      8  C   UNL     1       2.978   8.067  17.826  0.00  0.00    +0.000 C 
ATOM      9  C   UNL     1       2.447   6.833  18.444  0.00  0.00    +0.000 C 
ATOM     10  O   UNL     1       1.818   6.029  17.750  0.00  0.00    +0.000 OA
ATOM     11  N   UNL     1       3.494   6.601  19.326  0.00  0.00    +0.000 N 
ATOM     12  C   UNL     1       4.512   6.268  18.445  0.00  0.00    +0.000 A 
ATOM     13  C   UNL     1       5.420   5.214  19.114  0.00  0.00    +0.000 A 
ATOM     14  C   UNL     1       6.356   4.436  18.488  0.00  0.00    +0.000 A 
ATOM     15  C   UNL     1       6.269   4.699  17.166  0.00  0.00    +0.000 A 
ATOM     16  C   UNL     1       5.304   5.902  16.624  0.00  0.00    +0.000 A 
ATOM     17  C   UNL     1       4.263   6.875  17.146  0.00  0.00    +0.000 A 
ATOM     18  H   UNL     1       3.871   7.451  19.751  0.00  0.00    +0.000 HD
ENDBRANCH   4   7
BRANCH   1  20
ATOM     19  C   UNL     1      -2.343  13.334  21.540  0.00  0.00    +0.000 C 
ATOM     20  O   UNL     1      -2.633  12.830  20.258  0.00  0.00    +0.000 OA
ENDBRANCH   1  20
BRANCH   3  21
ATOM     21  O   UNL     1      -1.699   9.707  16.848  0.00  0.00    +0.000 OA
ATOM     22  C   UNL     1      -2.576  10.587  16.184  0.00  0.00    +0.000 C 
ENDBRANCH   3  21
BRANCH   5  23
ATOM     23  O   UNL     1       1.058   9.565  20.793  0.00  0.00    +0.000 OA
ATOM     24  C   UNL     1       0.471   8.504  21.541  0.00  0.00    +0.000 C 
ENDBRANCH   5  23
TORSDOF 4
ENDMDL
MODEL 5
REMARK VINA RESULT:      -6.7      1.516      1.923
REMARK  Name = 
REMARK  7 active torsions:
REMARK  status: ('A' for Active; 'I' for Inactive)
REMARK    1  A    between atoms: C_1  and  O_2
REMARK    2  A    between atoms: O_2  and  C_3
REMARK    3  A    between atoms: C_5  and  O_6
REMARK    4  A    between atoms: O_6  and  C_7
REMARK    5  A    between atoms: C_8  and  C_9
REMARK    6  A    between atoms: C_20  and  O_21
REMARK    7  A    between atoms: O_21  and  C_22
REMARK                            x       y       z     vdW  Elec       q    Type
REMARK                         _______ _______ _______ _____ _____    ______ ____
ROOT
ATOM      1  C   UNL     1       3.736   3.689  18.467  0.00  0.00    +0.000 A 
ATOM      2  C   UNL     1       2.794   3.734  19.497  0.00  0.00    +0.000 A 
ATOM      3  C   UNL     1       2.128   5.009  19.974  0.00  0.00    +0.000 A 
ATOM      4  C   UNL     1       2.515   6.393  19.547  0.00  0.00    +0.000 A 
ATOM      5  C   UNL     1       3.294   6.229  18.355  0.00  0.00    +0.000 A 
ATOM      6  C   UNL     1       3.862   4.937  17.850  0.00  0.00    +0.000 A 
ENDROOT
BRANCH   4   7
ATOM      7  C   UNL     1       1.961   8.013  20.155  0.00  0.00    +0.000 C 
ATOM      8  C   UNL     1       0.948   9.160  20.385  0.00  0.00    +0.000 C 
ATOM      9  C   UNL     1       1.102   8.884  21.830  0.00  0.00    +0.000 C 
ATOM     10  O   UNL     1       2.086   9.327  22.429  0.00  0.00    +0.000 OA
ATOM     11  N   UNL     1      -0.240   8.947  22.176  0.00  0.00    +0.000 N 
ATOM     12  C   UNL     1      -0.496  10.298  21.995  0.00  0.00    +0.000 A 
ATOM     13  C   UNL     1      -1.533  10.751  23.045  0.00  0.00    +0.000 A 
ATOM     14  C   UNL     1      -1.839  12.043  23.377  0.00  0.00    +0.000 A 
ATOM     15  C   UNL     1      -1.000  12.840  22.682  0.00  0.00    +0.000 A 
ATOM     16  C   UNL     1      -0.006  12.205  21.549  0.00  0.00    +0.000 A 
ATOM     17  C   UNL     1       0.430  10.852  21.019  0.00  0.00    +0.000 A 
ATOM     18  H   UNL     1      -0.866   8.533  21.481  0.00  0.00    +0.000 HD
ENDBRANCH   4   7
BRANCH   1  20
ATOM     19  C   UNL     1       3.589   1.329  18.427  0.00  0.00    +0.000 C 
ATOM     20  O   UNL     1       4.254   2.497  18.003  0.00  0.00    +0.000 OA
ENDBRANCH   1  20
BRANCH   3  21
ATOM     21  O   UNL     1       1.031   4.592  20.738  0.00  0.00    +0.000 OA
ATOM     22  C   UNL     1       0.991   3.222  21.062  0.00  0.00    +0.000 C 
ENDBRANCH   3  21
BRANCH   5  23
ATOM     23  O   UNL     1       3.381   7.356  17.571  0.00  0.00    +0.000 OA
ATOM     24  C   UNL     1       4.512   7.436  16.709  0.00  0.00    +0.000 C 
ENDBRANCH   5  23
TORSDOF 4
ENDMDL
MODEL 6
REMARK VINA RESULT:      -6.7      2.089      3.551
REMARK  Name = 
REMARK  7 active torsions:
REMARK  status: ('A' for Active; 'I' for Inactive)
REMARK    1  A    between atoms: C_1  and  O_2
REMARK    2  A    between atoms: O_2  and  C_3
REMARK    3  A    between atoms: C_5  and  O_6
REMARK    4  A    between atoms: O_6  and  C_7
REMARK    5  A    between atoms: C_8  and  C_9
REMARK    6  A    between atoms: C_20  and  O_21
REMARK    7  A    between atoms: O_21  and  C_22
REMARK                            x       y       z     vdW  Elec       q    Type
REMARK                         _______ _______ _______ _____ _____    ______ ____
ROOT
ATOM      1  C   UNL     1       5.149   4.305  16.090  0.00  0.00    +0.000 A 
ATOM      2  C   UNL     1       5.558   5.632  16.243  0.00  0.00    +0.000 A 
ATOM      3  C   UNL     1       4.766   6.674  17.007  0.00  0.00    +0.000 A 
ATOM      4  C   UNL     1       3.376   6.481  17.533  0.00  0.00    +0.000 A 
ATOM      5  C   UNL     1       3.153   5.066  17.537  0.00  0.00    +0.000 A 
ATOM      6  C   UNL     1       4.008   4.042  16.852  0.00  0.00    +0.000 A 
ENDROOT
BRANCH   4   7
ATOM      7  C   UNL     1       2.226   7.668  18.290  0.00  0.00    +0.000 C 
ATOM      8  C   UNL     1       1.829   8.890  19.152  0.00  0.00    +0.000 C 
ATOM      9  C   UNL     1       1.330   9.497  17.900  0.00  0.00    +0.000 C 
ATOM     10  O   UNL     1       0.226   9.160  17.461  0.00  0.00    +0.000 OA
ATOM     11  N   UNL     1       1.849  10.770  18.089  0.00  0.00    +0.000 N 
ATOM     12  C   UNL     1       1.076  11.215  19.150  0.00  0.00    +0.000 A 
ATOM     13  C   UNL     1       0.847  12.734  18.993  0.00  0.00    +0.000 A 
ATOM     14  C   UNL     1      -0.076  13.488  19.665  0.00  0.00    +0.000 A 
ATOM     15  C   UNL     1      -0.807  12.639  20.420  0.00  0.00    +0.000 A 
ATOM     16  C   UNL     1      -0.387  11.063  20.533  0.00  0.00    +0.000 A 
ATOM     17  C   UNL     1       0.596  10.080  19.926  0.00  0.00    +0.000 A 
ATOM     18  H   UNL     1       2.782  10.777  18.508  0.00  0.00    +0.000 HD
ENDBRANCH   4   7
BRANCH   1  20
ATOM     19  C   UNL     1       6.333   3.672  14.143  0.00  0.00    +0.000 C 
ATOM     20  O   UNL     1       5.942   3.366  15.461  0.00  0.00    +0.000 OA
ENDBRANCH   1  20
BRANCH   3  21
ATOM     21  O   UNL     1       5.656   7.732  17.224  0.00  0.00    +0.000 OA
ATOM     22  C   UNL     1       6.999   7.371  17.449  0.00  0.00    +0.000 C 
ENDBRANCH   3  21
BRANCH   5  23
ATOM     23  O   UNL     1       2.138   4.650  18.367  0.00  0.00    +0.000 OA
ATOM     24  C   UNL     1       2.537   4.103  19.621  0.00  0.00    +0.000 C 
ENDBRANCH   5  23
TORSDOF 4
ENDMDL
MODEL 7
REMARK VINA RESULT:      -6.6      2.399      7.841
REMARK  Name = 
REMARK  7 active torsions:
REMARK  status: ('A' for Active; 'I' for Inactive)
REMARK    1  A    between atoms: C_1  and  O_2
REMARK    2  A    between atoms: O_2  and  C_3
REMARK    3  A    between atoms: C_5  and  O_6
REMARK    4  A    between atoms: O_6  and  C_7
REMARK    5  A    between atoms: C_8  and  C_9
REMARK    6  A    between atoms: C_20  and  O_21
REMARK    7  A    between atoms: O_21  and  C_22
REMARK                            x       y       z     vdW  Elec       q    Type
REMARK                         _______ _______ _______ _____ _____    ______ ____
ROOT
ATOM      1  C   UNL     1      -0.959  11.681  19.946  0.00  0.00    +0.000 A 
ATOM      2  C   UNL     1      -0.517  11.158  21.164  0.00  0.00    +0.000 A 
ATOM      3  C   UNL     1       0.409   9.963  21.281  0.00  0.00    +0.000 A 
ATOM      4  C   UNL     1       0.821   9.080  20.142  0.00  0.00    +0.000 A 
ATOM      5  C   UNL     1       0.522   9.817  18.949  0.00  0.00    +0.000 A 
ATOM      6  C   UNL     1      -0.319  11.056  18.872  0.00  0.00    +0.000 A 
ENDROOT
BRANCH   4   7
ATOM      7  C   UNL     1       1.753   7.520  20.136  0.00  0.00    +0.000 C 
ATOM      8  C   UNL     1       1.924   5.982  20.154  0.00  0.00    +0.000 C 
ATOM      9  C   UNL     1       2.528   6.126  18.812  0.00  0.00    +0.000 C 
ATOM     10  O   UNL     1       3.705   6.484  18.712  0.00  0.00    +0.000 OA
ATOM     11  N   UNL     1       1.878   5.063  18.200  0.00  0.00    +0.000 N 
ATOM     12  C   UNL     1       2.464   3.987  18.850  0.00  0.00    +0.000 A 
ATOM     13  C   UNL     1       2.577   2.810  17.857  0.00  0.00    +0.000 A 
ATOM     14  C   UNL     1       3.334   1.682  18.020  0.00  0.00    +0.000 A 
ATOM     15  C   UNL     1       4.032   1.835  19.166  0.00  0.00    +0.000 A 
ATOM     16  C   UNL     1       3.741   3.112  20.147  0.00  0.00    +0.000 A 
ATOM     17  C   UNL     1       2.936   4.398  20.165  0.00  0.00    +0.000 A 
ATOM     18  H   UNL     1       0.901   4.957  18.485  0.00  0.00    +0.000 HD
ENDBRANCH   4   7
BRANCH   1  20
ATOM     19  C   UNL     1      -3.023  12.727  20.433  0.00  0.00    +0.000 C 
ATOM     20  O   UNL     1      -1.731  12.823  19.880  0.00  0.00    +0.000 OA
ENDBRANCH   1  20
BRANCH   3  21
ATOM     21  O   UNL     1       0.879   9.985  22.599  0.00  0.00    +0.000 OA
ATOM     22  C   UNL     1      -0.006   9.493  23.577  0.00  0.00    +0.000 C 
ENDBRANCH   3  21
BRANCH   5  23
ATOM     23  O   UNL     1       1.203   9.394  17.831  0.00  0.00    +0.000 OA
ATOM     24  C   UNL     1       2.516   9.918  17.659  0.00  0.00    +0.000 C 
ENDBRANCH   5  23
TORSDOF 4
ENDMDL
MODEL 8
REMARK VINA RESULT:      -6.6      2.408      8.200
REMARK  Name = 
REMARK  7 active torsions:
REMARK  status: ('A' for Active; 'I' for Inactive)
REMARK    1  A    between atoms: C_1  and  O_2
REMARK    2  A    between atoms: O_2  and  C_3
REMARK    3  A    between atoms: C_5  and  O_6
REMARK    4  A    between atoms: O_6  and  C_7
REMARK    5  A    between atoms: C_8  and  C_9
REMARK    6  A    between atoms: C_20  and  O_21
REMARK    7  A    between atoms: O_21  and  C_22
REMARK                            x       y       z     vdW  Elec       q    Type
REMARK                         _______ _______ _______ _____ _____    ______ ____
ROOT
ATOM      1  C   UNL     1      -1.361  12.477  20.130  0.00  0.00    +0.000 A 
ATOM      2  C   UNL     1      -1.321  11.738  18.946  0.00  0.00    +0.000 A 
ATOM      3  C   UNL     1      -0.486  10.486  18.762  0.00  0.00    +0.000 A 
ATOM      4  C   UNL     1       0.534   9.983  19.738  0.00  0.00    +0.000 A 
ATOM      5  C   UNL     1       0.252  10.649  20.976  0.00  0.00    +0.000 A 
ATOM      6  C   UNL     1      -0.657  11.829  21.149  0.00  0.00    +0.000 A 
ENDROOT
BRANCH   4   7
ATOM      7  C   UNL     1       1.740   8.631  19.593  0.00  0.00    +0.000 C 
ATOM      8  C   UNL     1       2.231   7.167  19.685  0.00  0.00    +0.000 C 
ATOM      9  C   UNL     1       2.415   7.233  18.219  0.00  0.00    +0.000 C 
ATOM     10  O   UNL     1       3.420   7.780  17.758  0.00  0.00    +0.000 OA
ATOM     11  N   UNL     1       1.867   5.996  17.907  0.00  0.00    +0.000 N 
ATOM     12  C   UNL     1       2.817   5.142  18.447  0.00  0.00    +0.000 A 
ATOM     13  C   UNL     1       2.911   3.882  17.561  0.00  0.00    +0.000 A 
ATOM     14  C   UNL     1       3.905   2.942  17.592  0.00  0.00    +0.000 A 
ATOM     15  C   UNL     1       4.832   3.374  18.474  0.00  0.00    +0.000 A 
ATOM     16  C   UNL     1       4.546   4.698  19.391  0.00  0.00    +0.000 A 
ATOM     17  C   UNL     1       3.521   5.807  19.534  0.00  0.00    +0.000 A 
ATOM     18  H   UNL     1       1.045   5.756  18.466  0.00  0.00    +0.000 HD
ENDBRANCH   4   7
BRANCH   1  20
ATOM     19  C   UNL     1      -2.203  14.164  21.557  0.00  0.00    +0.000 C 
ATOM     20  O   UNL     1      -2.201  13.562  20.285  0.00  0.00    +0.000 OA
ENDBRANCH   1  20
BRANCH   3  21
ATOM     21  O   UNL     1      -0.986   9.872  17.608  0.00  0.00    +0.000 OA
ATOM     22  C   UNL     1      -2.340  10.122  17.314  0.00  0.00    +0.000 C 
ENDBRANCH   3  21
BRANCH   5  23
ATOM     23  O   UNL     1       0.771  10.029  22.089  0.00  0.00    +0.000 OA
ATOM     24  C   UNL     1      -0.171   9.625  23.079  0.00  0.00    +0.000 C 
ENDBRANCH   5  23
TORSDOF 4
ENDMDL
MODEL 9
REMARK VINA RESULT:      -6.6      1.186      1.380
REMARK  Name = 
REMARK  7 active torsions:
REMARK  status: ('A' for Active; 'I' for Inactive)
REMARK    1  A    between atoms: C_1  and  O_2
REMARK    2  A    between atoms: O_2  and  C_3
REMARK    3  A    between atoms: C_5  and  O_6
REMARK    4  A    between atoms: O_6  and  C_7
REMARK    5  A    between atoms: C_8  and  C_9
REMARK    6  A    between atoms: C_20  and  O_21
REMARK    7  A    between atoms: O_21  and  C_22
REMARK                            x       y       z     vdW  Elec       q    Type
REMARK                         _______ _______ _______ _____ _____    ______ ____
ROOT
ATOM      1  C   UNL     1       4.027   6.280  17.983  0.00  0.00    +0.000 A 
ATOM      2  C   UNL     1       3.424   5.777  19.138  0.00  0.00    +0.000 A 
ATOM      3  C   UNL     1       2.315   6.489  19.886  0.00  0.00    +0.000 A 
ATOM      4  C   UNL     1       1.850   7.886  19.608  0.00  0.00    +0.000 A 
ATOM      5  C   UNL     1       2.344   8.209  18.302  0.00  0.00    +0.000 A 
ATOM      6  C   UNL     1       3.374   7.433  17.538  0.00  0.00    +0.000 A 
ENDROOT
BRANCH   4   7
ATOM      7  C   UNL     1       0.686   8.944  20.517  0.00  0.00    +0.000 C 
ATOM      8  C   UNL     1       0.257   9.948  21.615  0.00  0.00    +0.000 C 
ATOM      9  C   UNL     1      -0.053  10.882  20.512  0.00  0.00    +0.000 C 
ATOM     10  O   UNL     1      -1.113  10.758  19.892  0.00  0.00    +0.000 OA
ATOM     11  N   UNL     1       0.510  12.022  21.069  0.00  0.00    +0.000 N 
ATOM     12  C   UNL     1      -0.359  12.258  22.123  0.00  0.00    +0.000 A 
ATOM     13  C   UNL     1      -0.482  13.782  22.332  0.00  0.00    +0.000 A 
ATOM     14  C   UNL     1      -1.436  14.424  23.074  0.00  0.00    +0.000 A 
ATOM     15  C   UNL     1      -2.299  13.482  23.510  0.00  0.00    +0.000 A 
ATOM     16  C   UNL     1      -1.985  11.895  23.265  0.00  0.00    +0.000 A 
ATOM     17  C   UNL     1      -0.992  11.012  22.533  0.00  0.00    +0.000 A 
ATOM     18  H   UNL     1       1.385  11.847  21.570  0.00  0.00    +0.000 HD
ENDBRANCH   4   7
BRANCH   1  20
ATOM     19  C   UNL     1       4.595   4.260  16.891  0.00  0.00    +0.000 C 
ATOM     20  O   UNL     1       4.974   5.559  17.281  0.00  0.00    +0.000 OA
ENDBRANCH   1  20
BRANCH   3  21
ATOM     21  O   UNL     1       1.763   5.524  20.737  0.00  0.00    +0.000 OA
ATOM     22  C   UNL     1       1.672   4.220  20.214  0.00  0.00    +0.000 C 
ENDBRANCH   3  21
BRANCH   5  23
ATOM     23  O   UNL     1       1.686   9.246  17.683  0.00  0.00    +0.000 OA
ATOM     24  C   UNL     1       2.260  10.540  17.844  0.00  0.00    +0.000 C 
ENDBRANCH   5  23
TORSDOF 4
ENDMDL
