MODEL 1
REMARK VINA RESULT:      -8.2      0.000      0.000
REMARK  Name = 
REMARK  5 active torsions:
REMARK  status: ('A' for Active; 'I' for Inactive)
REMARK    1  A    between atoms: C_1  and  N_2
REMARK    2  A    between atoms: N_2  and  C_11
REMARK    3  A    between atoms: C_3  and  C_5
REMARK    4  A    between atoms: N_14  and  C_15
REMARK    5  A    between atoms: C_15  and  C_16
REMARK                            x       y       z     vdW  Elec       q    Type
REMARK                         _______ _______ _______ _____ _____    ______ ____
ROOT
ATOM      1  C   UNL     1      -0.645  10.683  20.402  0.00  0.00    +0.000 C 
ATOM      2  C   UNL     1      -0.097   9.368  20.984  0.00  0.00    +0.000 C 
ATOM      3  C   UNL     1       1.169   8.909  20.299  0.00  0.00    +0.000 C 
ATOM      4  N   UNL     1       1.067   8.796  18.839  0.00  0.00    +0.000 NA
ATOM      5  C   UNL     1       0.411   9.934  18.182  0.00  0.00    +0.000 C 
ATOM      6  C   UNL     1      -0.831  10.473  18.895  0.00  0.00    +0.000 C 
ENDROOT
BRANCH   1   8
ATOM      7  C   UNL     1       1.467  12.116  20.286  0.00  0.00    +0.000 C 
ATOM      8  N   UNL     1       0.118  11.910  20.808  0.00  0.00    +0.000 N 
ATOM      9  C   UNL     1      -0.437  13.040  21.446  0.00  0.00    +0.000 C 
ATOM     10  O   UNL     1       0.166  14.110  21.545  0.00  0.00    +0.000 OA
BRANCH   9  11
ATOM     11  C   UNL     1      -1.813  13.017  21.993  0.00  0.00    +0.000 A 
ATOM     12  C   UNL     1      -2.097  12.553  23.276  0.00  0.00    +0.000 A 
ATOM     13  C   UNL     1      -3.412  12.449  23.719  0.00  0.00    +0.000 A 
ATOM     14  C   UNL     1      -4.449  12.914  22.914  0.00  0.00    +0.000 A 
ATOM     15  C   UNL     1      -4.164  13.493  21.677  0.00  0.00    +0.000 A 
ATOM     16  C   UNL     1      -2.850  13.539  21.211  0.00  0.00    +0.000 A 
ENDBRANCH   9  11
ENDBRANCH   1   8
BRANCH   4  17
ATOM     17  C   UNL     1       2.447   8.622  18.345  0.00  0.00    +0.000 C 
BRANCH  17  18
ATOM     18  C   UNL     1       2.824   7.239  17.890  0.00  0.00    +0.000 A 
ATOM     19  C   UNL     1       4.133   6.992  17.459  0.00  0.00    +0.000 A 
ATOM     20  C   UNL     1       4.579   5.685  17.295  0.00  0.00    +0.000 A 
ATOM     21  C   UNL     1       3.723   4.615  17.578  0.00  0.00    +0.000 A 
ATOM     22  C   UNL     1       4.212   3.305  17.621  0.00  0.00    +0.000 A 
ATOM     23  C   UNL     1       3.353   2.264  17.948  0.00  0.00    +0.000 A 
ATOM     24  F   UNL     1       3.848   1.029  18.094  0.00  0.00    +0.000 F 
ATOM     25  C   UNL     1       1.998   2.485  18.154  0.00  0.00    +0.000 A 
ATOM     26  C   UNL     1       1.494   3.781  18.107  0.00  0.00    +0.000 A 
ATOM     27  C   UNL     1       2.358   4.865  17.884  0.00  0.00    +0.000 A 
ATOM     28  C   UNL     1       1.915   6.180  18.020  0.00  0.00    +0.000 A 
ENDBRANCH  17  18
ENDBRANCH   4  17
TORSDOF 4
ENDMDL
MODEL 2
REMARK VINA RESULT:      -7.8      1.604      2.052
REMARK  Name = 
REMARK  5 active torsions:
REMARK  status: ('A' for Active; 'I' for Inactive)
REMARK    1  A    between atoms: C_1  and  N_2
REMARK    2  A    between atoms: N_2  and  C_11
REMARK    3  A    between atoms: C_3  and  C_5
REMARK    4  A    between atoms: N_14  and  C_15
REMARK    5  A    between atoms: C_15  and  C_16
REMARK                            x       y       z     vdW  Elec       q    Type
REMARK                         _______ _______ _______ _____ _____    ______ ____
ROOT
ATOM      1  C   UNL     1      -0.804  11.602  21.213  0.00  0.00    +0.000 C 
ATOM      2  C   UNL     1      -0.790  10.607  22.387  0.00  0.00    +0.000 C 
ATOM      3  C   UNL     1       0.339   9.609  22.294  0.00  0.00    +0.000 C 
ATOM      4  N   UNL     1       0.402   8.873  21.025  0.00  0.00    +0.000 NA
ATOM      5  C   UNL     1       0.239   9.706  19.827  0.00  0.00    +0.000 C 
ATOM      6  C   UNL     1      -0.847  10.780  19.919  0.00  0.00    +0.000 C 
ENDROOT
BRANCH   1   8
ATOM      7  C   UNL     1       1.520  12.457  20.591  0.00  0.00    +0.000 C 
ATOM      8  N   UNL     1       0.251  12.666  21.284  0.00  0.00    +0.000 N 
ATOM      9  C   UNL     1       0.048  13.985  21.741  0.00  0.00    +0.000 C 
ATOM     10  O   UNL     1       0.871  14.885  21.562  0.00  0.00    +0.000 OA
BRANCH   9  11
ATOM     11  C   UNL     1      -1.206  14.379  22.424  0.00  0.00    +0.000 A 
ATOM     12  C   UNL     1      -2.308  14.876  21.730  0.00  0.00    +0.000 A 
ATOM     13  C   UNL     1      -3.430  15.332  22.415  0.00  0.00    +0.000 A 
ATOM     14  C   UNL     1      -3.499  15.191  23.798  0.00  0.00    +0.000 A 
ATOM     15  C   UNL     1      -2.451  14.582  24.489  0.00  0.00    +0.000 A 
ATOM     16  C   UNL     1      -1.302  14.182  23.807  0.00  0.00    +0.000 A 
ENDBRANCH   9  11
ENDBRANCH   1   8
BRANCH   4  17
ATOM     17  C   UNL     1       1.705   8.180  21.017  0.00  0.00    +0.000 C 
BRANCH  17  18
ATOM     18  C   UNL     1       1.821   6.987  20.110  0.00  0.00    +0.000 A 
ATOM     19  C   UNL     1       2.517   7.109  18.902  0.00  0.00    +0.000 A 
ATOM     20  C   UNL     1       2.872   5.974  18.182  0.00  0.00    +0.000 A 
ATOM     21  C   UNL     1       2.547   4.705  18.676  0.00  0.00    +0.000 A 
ATOM     22  C   UNL     1       3.072   3.554  18.080  0.00  0.00    +0.000 A 
ATOM     23  C   UNL     1       2.771   2.308  18.614  0.00  0.00    +0.000 A 
ATOM     24  F   UNL     1       3.363   1.219  18.107  0.00  0.00    +0.000 F 
ATOM     25  C   UNL     1       1.893   2.174  19.681  0.00  0.00    +0.000 A 
ATOM     26  C   UNL     1       1.355   3.309  20.280  0.00  0.00    +0.000 A 
ATOM     27  C   UNL     1       1.725   4.585  19.828  0.00  0.00    +0.000 A 
ATOM     28  C   UNL     1       1.353   5.733  20.528  0.00  0.00    +0.000 A 
ENDBRANCH  17  18
ENDBRANCH   4  17
TORSDOF 4
ENDMDL
MODEL 3
REMARK VINA RESULT:      -7.7      0.943      1.033
REMARK  Name = 
REMARK  5 active torsions:
REMARK  status: ('A' for Active; 'I' for Inactive)
REMARK    1  A    between atoms: C_1  and  N_2
REMARK    2  A    between atoms: N_2  and  C_11
REMARK    3  A    between atoms: C_3  and  C_5
REMARK    4  A    between atoms: N_14  and  C_15
REMARK    5  A    between atoms: C_15  and  C_16
REMARK                            x       y       z     vdW  Elec       q    Type
REMARK                         _______ _______ _______ _____ _____    ______ ____
ROOT
ATOM      1  C   UNL     1      -0.235  11.688  19.793  0.00  0.00    +0.000 C 
ATOM      2  C   UNL     1      -0.805  10.407  20.425  0.00  0.00    +0.000 C 
ATOM      3  C   UNL     1       0.242   9.336  20.623  0.00  0.00    +0.000 C 
ATOM      4  N   UNL     1       1.000   8.992  19.413  0.00  0.00    +0.000 NA
ATOM      5  C   UNL     1       1.465  10.147  18.634  0.00  0.00    +0.000 C 
ATOM      6  C   UNL     1       0.451  11.284  18.482  0.00  0.00    +0.000 C 
ENDROOT
BRANCH   1   8
ATOM      7  C   UNL     1       1.974  12.815  20.406  0.00  0.00    +0.000 C 
ATOM      8  N   UNL     1       0.576  12.537  20.727  0.00  0.00    +0.000 N 
ATOM      9  C   UNL     1       0.052  13.327  21.772  0.00  0.00    +0.000 C 
ATOM     10  O   UNL     1       0.718  14.184  22.356  0.00  0.00    +0.000 OA
BRANCH   9  11
ATOM     11  C   UNL     1      -1.363  13.205  22.194  0.00  0.00    +0.000 A 
ATOM     12  C   UNL     1      -1.760  12.363  23.233  0.00  0.00    +0.000 A 
ATOM     13  C   UNL     1      -3.108  12.196  23.534  0.00  0.00    +0.000 A 
ATOM     14  C   UNL     1      -4.064  12.955  22.865  0.00  0.00    +0.000 A 
ATOM     15  C   UNL     1      -3.666  13.890  21.908  0.00  0.00    +0.000 A 
ATOM     16  C   UNL     1      -2.319  14.011  21.566  0.00  0.00    +0.000 A 
ENDBRANCH   9  11
ENDBRANCH   1   8
BRANCH   4  17
ATOM     17  C   UNL     1       2.135   8.164  19.863  0.00  0.00    +0.000 C 
BRANCH  17  18
ATOM     18  C   UNL     1       2.341   6.863  19.138  0.00  0.00    +0.000 A 
ATOM     19  C   UNL     1       3.271   6.800  18.093  0.00  0.00    +0.000 A 
ATOM     20  C   UNL     1       3.678   5.568  17.593  0.00  0.00    +0.000 A 
ATOM     21  C   UNL     1       3.168   4.387  18.148  0.00  0.00    +0.000 A 
ATOM     22  C   UNL     1       3.715   3.146  17.805  0.00  0.00    +0.000 A 
ATOM     23  C   UNL     1       3.223   1.993  18.401  0.00  0.00    +0.000 A 
ATOM     24  F   UNL     1       3.822   0.822  18.153  0.00  0.00    +0.000 F 
ATOM     25  C   UNL     1       2.143   2.036  19.272  0.00  0.00    +0.000 A 
ATOM     26  C   UNL     1       1.582   3.262  19.618  0.00  0.00    +0.000 A 
ATOM     27  C   UNL     1       2.127   4.453  19.112  0.00  0.00    +0.000 A 
ATOM     28  C   UNL     1       1.709   5.696  19.588  0.00  0.00    +0.000 A 
ENDBRANCH  17  18
ENDBRANCH   4  17
TORSDOF 4
ENDMDL
MODEL 4
REMARK VINA RESULT:      -7.7      4.081      9.035
REMARK  Name = 
REMARK  5 active torsions:
REMARK  status: ('A' for Active; 'I' for Inactive)
REMARK    1  A    between atoms: C_1  and  N_2
REMARK    2  A    between atoms: N_2  and  C_11
REMARK    3  A    between atoms: C_3  and  C_5
REMARK    4  A    between atoms: N_14  and  C_15
REMARK    5  A    between atoms: C_15  and  C_16
REMARK                            x       y       z     vdW  Elec       q    Type
REMARK                         _______ _______ _______ _____ _____    ______ ____
ROOT
ATOM      1  C   UNL     1       4.670   4.979  18.330  0.00  0.00    +0.000 C 
ATOM      2  C   UNL     1       3.822   5.410  19.539  0.00  0.00    +0.000 C 
ATOM      3  C   UNL     1       2.749   6.409  19.175  0.00  0.00    +0.000 C 
ATOM      4  N   UNL     1       3.238   7.599  18.467  0.00  0.00    +0.000 NA
ATOM      5  C   UNL     1       4.188   7.319  17.382  0.00  0.00    +0.000 C 
ATOM      6  C   UNL     1       5.240   6.253  17.694  0.00  0.00    +0.000 C 
ENDROOT
BRANCH   1   8
ATOM      7  C   UNL     1       4.405   3.972  15.998  0.00  0.00    +0.000 C 
ATOM      8  N   UNL     1       3.985   4.026  17.395  0.00  0.00    +0.000 N 
ATOM      9  C   UNL     1       3.136   2.969  17.788  0.00  0.00    +0.000 C 
ATOM     10  O   UNL     1       2.788   2.074  17.016  0.00  0.00    +0.000 OA
BRANCH   9  11
ATOM     11  C   UNL     1       2.652   2.848  19.183  0.00  0.00    +0.000 A 
ATOM     12  C   UNL     1       1.336   3.135  19.542  0.00  0.00    +0.000 A 
ATOM     13  C   UNL     1       0.944   3.109  20.877  0.00  0.00    +0.000 A 
ATOM     14  C   UNL     1       1.845   2.690  21.853  0.00  0.00    +0.000 A 
ATOM     15  C   UNL     1       3.128   2.283  21.487  0.00  0.00    +0.000 A 
ATOM     16  C   UNL     1       3.537   2.368  20.156  0.00  0.00    +0.000 A 
ENDBRANCH   9  11
ENDBRANCH   1   8
BRANCH   4  17
ATOM     17  C   UNL     1       2.039   8.292  17.956  0.00  0.00    +0.000 C 
BRANCH  17  18
ATOM     18  C   UNL     1       1.408   9.300  18.876  0.00  0.00    +0.000 A 
ATOM     19  C   UNL     1       0.800  10.438  18.332  0.00  0.00    +0.000 A 
ATOM     20  C   UNL     1      -0.018  11.238  19.123  0.00  0.00    +0.000 A 
ATOM     21  C   UNL     1      -0.248  10.894  20.460  0.00  0.00    +0.000 A 
ATOM     22  C   UNL     1      -1.225  11.560  21.208  0.00  0.00    +0.000 A 
ATOM     23  C   UNL     1      -1.465  11.172  22.519  0.00  0.00    +0.000 A 
ATOM     24  F   UNL     1      -2.474  11.738  23.194  0.00  0.00    +0.000 F 
ATOM     25  C   UNL     1      -0.701  10.188  23.132  0.00  0.00    +0.000 A 
ATOM     26  C   UNL     1       0.280   9.521  22.404  0.00  0.00    +0.000 A 
ATOM     27  C   UNL     1       0.474   9.820  21.047  0.00  0.00    +0.000 A 
ATOM     28  C   UNL     1       1.312   9.041  20.250  0.00  0.00    +0.000 A 
ENDBRANCH  17  18
ENDBRANCH   4  17
TORSDOF 4
ENDMDL
MODEL 5
REMARK VINA RESULT:      -7.6      4.595     10.447
REMARK  Name = 
REMARK  5 active torsions:
REMARK  status: ('A' for Active; 'I' for Inactive)
REMARK    1  A    between atoms: C_1  and  N_2
REMARK    2  A    between atoms: N_2  and  C_11
REMARK    3  A    between atoms: C_3  and  C_5
REMARK    4  A    between atoms: N_14  and  C_15
REMARK    5  A    between atoms: C_15  and  C_16
REMARK                            x       y       z     vdW  Elec       q    Type
REMARK                         _______ _______ _______ _____ _____    ______ ____
ROOT
ATOM      1  C   UNL     1       4.464   5.290  16.646  0.00  0.00    +0.000 C 
ATOM      2  C   UNL     1       4.034   6.764  16.537  0.00  0.00    +0.000 C 
ATOM      3  C   UNL     1       3.650   7.361  17.870  0.00  0.00    +0.000 C 
ATOM      4  N   UNL     1       2.630   6.605  18.607  0.00  0.00    +0.000 NA
ATOM      5  C   UNL     1       2.852   5.154  18.644  0.00  0.00    +0.000 C 
ATOM      6  C   UNL     1       3.318   4.530  17.326  0.00  0.00    +0.000 C 
ENDROOT
BRANCH   1   8
ATOM      7  C   UNL     1       5.994   5.064  18.678  0.00  0.00    +0.000 C 
ATOM      8  N   UNL     1       5.831   5.080  17.227  0.00  0.00    +0.000 N 
ATOM      9  C   UNL     1       6.959   4.628  16.510  0.00  0.00    +0.000 C 
ATOM     10  O   UNL     1       7.990   4.245  17.067  0.00  0.00    +0.000 OA
BRANCH   9  11
ATOM     11  C   UNL     1       6.947   4.538  15.032  0.00  0.00    +0.000 A 
ATOM     12  C   UNL     1       6.089   3.681  14.345  0.00  0.00    +0.000 A 
ATOM     13  C   UNL     1       6.177   3.548  12.962  0.00  0.00    +0.000 A 
ATOM     14  C   UNL     1       7.055   4.356  12.246  0.00  0.00    +0.000 A 
ATOM     15  C   UNL     1       7.830   5.305  12.914  0.00  0.00    +0.000 A 
ATOM     16  C   UNL     1       7.784   5.393  14.305  0.00  0.00    +0.000 A 
ENDBRANCH   9  11
ENDBRANCH   1   8
BRANCH   4  17
ATOM     17  C   UNL     1       2.605   7.172  19.970  0.00  0.00    +0.000 C 
BRANCH  17  18
ATOM     18  C   UNL     1       1.494   8.139  20.270  0.00  0.00    +0.000 A 
ATOM     19  C   UNL     1       0.866   8.095  21.521  0.00  0.00    +0.000 A 
ATOM     20  C   UNL     1       0.037   9.136  21.924  0.00  0.00    +0.000 A 
ATOM     21  C   UNL     1      -0.157  10.238  21.082  0.00  0.00    +0.000 A 
ATOM     22  C   UNL     1      -0.814  11.382  21.548  0.00  0.00    +0.000 A 
ATOM     23  C   UNL     1      -0.956  12.479  20.710  0.00  0.00    +0.000 A 
ATOM     24  F   UNL     1      -1.487  13.608  21.195  0.00  0.00    +0.000 F 
ATOM     25  C   UNL     1      -0.532  12.437  19.389  0.00  0.00    +0.000 A 
ATOM     26  C   UNL     1       0.116  11.303  18.907  0.00  0.00    +0.000 A 
ATOM     27  C   UNL     1       0.368  10.219  19.762  0.00  0.00    +0.000 A 
ATOM     28  C   UNL     1       1.178   9.157  19.361  0.00  0.00    +0.000 A 
ENDBRANCH  17  18
ENDBRANCH   4  17
TORSDOF 4
ENDMDL
MODEL 6
REMARK VINA RESULT:      -7.6      4.250      9.069
REMARK  Name = 
REMARK  5 active torsions:
REMARK  status: ('A' for Active; 'I' for Inactive)
REMARK    1  A    between atoms: C_1  and  N_2
REMARK    2  A    between atoms: N_2  and  C_11
REMARK    3  A    between atoms: C_3  and  C_5
REMARK    4  A    between atoms: N_14  and  C_15
REMARK    5  A    between atoms: C_15  and  C_16
REMARK                            x       y       z     vdW  Elec       q    Type
REMARK                         _______ _______ _______ _____ _____    ______ ____
ROOT
ATOM      1  C   UNL     1       4.695   5.103  18.473  0.00  0.00    +0.000 C 
ATOM      2  C   UNL     1       3.666   5.613  19.497  0.00  0.00    +0.000 C 
ATOM      3  C   UNL     1       2.687   6.597  18.901  0.00  0.00    +0.000 C 
ATOM      4  N   UNL     1       3.307   7.738  18.217  0.00  0.00    +0.000 NA
ATOM      5  C   UNL     1       4.419   7.385  17.324  0.00  0.00    +0.000 C 
ATOM      6  C   UNL     1       5.386   6.331  17.869  0.00  0.00    +0.000 C 
ENDROOT
BRANCH   1   8
ATOM      7  C   UNL     1       4.751   4.015  16.163  0.00  0.00    +0.000 C 
ATOM      8  N   UNL     1       4.157   4.101  17.494  0.00  0.00    +0.000 N 
ATOM      9  C   UNL     1       3.292   3.033  17.815  0.00  0.00    +0.000 C 
ATOM     10  O   UNL     1       3.067   2.103  17.037  0.00  0.00    +0.000 OA
BRANCH   9  11
ATOM     11  C   UNL     1       2.640   2.942  19.142  0.00  0.00    +0.000 A 
ATOM     12  C   UNL     1       1.289   3.229  19.329  0.00  0.00    +0.000 A 
ATOM     13  C   UNL     1       0.734   3.233  20.605  0.00  0.00    +0.000 A 
ATOM     14  C   UNL     1       1.508   2.842  21.695  0.00  0.00    +0.000 A 
ATOM     15  C   UNL     1       2.828   2.435  21.500  0.00  0.00    +0.000 A 
ATOM     16  C   UNL     1       3.398   2.491  20.228  0.00  0.00    +0.000 A 
ENDBRANCH   9  11
ENDBRANCH   1   8
BRANCH   4  17
ATOM     17  C   UNL     1       2.223   8.409  17.474  0.00  0.00    +0.000 C 
BRANCH  17  18
ATOM     18  C   UNL     1       1.150   9.059  18.302  0.00  0.00    +0.000 A 
ATOM     19  C   UNL     1       1.446   9.472  19.607  0.00  0.00    +0.000 A 
ATOM     20  C   UNL     1       0.571  10.309  20.290  0.00  0.00    +0.000 A 
ATOM     21  C   UNL     1      -0.600  10.755  19.665  0.00  0.00    +0.000 A 
ATOM     22  C   UNL     1      -1.383  11.755  20.251  0.00  0.00    +0.000 A 
ATOM     23  C   UNL     1      -2.515  12.212  19.591  0.00  0.00    +0.000 A 
ATOM     24  F   UNL     1      -3.199  13.243  20.103  0.00  0.00    +0.000 F 
ATOM     25  C   UNL     1      -2.935  11.640  18.398  0.00  0.00    +0.000 A 
ATOM     26  C   UNL     1      -2.172  10.638  17.806  0.00  0.00    +0.000 A 
ATOM     27  C   UNL     1      -0.966  10.230  18.397  0.00  0.00    +0.000 A 
ATOM     28  C   UNL     1      -0.093   9.369  17.732  0.00  0.00    +0.000 A 
ENDBRANCH  17  18
ENDBRANCH   4  17
TORSDOF 4
ENDMDL
MODEL 7
REMARK VINA RESULT:      -7.6      4.363     10.241
REMARK  Name = 
REMARK  5 active torsions:
REMARK  status: ('A' for Active; 'I' for Inactive)
REMARK    1  A    between atoms: C_1  and  N_2
REMARK    2  A    between atoms: N_2  and  C_11
REMARK    3  A    between atoms: C_3  and  C_5
REMARK    4  A    between atoms: N_14  and  C_15
REMARK    5  A    between atoms: C_15  and  C_16
REMARK                            x       y       z     vdW  Elec       q    Type
REMARK                         _______ _______ _______ _____ _____    ______ ____
ROOT
ATOM      1  C   UNL     1       4.090   5.322  17.288  0.00  0.00    +0.000 C 
ATOM      2  C   UNL     1       3.666   6.796  17.163  0.00  0.00    +0.000 C 
ATOM      3  C   UNL     1       3.188   7.380  18.471  0.00  0.00    +0.000 C 
ATOM      4  N   UNL     1       2.120   6.615  19.127  0.00  0.00    +0.000 NA
ATOM      5  C   UNL     1       2.342   5.164  19.166  0.00  0.00    +0.000 C 
ATOM      6  C   UNL     1       2.901   4.554  17.878  0.00  0.00    +0.000 C 
ENDROOT
BRANCH   1   8
ATOM      7  C   UNL     1       5.479   5.116  19.422  0.00  0.00    +0.000 C 
ATOM      8  N   UNL     1       5.414   5.109  17.963  0.00  0.00    +0.000 N 
ATOM      9  C   UNL     1       6.582   4.634  17.331  0.00  0.00    +0.000 C 
ATOM     10  O   UNL     1       7.570   4.250  17.961  0.00  0.00    +0.000 OA
BRANCH   9  11
ATOM     11  C   UNL     1       6.668   4.519  15.856  0.00  0.00    +0.000 A 
ATOM     12  C   UNL     1       7.539   5.301  15.098  0.00  0.00    +0.000 A 
ATOM     13  C   UNL     1       7.519   5.239  13.708  0.00  0.00    +0.000 A 
ATOM     14  C   UNL     1       6.699   4.312  13.070  0.00  0.00    +0.000 A 
ATOM     15  C   UNL     1       5.914   3.441  13.826  0.00  0.00    +0.000 A 
ATOM     16  C   UNL     1       5.891   3.546  15.217  0.00  0.00    +0.000 A 
ENDBRANCH   9  11
ENDBRANCH   1   8
BRANCH   4  17
ATOM     17  C   UNL     1       1.997   7.169  20.489  0.00  0.00    +0.000 C 
BRANCH  17  18
ATOM     18  C   UNL     1       1.336   8.515  20.606  0.00  0.00    +0.000 A 
ATOM     19  C   UNL     1       1.117   9.274  19.450  0.00  0.00    +0.000 A 
ATOM     20  C   UNL     1       0.277  10.381  19.489  0.00  0.00    +0.000 A 
ATOM     21  C   UNL     1      -0.365  10.726  20.685  0.00  0.00    +0.000 A 
ATOM     22  C   UNL     1      -1.368  11.701  20.697  0.00  0.00    +0.000 A 
ATOM     23  C   UNL     1      -2.021  11.996  21.886  0.00  0.00    +0.000 A 
ATOM     24  F   UNL     1      -3.053  12.850  21.872  0.00  0.00    +0.000 F 
ATOM     25  C   UNL     1      -1.645  11.401  23.083  0.00  0.00    +0.000 A 
ATOM     26  C   UNL     1      -0.643  10.435  23.089  0.00  0.00    +0.000 A 
ATOM     27  C   UNL     1      -0.038  10.041  21.886  0.00  0.00    +0.000 A 
ATOM     28  C   UNL     1       0.827   8.948  21.838  0.00  0.00    +0.000 A 
ENDBRANCH  17  18
ENDBRANCH   4  17
TORSDOF 4
ENDMDL
MODEL 8
REMARK VINA RESULT:      -7.5      1.262      2.264
REMARK  Name = 
REMARK  5 active torsions:
REMARK  status: ('A' for Active; 'I' for Inactive)
REMARK    1  A    between atoms: C_1  and  N_2
REMARK    2  A    between atoms: N_2  and  C_11
REMARK    3  A    between atoms: C_3  and  C_5
REMARK    4  A    between atoms: N_14  and  C_15
REMARK    5  A    between atoms: C_15  and  C_16
REMARK                            x       y       z     vdW  Elec       q    Type
REMARK                         _______ _______ _______ _____ _____    ______ ____
ROOT
ATOM      1  C   UNL     1      -1.005  10.845  20.201  0.00  0.00    +0.000 C 
ATOM      2  C   UNL     1      -0.153   9.746  20.861  0.00  0.00    +0.000 C 
ATOM      3  C   UNL     1       1.094   9.420  20.073  0.00  0.00    +0.000 C 
ATOM      4  N   UNL     1       0.855   9.079  18.665  0.00  0.00    +0.000 NA
ATOM      5  C   UNL     1      -0.076   9.975  17.968  0.00  0.00    +0.000 C 
ATOM      6  C   UNL     1      -1.312  10.386  18.771  0.00  0.00    +0.000 C 
ENDROOT
BRANCH   1   8
ATOM      7  C   UNL     1       0.732  12.611  19.578  0.00  0.00    +0.000 C 
ATOM      8  N   UNL     1      -0.452  12.233  20.345  0.00  0.00    +0.000 N 
ATOM      9  C   UNL     1      -1.119  13.315  20.956  0.00  0.00    +0.000 C 
ATOM     10  O   UNL     1      -0.737  14.481  20.843  0.00  0.00    +0.000 OA
BRANCH   9  11
ATOM     11  C   UNL     1      -2.364  13.113  21.734  0.00  0.00    +0.000 A 
ATOM     12  C   UNL     1      -3.628  13.223  21.159  0.00  0.00    +0.000 A 
ATOM     13  C   UNL     1      -4.775  13.128  21.942  0.00  0.00    +0.000 A 
ATOM     14  C   UNL     1      -4.663  12.812  23.293  0.00  0.00    +0.000 A 
ATOM     15  C   UNL     1      -3.406  12.579  23.852  0.00  0.00    +0.000 A 
ATOM     16  C   UNL     1      -2.256  12.735  23.078  0.00  0.00    +0.000 A 
ENDBRANCH   9  11
ENDBRANCH   1   8
BRANCH   4  17
ATOM     17  C   UNL     1       2.179   9.079  18.014  0.00  0.00    +0.000 C 
BRANCH  17  18
ATOM     18  C   UNL     1       2.884   7.753  17.934  0.00  0.00    +0.000 A 
ATOM     19  C   UNL     1       2.188   6.585  18.268  0.00  0.00    +0.000 A 
ATOM     20  C   UNL     1       2.717   5.340  17.947  0.00  0.00    +0.000 A 
ATOM     21  C   UNL     1       3.941   5.256  17.272  0.00  0.00    +0.000 A 
ATOM     22  C   UNL     1       4.387   4.034  16.758  0.00  0.00    +0.000 A 
ATOM     23  C   UNL     1       5.582   3.982  16.054  0.00  0.00    +0.000 A 
ATOM     24  F   UNL     1       5.949   2.834  15.471  0.00  0.00    +0.000 F 
ATOM     25  C   UNL     1       6.387   5.105  15.917  0.00  0.00    +0.000 A 
ATOM     26  C   UNL     1       5.962   6.327  16.430  0.00  0.00    +0.000 A 
ATOM     27  C   UNL     1       4.710   6.431  17.054  0.00  0.00    +0.000 A 
ATOM     28  C   UNL     1       4.179   7.672  17.405  0.00  0.00    +0.000 A 
ENDBRANCH  17  18
ENDBRANCH   4  17
TORSDOF 4
ENDMDL
MODEL 9
REMARK VINA RESULT:      -7.5      1.524      2.206
REMARK  Name = 
REMARK  5 active torsions:
REMARK  status: ('A' for Active; 'I' for Inactive)
REMARK    1  A    between atoms: C_1  and  N_2
REMARK    2  A    between atoms: N_2  and  C_11
REMARK    3  A    between atoms: C_3  and  C_5
REMARK    4  A    between atoms: N_14  and  C_15
REMARK    5  A    between atoms: C_15  and  C_16
REMARK                            x       y       z     vdW  Elec       q    Type
REMARK                         _______ _______ _______ _____ _____    ______ ____
ROOT
ATOM      1  C   UNL     1      -1.412  11.772  19.887  0.00  0.00    +0.000 C 
ATOM      2  C   UNL     1      -0.550  11.028  20.921  0.00  0.00    +0.000 C 
ATOM      3  C   UNL     1       0.708  10.444  20.324  0.00  0.00    +0.000 C 
ATOM      4  N   UNL     1       0.486   9.581  19.157  0.00  0.00    +0.000 NA
ATOM      5  C   UNL     1      -0.452  10.122  18.165  0.00  0.00    +0.000 C 
ATOM      6  C   UNL     1      -1.701  10.791  18.744  0.00  0.00    +0.000 C 
ENDROOT
BRANCH   1   8
ATOM      7  C   UNL     1      -0.340  13.295  18.139  0.00  0.00    +0.000 C 
ATOM      8  N   UNL     1      -0.881  13.116  19.483  0.00  0.00    +0.000 N 
ATOM      9  C   UNL     1      -1.089  14.319  20.191  0.00  0.00    +0.000 C 
ATOM     10  O   UNL     1      -0.842  15.426  19.707  0.00  0.00    +0.000 OA
BRANCH   9  11
ATOM     11  C   UNL     1      -1.673  14.321  21.552  0.00  0.00    +0.000 A 
ATOM     12  C   UNL     1      -3.049  14.263  21.772  0.00  0.00    +0.000 A 
ATOM     13  C   UNL     1      -3.566  14.371  23.060  0.00  0.00    +0.000 A 
ATOM     14  C   UNL     1      -2.700  14.428  24.148  0.00  0.00    +0.000 A 
ATOM     15  C   UNL     1      -1.321  14.362  23.946  0.00  0.00    +0.000 A 
ATOM     16  C   UNL     1      -0.805  14.316  22.650  0.00  0.00    +0.000 A 
ENDBRANCH   9  11
ENDBRANCH   1   8
BRANCH   4  17
ATOM     17  C   UNL     1       1.816   9.351  18.559  0.00  0.00    +0.000 C 
BRANCH  17  18
ATOM     18  C   UNL     1       2.409   7.984  18.755  0.00  0.00    +0.000 A 
ATOM     19  C   UNL     1       1.982   7.199  19.834  0.00  0.00    +0.000 A 
ATOM     20  C   UNL     1       2.303   5.847  19.885  0.00  0.00    +0.000 A 
ATOM     21  C   UNL     1       3.041   5.266  18.846  0.00  0.00    +0.000 A 
ATOM     22  C   UNL     1       3.195   3.878  18.774  0.00  0.00    +0.000 A 
ATOM     23  C   UNL     1       3.893   3.321  17.711  0.00  0.00    +0.000 A 
ATOM     24  F   UNL     1       3.944   1.989  17.588  0.00  0.00    +0.000 F 
ATOM     25  C   UNL     1       4.513   4.118  16.758  0.00  0.00    +0.000 A 
ATOM     26  C   UNL     1       4.377   5.502  16.820  0.00  0.00    +0.000 A 
ATOM     27  C   UNL     1       3.588   6.087  17.824  0.00  0.00    +0.000 A 
ATOM     28  C   UNL     1       3.281   7.447  17.797  0.00  0.00    +0.000 A 
ENDBRANCH  17  18
ENDBRANCH   4  17
TORSDOF 4
ENDMDL
