MODEL 1
REMARK VINA RESULT:      -8.0      0.000      0.000
REMARK  Name = 
REMARK  6 active torsions:
REMARK  status: ('A' for Active; 'I' for Inactive)
REMARK    1  A    between atoms: C_2  and  C_3
REMARK    2  A    between atoms: C_3  and  C_4
REMARK    3  A    between atoms: C_4  and  N_5
REMARK    4  A    between atoms: N_18  and  C_19
REMARK    5  A    between atoms: C_19  and  C_20
REMARK    6  A    between atoms: C_20  and  C_21
REMARK                            x       y       z     vdW  Elec       q    Type
REMARK                         _______ _______ _______ _____ _____    ______ ____
ROOT
ATOM      1  O   UNL     1       7.661   6.254  15.898  0.00  0.00    +0.000 OA
ATOM      2  C   UNL     1       7.350   6.283  17.091  0.00  0.00    +0.000 C 
ATOM      3  N   UNL     1       6.442   5.398  17.648  0.00  0.00    +0.000 N 
ATOM      4  C   UNL     1       6.078   5.364  19.064  0.00  0.00    +0.000 C 
ATOM      5  C   UNL     1       4.565   5.319  19.215  0.00  0.00    +0.000 C 
ATOM      6  C   UNL     1       3.936   4.124  18.460  0.00  0.00    +0.000 C 
ATOM      7  C   UNL     1       4.330   2.748  19.037  0.00  0.00    +0.000 C 
ATOM      8  C   UNL     1       3.852   2.563  20.463  0.00  0.00    +0.000 C 
ATOM      9  C   UNL     1       2.418   2.979  20.724  0.00  0.00    +0.000 C 
ATOM     10  O   UNL     1       1.820   2.547  21.710  0.00  0.00    +0.000 OA
ATOM     11  N   UNL     1       1.933   4.017  19.937  0.00  0.00    +0.000 N 
ATOM     12  C   UNL     1       2.408   4.214  18.569  0.00  0.00    +0.000 C 
ATOM     13  C   UNL     1       4.373   4.220  16.975  0.00  0.00    +0.000 C 
ATOM     14  C   UNL     1       5.892   4.325  16.819  0.00  0.00    +0.000 C 
ENDROOT
BRANCH   2  15
ATOM     15  C   UNL     1       7.962   7.312  18.016  0.00  0.00    +0.000 C 
BRANCH  15  16
ATOM     16  C   UNL     1       7.578   8.721  17.590  0.00  0.00    +0.000 C 
BRANCH  16  17
ATOM     17  N   UNL     1       8.426   9.716  18.203  0.00  0.00    +0.000 N 
ATOM     18  C   UNL     1       8.600  11.014  17.846  0.00  0.00    +0.000 A 
ATOM     19  N   UNL     1       9.486  11.546  18.660  0.00  0.00    +0.000 NA
ATOM     20  N   UNL     1       9.850  10.545  19.531  0.00  0.00    +0.000 NA
ATOM     21  N   UNL     1       9.200   9.419  19.255  0.00  0.00    +0.000 NA
ENDBRANCH  16  17
ENDBRANCH  15  16
ENDBRANCH   2  15
BRANCH  11  22
ATOM     22  C   UNL     1       1.028   4.976  20.579  0.00  0.00    +0.000 C 
BRANCH  22  23
ATOM     23  C   UNL     1       1.631   6.235  21.206  0.00  0.00    +0.000 C 
BRANCH  23  24
ATOM     24  C   UNL     1       1.372   7.531  20.487  0.00  0.00    +0.000 A 
ATOM     25  C   UNL     1       1.978   7.872  19.277  0.00  0.00    +0.000 A 
ATOM     26  C   UNL     1       1.655   9.080  18.661  0.00  0.00    +0.000 A 
ATOM     27  C   UNL     1       0.729   9.902  19.277  0.00  0.00    +0.000 A 
ATOM     28  N   UNL     1       0.111   9.607  20.437  0.00  0.00    +0.000 NA
ATOM     29  C   UNL     1       0.442   8.426  21.009  0.00  0.00    +0.000 A 
ENDBRANCH  23  24
ENDBRANCH  22  23
ENDBRANCH  11  22
TORSDOF 6
ENDMDL
MODEL 2
REMARK VINA RESULT:      -7.3      4.121      7.332
REMARK  Name = 
REMARK  6 active torsions:
REMARK  status: ('A' for Active; 'I' for Inactive)
REMARK    1  A    between atoms: C_2  and  C_3
REMARK    2  A    between atoms: C_3  and  C_4
REMARK    3  A    between atoms: C_4  and  N_5
REMARK    4  A    between atoms: N_18  and  C_19
REMARK    5  A    between atoms: C_19  and  C_20
REMARK    6  A    between atoms: C_20  and  C_21
REMARK                            x       y       z     vdW  Elec       q    Type
REMARK                         _______ _______ _______ _____ _____    ______ ____
ROOT
ATOM      1  O   UNL     1       2.739   5.476  20.106  0.00  0.00    +0.000 OA
ATOM      2  C   UNL     1       2.731   6.320  19.207  0.00  0.00    +0.000 C 
ATOM      3  N   UNL     1       2.226   7.597  19.384  0.00  0.00    +0.000 N 
ATOM      4  C   UNL     1       2.237   8.644  18.363  0.00  0.00    +0.000 C 
ATOM      5  C   UNL     1       0.863   9.288  18.257  0.00  0.00    +0.000 C 
ATOM      6  C   UNL     1       0.374   9.851  19.613  0.00  0.00    +0.000 C 
ATOM      7  C   UNL     1       1.215  11.037  20.132  0.00  0.00    +0.000 C 
ATOM      8  C   UNL     1       1.159  12.234  19.204  0.00  0.00    +0.000 C 
ATOM      9  C   UNL     1      -0.225  12.601  18.705  0.00  0.00    +0.000 C 
ATOM     10  O   UNL     1      -0.443  13.731  18.266  0.00  0.00    +0.000 OA
ATOM     11  N   UNL     1      -1.121  11.548  18.568  0.00  0.00    +0.000 N 
ATOM     12  C   UNL     1      -1.057  10.380  19.445  0.00  0.00    +0.000 C 
ATOM     13  C   UNL     1       0.399   8.693  20.643  0.00  0.00    +0.000 C 
ATOM     14  C   UNL     1       1.763   8.002  20.713  0.00  0.00    +0.000 C 
ENDROOT
BRANCH   2  15
ATOM     15  C   UNL     1       3.284   5.985  17.839  0.00  0.00    +0.000 C 
BRANCH  15  16
ATOM     16  C   UNL     1       3.927   4.606  17.836  0.00  0.00    +0.000 C 
BRANCH  16  17
ATOM     17  N   UNL     1       5.367   4.686  17.765  0.00  0.00    +0.000 N 
ATOM     18  C   UNL     1       6.147   4.939  16.683  0.00  0.00    +0.000 A 
ATOM     19  N   UNL     1       7.405   4.888  17.066  0.00  0.00    +0.000 NA
ATOM     20  N   UNL     1       7.380   4.603  18.411  0.00  0.00    +0.000 NA
ATOM     21  N   UNL     1       6.131   4.479  18.846  0.00  0.00    +0.000 NA
ENDBRANCH  16  17
ENDBRANCH  15  16
ENDBRANCH   2  15
BRANCH  11  22
ATOM     22  C   UNL     1      -2.045  11.600  17.431  0.00  0.00    +0.000 C 
BRANCH  22  23
ATOM     23  C   UNL     1      -3.272  10.684  17.449  0.00  0.00    +0.000 C 
BRANCH  23  24
ATOM     24  C   UNL     1      -4.483  11.201  18.177  0.00  0.00    +0.000 A 
ATOM     25  C   UNL     1      -5.763  10.670  18.011  0.00  0.00    +0.000 A 
ATOM     26  C   UNL     1      -6.824  11.187  18.751  0.00  0.00    +0.000 A 
ATOM     27  C   UNL     1      -6.564  12.215  19.639  0.00  0.00    +0.000 A 
ATOM     28  N   UNL     1      -5.343  12.749  19.840  0.00  0.00    +0.000 NA
ATOM     29  C   UNL     1      -4.332  12.223  19.110  0.00  0.00    +0.000 A 
ENDBRANCH  23  24
ENDBRANCH  22  23
ENDBRANCH  11  22
TORSDOF 6
ENDMDL
MODEL 3
REMARK VINA RESULT:      -7.2      1.033      1.464
REMARK  Name = 
REMARK  6 active torsions:
REMARK  status: ('A' for Active; 'I' for Inactive)
REMARK    1  A    between atoms: C_2  and  C_3
REMARK    2  A    between atoms: C_3  and  C_4
REMARK    3  A    between atoms: C_4  and  N_5
REMARK    4  A    between atoms: N_18  and  C_19
REMARK    5  A    between atoms: C_19  and  C_20
REMARK    6  A    between atoms: C_20  and  C_21
REMARK                            x       y       z     vdW  Elec       q    Type
REMARK                         _______ _______ _______ _____ _____    ______ ____
ROOT
ATOM      1  O   UNL     1       7.556   6.135  15.775  0.00  0.00    +0.000 OA
ATOM      2  C   UNL     1       7.325   6.204  16.985  0.00  0.00    +0.000 C 
ATOM      3  N   UNL     1       6.402   5.390  17.618  0.00  0.00    +0.000 N 
ATOM      4  C   UNL     1       6.128   5.404  19.054  0.00  0.00    +0.000 C 
ATOM      5  C   UNL     1       4.628   5.459  19.302  0.00  0.00    +0.000 C 
ATOM      6  C   UNL     1       3.878   4.293  18.614  0.00  0.00    +0.000 C 
ATOM      7  C   UNL     1       4.221   2.905  19.195  0.00  0.00    +0.000 C 
ATOM      8  C   UNL     1       3.827   2.777  20.652  0.00  0.00    +0.000 C 
ATOM      9  C   UNL     1       2.441   3.288  20.994  0.00  0.00    +0.000 C 
ATOM     10  O   UNL     1       1.882   2.913  22.026  0.00  0.00    +0.000 OA
ATOM     11  N   UNL     1       1.972   4.341  20.218  0.00  0.00    +0.000 N 
ATOM     12  C   UNL     1       2.369   4.483  18.817  0.00  0.00    +0.000 C 
ATOM     13  C   UNL     1       4.223   4.335  17.103  0.00  0.00    +0.000 C 
ATOM     14  C   UNL     1       5.733   4.339  16.848  0.00  0.00    +0.000 C 
ENDROOT
BRANCH   2  15
ATOM     15  C   UNL     1       8.058   7.209  17.846  0.00  0.00    +0.000 C 
BRANCH  15  16
ATOM     16  C   UNL     1       7.609   8.627  17.530  0.00  0.00    +0.000 C 
BRANCH  16  17
ATOM     17  N   UNL     1       8.437   9.611  18.185  0.00  0.00    +0.000 N 
ATOM     18  C   UNL     1       8.720  10.878  17.787  0.00  0.00    +0.000 A 
ATOM     19  N   UNL     1       9.539  11.410  18.669  0.00  0.00    +0.000 NA
ATOM     20  N   UNL     1       9.750  10.441  19.622  0.00  0.00    +0.000 NA
ATOM     21  N   UNL     1       9.074   9.335  19.331  0.00  0.00    +0.000 NA
ENDBRANCH  16  17
ENDBRANCH  15  16
ENDBRANCH   2  15
BRANCH  11  22
ATOM     22  C   UNL     1       1.172   5.366  20.894  0.00  0.00    +0.000 C 
BRANCH  22  23
ATOM     23  C   UNL     1       1.220   6.798  20.352  0.00  0.00    +0.000 C 
BRANCH  23  24
ATOM     24  C   UNL     1       0.792   7.886  21.299  0.00  0.00    +0.000 A 
ATOM     25  C   UNL     1      -0.544   8.193  21.562  0.00  0.00    +0.000 A 
ATOM     26  C   UNL     1      -0.852   9.196  22.480  0.00  0.00    +0.000 A 
ATOM     27  C   UNL     1       0.191   9.852  23.109  0.00  0.00    +0.000 A 
ATOM     28  N   UNL     1       1.493   9.579  22.894  0.00  0.00    +0.000 NA
ATOM     29  C   UNL     1       1.761   8.598  22.001  0.00  0.00    +0.000 A 
ENDBRANCH  23  24
ENDBRANCH  22  23
ENDBRANCH  11  22
TORSDOF 6
ENDMDL
MODEL 4
REMARK VINA RESULT:      -7.1      4.338      7.093
REMARK  Name = 
REMARK  6 active torsions:
REMARK  status: ('A' for Active; 'I' for Inactive)
REMARK    1  A    between atoms: C_2  and  C_3
REMARK    2  A    between atoms: C_3  and  C_4
REMARK    3  A    between atoms: C_4  and  N_5
REMARK    4  A    between atoms: N_18  and  C_19
REMARK    5  A    between atoms: C_19  and  C_20
REMARK    6  A    between atoms: C_20  and  C_21
REMARK                            x       y       z     vdW  Elec       q    Type
REMARK                         _______ _______ _______ _____ _____    ______ ____
ROOT
ATOM      1  O   UNL     1       3.150   5.540  19.653  0.00  0.00    +0.000 OA
ATOM      2  C   UNL     1       3.036   6.387  18.765  0.00  0.00    +0.000 C 
ATOM      3  N   UNL     1       2.460   7.628  18.985  0.00  0.00    +0.000 N 
ATOM      4  C   UNL     1       2.345   8.680  17.976  0.00  0.00    +0.000 C 
ATOM      5  C   UNL     1       0.928   9.234  17.955  0.00  0.00    +0.000 C 
ATOM      6  C   UNL     1       0.483   9.755  19.342  0.00  0.00    +0.000 C 
ATOM      7  C   UNL     1       1.274  10.989  19.826  0.00  0.00    +0.000 C 
ATOM      8  C   UNL     1       1.087  12.186  18.915  0.00  0.00    +0.000 C 
ATOM      9  C   UNL     1      -0.344  12.466  18.500  0.00  0.00    +0.000 C 
ATOM     10  O   UNL     1      -0.659  13.582  18.086  0.00  0.00    +0.000 OA
ATOM     11  N   UNL     1      -1.177  11.357  18.403  0.00  0.00    +0.000 N 
ATOM     12  C   UNL     1      -0.987  10.190  19.263  0.00  0.00    +0.000 C 
ATOM     13  C   UNL     1       0.642   8.594  20.357  0.00  0.00    +0.000 C 
ATOM     14  C   UNL     1       2.050   7.992  20.342  0.00  0.00    +0.000 C 
ENDROOT
BRANCH   2  15
ATOM     15  C   UNL     1       3.530   6.098  17.364  0.00  0.00    +0.000 C 
BRANCH  15  16
ATOM     16  C   UNL     1       4.755   5.198  17.395  0.00  0.00    +0.000 C 
BRANCH  16  17
ATOM     17  N   UNL     1       5.967   5.950  17.617  0.00  0.00    +0.000 N 
ATOM     18  C   UNL     1       6.890   5.797  18.600  0.00  0.00    +0.000 A 
ATOM     19  N   UNL     1       7.817   6.715  18.438  0.00  0.00    +0.000 NA
ATOM     20  N   UNL     1       7.446   7.436  17.327  0.00  0.00    +0.000 NA
ATOM     21  N   UNL     1       6.311   6.969  16.818  0.00  0.00    +0.000 NA
ENDBRANCH  16  17
ENDBRANCH  15  16
ENDBRANCH   2  15
BRANCH  11  22
ATOM     22  C   UNL     1      -2.166  11.357  17.321  0.00  0.00    +0.000 C 
BRANCH  22  23
ATOM     23  C   UNL     1      -3.354  10.396  17.424  0.00  0.00    +0.000 C 
BRANCH  23  24
ATOM     24  C   UNL     1      -4.701  11.020  17.668  0.00  0.00    +0.000 A 
ATOM     25  C   UNL     1      -5.154  12.156  16.994  0.00  0.00    +0.000 A 
ATOM     26  C   UNL     1      -6.431  12.649  17.258  0.00  0.00    +0.000 A 
ATOM     27  C   UNL     1      -7.213  11.982  18.183  0.00  0.00    +0.000 A 
ATOM     28  N   UNL     1      -6.820  10.876  18.847  0.00  0.00    +0.000 NA
ATOM     29  C   UNL     1      -5.578  10.419  18.567  0.00  0.00    +0.000 A 
ENDBRANCH  23  24
ENDBRANCH  22  23
ENDBRANCH  11  22
TORSDOF 6
ENDMDL
MODEL 5
REMARK VINA RESULT:      -7.0      4.297      7.619
REMARK  Name = 
REMARK  6 active torsions:
REMARK  status: ('A' for Active; 'I' for Inactive)
REMARK    1  A    between atoms: C_2  and  C_3
REMARK    2  A    between atoms: C_3  and  C_4
REMARK    3  A    between atoms: C_4  and  N_5
REMARK    4  A    between atoms: N_18  and  C_19
REMARK    5  A    between atoms: C_19  and  C_20
REMARK    6  A    between atoms: C_20  and  C_21
REMARK                            x       y       z     vdW  Elec       q    Type
REMARK                         _______ _______ _______ _____ _____    ______ ____
ROOT
ATOM      1  O   UNL     1       2.480   5.598  20.325  0.00  0.00    +0.000 OA
ATOM      2  C   UNL     1       2.487   6.420  19.406  0.00  0.00    +0.000 C 
ATOM      3  N   UNL     1       2.035   7.719  19.561  0.00  0.00    +0.000 N 
ATOM      4  C   UNL     1       2.067   8.741  18.515  0.00  0.00    +0.000 C 
ATOM      5  C   UNL     1       0.716   9.434  18.418  0.00  0.00    +0.000 C 
ATOM      6  C   UNL     1       0.275  10.048  19.768  0.00  0.00    +0.000 C 
ATOM      7  C   UNL     1       1.169  11.212  20.244  0.00  0.00    +0.000 C 
ATOM      8  C   UNL     1       1.141  12.388  19.288  0.00  0.00    +0.000 C 
ATOM      9  C   UNL     1      -0.237  12.796  18.805  0.00  0.00    +0.000 C 
ATOM     10  O   UNL     1      -0.419  13.923  18.343  0.00  0.00    +0.000 OA
ATOM     11  N   UNL     1      -1.175  11.775  18.710  0.00  0.00    +0.000 N 
ATOM     12  C   UNL     1      -1.139  10.627  19.614  0.00  0.00    +0.000 C 
ATOM     13  C   UNL     1       0.275   8.914  20.826  0.00  0.00    +0.000 C 
ATOM     14  C   UNL     1       1.613   8.173  20.888  0.00  0.00    +0.000 C 
ENDROOT
BRANCH   2  15
ATOM     15  C   UNL     1       3.002   6.031  18.037  0.00  0.00    +0.000 C 
BRANCH  15  16
ATOM     16  C   UNL     1       4.522   5.977  18.023  0.00  0.00    +0.000 C 
BRANCH  16  17
ATOM     17  N   UNL     1       5.030   5.515  16.754  0.00  0.00    +0.000 N 
ATOM     18  C   UNL     1       5.058   4.248  16.265  0.00  0.00    +0.000 A 
ATOM     19  N   UNL     1       5.636   4.279  15.084  0.00  0.00    +0.000 NA
ATOM     20  N   UNL     1       5.960   5.596  14.854  0.00  0.00    +0.000 NA
ATOM     21  N   UNL     1       5.588   6.359  15.876  0.00  0.00    +0.000 NA
ENDBRANCH  16  17
ENDBRANCH  15  16
ENDBRANCH   2  15
BRANCH  11  22
ATOM     22  C   UNL     1      -2.117  11.836  17.588  0.00  0.00    +0.000 C 
BRANCH  22  23
ATOM     23  C   UNL     1      -3.343  10.919  17.620  0.00  0.00    +0.000 C 
BRANCH  23  24
ATOM     24  C   UNL     1      -4.593  11.493  18.228  0.00  0.00    +0.000 A 
ATOM     25  C   UNL     1      -5.874  11.234  17.738  0.00  0.00    +0.000 A 
ATOM     26  C   UNL     1      -6.982  11.780  18.383  0.00  0.00    +0.000 A 
ATOM     27  C   UNL     1      -6.768  12.562  19.504  0.00  0.00    +0.000 A 
ATOM     28  N   UNL     1      -5.551  12.828  20.018  0.00  0.00    +0.000 NA
ATOM     29  C   UNL     1      -4.495  12.281  19.372  0.00  0.00    +0.000 A 
ENDBRANCH  23  24
ENDBRANCH  22  23
ENDBRANCH  11  22
TORSDOF 6
ENDMDL
MODEL 6
REMARK VINA RESULT:      -7.0      4.334      7.381
REMARK  Name = 
REMARK  6 active torsions:
REMARK  status: ('A' for Active; 'I' for Inactive)
REMARK    1  A    between atoms: C_2  and  C_3
REMARK    2  A    between atoms: C_3  and  C_4
REMARK    3  A    between atoms: C_4  and  N_5
REMARK    4  A    between atoms: N_18  and  C_19
REMARK    5  A    between atoms: C_19  and  C_20
REMARK    6  A    between atoms: C_20  and  C_21
REMARK                            x       y       z     vdW  Elec       q    Type
REMARK                         _______ _______ _______ _____ _____    ______ ____
ROOT
ATOM      1  O   UNL     1       2.564   5.603  20.308  0.00  0.00    +0.000 OA
ATOM      2  C   UNL     1       2.574   6.421  19.386  0.00  0.00    +0.000 C 
ATOM      3  N   UNL     1       2.108   7.717  19.532  0.00  0.00    +0.000 N 
ATOM      4  C   UNL     1       2.141   8.735  18.482  0.00  0.00    +0.000 C 
ATOM      5  C   UNL     1       0.786   9.415  18.368  0.00  0.00    +0.000 C 
ATOM      6  C   UNL     1       0.325  10.031  19.711  0.00  0.00    +0.000 C 
ATOM      7  C   UNL     1       1.204  11.205  20.191  0.00  0.00    +0.000 C 
ATOM      8  C   UNL     1       1.175  12.377  19.230  0.00  0.00    +0.000 C 
ATOM      9  C   UNL     1      -0.202  12.771  18.732  0.00  0.00    +0.000 C 
ATOM     10  O   UNL     1      -0.390  13.894  18.262  0.00  0.00    +0.000 OA
ATOM     11  N   UNL     1      -1.129  11.741  18.630  0.00  0.00    +0.000 N 
ATOM     12  C   UNL     1      -1.092  10.597  19.540  0.00  0.00    +0.000 C 
ATOM     13  C   UNL     1       0.324   8.901  20.773  0.00  0.00    +0.000 C 
ATOM     14  C   UNL     1       1.668   8.172  20.852  0.00  0.00    +0.000 C 
ENDROOT
BRANCH   2  15
ATOM     15  C   UNL     1       3.106   6.032  18.024  0.00  0.00    +0.000 C 
BRANCH  15  16
ATOM     16  C   UNL     1       4.337   5.150  18.154  0.00  0.00    +0.000 C 
BRANCH  16  17
ATOM     17  N   UNL     1       5.553   5.885  17.898  0.00  0.00    +0.000 N 
ATOM     18  C   UNL     1       6.757   5.768  18.514  0.00  0.00    +0.000 A 
ATOM     19  N   UNL     1       7.574   6.653  17.986  0.00  0.00    +0.000 NA
ATOM     20  N   UNL     1       6.845   7.316  17.026  0.00  0.00    +0.000 NA
ATOM     21  N   UNL     1       5.604   6.847  16.967  0.00  0.00    +0.000 NA
ENDBRANCH  16  17
ENDBRANCH  15  16
ENDBRANCH   2  15
BRANCH  11  22
ATOM     22  C   UNL     1      -2.061  11.788  17.499  0.00  0.00    +0.000 C 
BRANCH  22  23
ATOM     23  C   UNL     1      -3.350  10.967  17.585  0.00  0.00    +0.000 C 
BRANCH  23  24
ATOM     24  C   UNL     1      -4.590  11.710  18.003  0.00  0.00    +0.000 A 
ATOM     25  C   UNL     1      -4.831  12.126  19.314  0.00  0.00    +0.000 A 
ATOM     26  C   UNL     1      -5.991  12.839  19.608  0.00  0.00    +0.000 A 
ATOM     27  C   UNL     1      -6.869  13.117  18.575  0.00  0.00    +0.000 A 
ATOM     28  N   UNL     1      -6.670  12.745  17.295  0.00  0.00    +0.000 NA
ATOM     29  C   UNL     1      -5.533  12.058  17.040  0.00  0.00    +0.000 A 
ENDBRANCH  23  24
ENDBRANCH  22  23
ENDBRANCH  11  22
TORSDOF 6
ENDMDL
MODEL 7
REMARK VINA RESULT:      -7.0      4.451      8.298
REMARK  Name = 
REMARK  6 active torsions:
REMARK  status: ('A' for Active; 'I' for Inactive)
REMARK    1  A    between atoms: C_2  and  C_3
REMARK    2  A    between atoms: C_3  and  C_4
REMARK    3  A    between atoms: C_4  and  N_5
REMARK    4  A    between atoms: N_18  and  C_19
REMARK    5  A    between atoms: C_19  and  C_20
REMARK    6  A    between atoms: C_20  and  C_21
REMARK                            x       y       z     vdW  Elec       q    Type
REMARK                         _______ _______ _______ _____ _____    ______ ____
ROOT
ATOM      1  O   UNL     1       2.393   5.673  20.438  0.00  0.00    +0.000 OA
ATOM      2  C   UNL     1       2.436   6.493  19.518  0.00  0.00    +0.000 C 
ATOM      3  N   UNL     1       1.972   7.791  19.651  0.00  0.00    +0.000 N 
ATOM      4  C   UNL     1       2.044   8.810  18.606  0.00  0.00    +0.000 C 
ATOM      5  C   UNL     1       0.696   9.498  18.450  0.00  0.00    +0.000 C 
ATOM      6  C   UNL     1       0.195  10.112  19.779  0.00  0.00    +0.000 C 
ATOM      7  C   UNL     1       1.064  11.281  20.289  0.00  0.00    +0.000 C 
ATOM      8  C   UNL     1       1.072  12.455  19.331  0.00  0.00    +0.000 C 
ATOM      9  C   UNL     1      -0.287  12.857  18.790  0.00  0.00    +0.000 C 
ATOM     10  O   UNL     1      -0.454  13.982  18.317  0.00  0.00    +0.000 OA
ATOM     11  N   UNL     1      -1.215  11.832  18.656  0.00  0.00    +0.000 N 
ATOM     12  C   UNL     1      -1.213  10.685  19.564  0.00  0.00    +0.000 C 
ATOM     13  C   UNL     1       0.156   8.981  20.838  0.00  0.00    +0.000 C 
ATOM     14  C   UNL     1       1.493   8.245  20.958  0.00  0.00    +0.000 C 
ENDROOT
BRANCH   2  15
ATOM     15  C   UNL     1       3.010   6.104  18.173  0.00  0.00    +0.000 C 
BRANCH  15  16
ATOM     16  C   UNL     1       4.083   5.037  18.327  0.00  0.00    +0.000 C 
BRANCH  16  17
ATOM     17  N   UNL     1       3.539   3.707  18.198  0.00  0.00    +0.000 N 
ATOM     18  C   UNL     1       3.923   2.570  18.833  0.00  0.00    +0.000 A 
ATOM     19  N   UNL     1       3.175   1.583  18.393  0.00  0.00    +0.000 NA
ATOM     20  N   UNL     1       2.315   2.139  17.475  0.00  0.00    +0.000 NA
ATOM     21  N   UNL     1       2.534   3.444  17.352  0.00  0.00    +0.000 NA
ENDBRANCH  16  17
ENDBRANCH  15  16
ENDBRANCH   2  15
BRANCH  11  22
ATOM     22  C   UNL     1      -2.110  11.886  17.496  0.00  0.00    +0.000 C 
BRANCH  22  23
ATOM     23  C   UNL     1      -3.393  11.053  17.529  0.00  0.00    +0.000 C 
BRANCH  23  24
ATOM     24  C   UNL     1      -4.640  11.760  17.986  0.00  0.00    +0.000 A 
ATOM     25  C   UNL     1      -4.846  12.177  19.302  0.00  0.00    +0.000 A 
ATOM     26  C   UNL     1      -6.017  12.857  19.634  0.00  0.00    +0.000 A 
ATOM     27  C   UNL     1      -6.938  13.101  18.631  0.00  0.00    +0.000 A 
ATOM     28  N   UNL     1      -6.774  12.728  17.347  0.00  0.00    +0.000 NA
ATOM     29  C   UNL     1      -5.626  12.074  17.055  0.00  0.00    +0.000 A 
ENDBRANCH  23  24
ENDBRANCH  22  23
ENDBRANCH  11  22
TORSDOF 6
ENDMDL
MODEL 8
REMARK VINA RESULT:      -6.9      4.454      7.459
REMARK  Name = 
REMARK  6 active torsions:
REMARK  status: ('A' for Active; 'I' for Inactive)
REMARK    1  A    between atoms: C_2  and  C_3
REMARK    2  A    between atoms: C_3  and  C_4
REMARK    3  A    between atoms: C_4  and  N_5
REMARK    4  A    between atoms: N_18  and  C_19
REMARK    5  A    between atoms: C_19  and  C_20
REMARK    6  A    between atoms: C_20  and  C_21
REMARK                            x       y       z     vdW  Elec       q    Type
REMARK                         _______ _______ _______ _____ _____    ______ ____
ROOT
ATOM      1  O   UNL     1       3.086   5.712  19.744  0.00  0.00    +0.000 OA
ATOM      2  C   UNL     1       3.039   6.616  18.906  0.00  0.00    +0.000 C 
ATOM      3  N   UNL     1       2.417   7.829  19.149  0.00  0.00    +0.000 N 
ATOM      4  C   UNL     1       2.375   8.945  18.205  0.00  0.00    +0.000 C 
ATOM      5  C   UNL     1       0.955   9.476  18.082  0.00  0.00    +0.000 C 
ATOM      6  C   UNL     1       0.366   9.895  19.450  0.00  0.00    +0.000 C 
ATOM      7  C   UNL     1       1.078  11.106  20.089  0.00  0.00    +0.000 C 
ATOM      8  C   UNL     1       0.952  12.358  19.245  0.00  0.00    +0.000 C 
ATOM      9  C   UNL     1      -0.438  12.642  18.711  0.00  0.00    +0.000 C 
ATOM     10  O   UNL     1      -0.737  13.778  18.342  0.00  0.00    +0.000 OA
ATOM     11  N   UNL     1      -1.232  11.529  18.460  0.00  0.00    +0.000 N 
ATOM     12  C   UNL     1      -1.099  10.310  19.256  0.00  0.00    +0.000 C 
ATOM     13  C   UNL     1       0.453   8.670  20.398  0.00  0.00    +0.000 C 
ATOM     14  C   UNL     1       1.869   8.094  20.480  0.00  0.00    +0.000 C 
ENDROOT
BRANCH   2  15
ATOM     15  C   UNL     1       3.673   6.431  17.545  0.00  0.00    +0.000 C 
BRANCH  15  16
ATOM     16  C   UNL     1       5.169   6.698  17.601  0.00  0.00    +0.000 C 
BRANCH  16  17
ATOM     17  N   UNL     1       5.877   6.006  16.551  0.00  0.00    +0.000 N 
ATOM     18  C   UNL     1       7.007   5.258  16.643  0.00  0.00    +0.000 A 
ATOM     19  N   UNL     1       7.320   4.840  15.436  0.00  0.00    +0.000 NA
ATOM     20  N   UNL     1       6.352   5.344  14.598  0.00  0.00    +0.000 NA
ATOM     21  N   UNL     1       5.463   6.059  15.278  0.00  0.00    +0.000 NA
ENDBRANCH  16  17
ENDBRANCH  15  16
ENDBRANCH   2  15
BRANCH  11  22
ATOM     22  C   UNL     1      -2.111  11.586  17.289  0.00  0.00    +0.000 C 
BRANCH  22  23
ATOM     23  C   UNL     1      -3.447  10.840  17.347  0.00  0.00    +0.000 C 
BRANCH  23  24
ATOM     24  C   UNL     1      -4.640  11.638  17.800  0.00  0.00    +0.000 A 
ATOM     25  C   UNL     1      -4.896  11.943  19.138  0.00  0.00    +0.000 A 
ATOM     26  C   UNL     1      -6.007  12.717  19.467  0.00  0.00    +0.000 A 
ATOM     27  C   UNL     1      -6.821  13.165  18.442  0.00  0.00    +0.000 A 
ATOM     28  N   UNL     1      -6.604  12.904  17.138  0.00  0.00    +0.000 NA
ATOM     29  C   UNL     1      -5.516  12.154  16.849  0.00  0.00    +0.000 A 
ENDBRANCH  23  24
ENDBRANCH  22  23
ENDBRANCH  11  22
TORSDOF 6
ENDMDL
MODEL 9
REMARK VINA RESULT:      -6.7      4.364      8.341
REMARK  Name = 
REMARK  6 active torsions:
REMARK  status: ('A' for Active; 'I' for Inactive)
REMARK    1  A    between atoms: C_2  and  C_3
REMARK    2  A    between atoms: C_3  and  C_4
REMARK    3  A    between atoms: C_4  and  N_5
REMARK    4  A    between atoms: N_18  and  C_19
REMARK    5  A    between atoms: C_19  and  C_20
REMARK    6  A    between atoms: C_20  and  C_21
REMARK                            x       y       z     vdW  Elec       q    Type
REMARK                         _______ _______ _______ _____ _____    ______ ____
ROOT
ATOM      1  O   UNL     1       2.224   5.638  20.728  0.00  0.00    +0.000 OA
ATOM      2  C   UNL     1       2.251   6.404  19.762  0.00  0.00    +0.000 C 
ATOM      3  N   UNL     1       1.846   7.726  19.844  0.00  0.00    +0.000 N 
ATOM      4  C   UNL     1       1.904   8.682  18.738  0.00  0.00    +0.000 C 
ATOM      5  C   UNL     1       0.578   9.416  18.611  0.00  0.00    +0.000 C 
ATOM      6  C   UNL     1       0.172  10.124  19.926  0.00  0.00    +0.000 C 
ATOM      7  C   UNL     1       1.113  11.282  20.324  0.00  0.00    +0.000 C 
ATOM      8  C   UNL     1       1.116  12.399  19.300  0.00  0.00    +0.000 C 
ATOM      9  C   UNL     1      -0.252  12.828  18.806  0.00  0.00    +0.000 C 
ATOM     10  O   UNL     1      -0.399  13.931  18.279  0.00  0.00    +0.000 OA
ATOM     11  N   UNL     1      -1.226  11.837  18.779  0.00  0.00    +0.000 N 
ATOM     12  C   UNL     1      -1.221  10.744  19.750  0.00  0.00    +0.000 C 
ATOM     13  C   UNL     1       0.144   9.056  21.050  0.00  0.00    +0.000 C 
ATOM     14  C   UNL     1       1.455   8.272  21.144  0.00  0.00    +0.000 C 
ENDROOT
BRANCH   2  15
ATOM     15  C   UNL     1       2.737   5.917  18.414  0.00  0.00    +0.000 C 
BRANCH  15  16
ATOM     16  C   UNL     1       1.792   4.872  17.841  0.00  0.00    +0.000 C 
BRANCH  16  17
ATOM     17  N   UNL     1       2.253   3.530  18.103  0.00  0.00    +0.000 N 
ATOM     18  C   UNL     1       1.663   2.563  18.851  0.00  0.00    +0.000 A 
ATOM     19  N   UNL     1       2.444   1.505  18.843  0.00  0.00    +0.000 NA
ATOM     20  N   UNL     1       3.529   1.842  18.067  0.00  0.00    +0.000 NA
ATOM     21  N   UNL     1       3.416   3.084  17.609  0.00  0.00    +0.000 NA
ENDBRANCH  16  17
ENDBRANCH  15  16
ENDBRANCH   2  15
BRANCH  11  22
ATOM     22  C   UNL     1      -2.177  11.865  17.664  0.00  0.00    +0.000 C 
BRANCH  22  23
ATOM     23  C   UNL     1      -3.326  10.853  17.664  0.00  0.00    +0.000 C 
BRANCH  23  24
ATOM     24  C   UNL     1      -4.616  11.304  18.295  0.00  0.00    +0.000 A 
ATOM     25  C   UNL     1      -5.834  10.652  18.100  0.00  0.00    +0.000 A 
ATOM     26  C   UNL     1      -6.976  11.117  18.751  0.00  0.00    +0.000 A 
ATOM     27  C   UNL     1      -6.855  12.216  19.581  0.00  0.00    +0.000 A 
ATOM     28  N   UNL     1      -5.697  12.868  19.807  0.00  0.00    +0.000 NA
ATOM     29  C   UNL     1      -4.606  12.391  19.165  0.00  0.00    +0.000 A 
ENDBRANCH  23  24
ENDBRANCH  22  23
ENDBRANCH  11  22
TORSDOF 6
ENDMDL
