MODEL 1
REMARK VINA RESULT:      -7.9      0.000      0.000
REMARK  Name = 
REMARK  6 active torsions:
REMARK  status: ('A' for Active; 'I' for Inactive)
REMARK    1  A    between atoms: C_2  and  C_3
REMARK    2  A    between atoms: C_8  and  C_10
REMARK    3  A    between atoms: C_10  and  N_11
REMARK    4  A    between atoms: C_12  and  C_14
REMARK    5  A    between atoms: C_14  and  C_15
REMARK    6  A    between atoms: C_15  and  C_16
REMARK                            x       y       z     vdW  Elec       q    Type
REMARK                         _______ _______ _______ _____ _____    ______ ____
ROOT
ATOM      1  N   UNL     1       6.717   4.226  18.596  0.00  0.00    +0.000 N 
ATOM      2  C   UNL     1       7.218   4.618  17.377  0.00  0.00    +0.000 C 
ATOM      3  O   UNL     1       8.300   4.198  16.978  0.00  0.00    +0.000 OA
ATOM      4  H   UNL     1       7.280   3.552  19.094  0.00  0.00    +0.000 HD
ENDROOT
BRANCH   1   5
ATOM      5  C   UNL     1       5.434   4.606  19.166  0.00  0.00    +0.000 C 
BRANCH   5  11
ATOM      6  C   UNL     1       2.593   4.578  18.223  0.00  0.00    +0.000 C 
ATOM      7  C   UNL     1       1.229   4.004  17.824  0.00  0.00    +0.000 C 
ATOM      8  C   UNL     1       0.891   3.076  18.986  0.00  0.00    +0.000 C 
ATOM      9  C   UNL     1       2.239   2.462  19.326  0.00  0.00    +0.000 C 
ATOM     10  N   UNL     1       3.198   3.516  19.046  0.00  0.00    +0.000 N 
ATOM     11  C   UNL     1       4.516   3.413  19.454  0.00  0.00    +0.000 C 
ATOM     12  O   UNL     1       4.925   2.426  20.073  0.00  0.00    +0.000 OA
BRANCH   6  14
ATOM     13  N   UNL     1       2.275   6.833  19.550  0.00  0.00    +0.000 NA
ATOM     14  C   UNL     1       2.437   5.841  18.971  0.00  0.00    +0.000 C 
ENDBRANCH   6  14
ENDBRANCH   5  11
ENDBRANCH   1   5
BRANCH   2  15
ATOM     15  C   UNL     1       6.347   5.576  16.582  0.00  0.00    +0.000 C 
BRANCH  15  16
ATOM     16  C   UNL     1       5.369   4.878  15.651  0.00  0.00    +0.000 C 
BRANCH  16  17
ATOM     17  C   UNL     1       6.019   4.595  14.315  0.00  0.00    +0.000 A 
ATOM     18  C   UNL     1       5.480   3.631  13.450  0.00  0.00    +0.000 A 
ATOM     19  C   UNL     1       6.085   3.369  12.218  0.00  0.00    +0.000 A 
ATOM     20  C   UNL     1       7.235   4.061  11.841  0.00  0.00    +0.000 A 
ATOM     21  C   UNL     1       7.783   5.013  12.698  0.00  0.00    +0.000 A 
ATOM     22  C   UNL     1       7.182   5.275  13.931  0.00  0.00    +0.000 A 
ENDBRANCH  16  17
ENDBRANCH  15  16
ENDBRANCH   2  15
TORSDOF 6
ENDMDL
MODEL 2
REMARK VINA RESULT:      -7.5      0.506      1.131
REMARK  Name = 
REMARK  6 active torsions:
REMARK  status: ('A' for Active; 'I' for Inactive)
REMARK    1  A    between atoms: C_2  and  C_3
REMARK    2  A    between atoms: C_8  and  C_10
REMARK    3  A    between atoms: C_10  and  N_11
REMARK    4  A    between atoms: C_12  and  C_14
REMARK    5  A    between atoms: C_14  and  C_15
REMARK    6  A    between atoms: C_15  and  C_16
REMARK                            x       y       z     vdW  Elec       q    Type
REMARK                         _______ _______ _______ _____ _____    ______ ____
ROOT
ATOM      1  N   UNL     1       6.768   4.581  18.864  0.00  0.00    +0.000 N 
ATOM      2  C   UNL     1       7.068   4.457  17.528  0.00  0.00    +0.000 C 
ATOM      3  O   UNL     1       8.217   4.225  17.161  0.00  0.00    +0.000 OA
ATOM      4  H   UNL     1       7.542   4.427  19.494  0.00  0.00    +0.000 HD
ENDROOT
BRANCH   1   5
ATOM      5  C   UNL     1       5.450   4.805  19.436  0.00  0.00    +0.000 C 
BRANCH   5  11
ATOM      6  C   UNL     1       2.672   4.728  18.323  0.00  0.00    +0.000 C 
ATOM      7  C   UNL     1       1.372   4.130  17.774  0.00  0.00    +0.000 C 
ATOM      8  C   UNL     1       1.033   3.047  18.793  0.00  0.00    +0.000 C 
ATOM      9  C   UNL     1       2.397   2.476  19.140  0.00  0.00    +0.000 C 
ATOM     10  N   UNL     1       3.300   3.610  19.048  0.00  0.00    +0.000 N 
ATOM     11  C   UNL     1       4.597   3.534  19.522  0.00  0.00    +0.000 C 
ATOM     12  O   UNL     1       5.035   2.504  20.043  0.00  0.00    +0.000 OA
BRANCH   6  14
ATOM     13  N   UNL     1       2.174   6.806  19.866  0.00  0.00    +0.000 NA
ATOM     14  C   UNL     1       2.394   5.879  19.206  0.00  0.00    +0.000 C 
ENDBRANCH   6  14
ENDBRANCH   5  11
ENDBRANCH   1   5
BRANCH   2  15
ATOM     15  C   UNL     1       5.899   4.614  16.570  0.00  0.00    +0.000 C 
BRANCH  15  16
ATOM     16  C   UNL     1       6.165   5.598  15.442  0.00  0.00    +0.000 C 
BRANCH  16  17
ATOM     17  C   UNL     1       6.353   4.865  14.133  0.00  0.00    +0.000 A 
ATOM     18  C   UNL     1       7.450   5.150  13.307  0.00  0.00    +0.000 A 
ATOM     19  C   UNL     1       7.619   4.474  12.096  0.00  0.00    +0.000 A 
ATOM     20  C   UNL     1       6.692   3.513  11.695  0.00  0.00    +0.000 A 
ATOM     21  C   UNL     1       5.592   3.230  12.504  0.00  0.00    +0.000 A 
ATOM     22  C   UNL     1       5.420   3.906  13.715  0.00  0.00    +0.000 A 
ENDBRANCH  16  17
ENDBRANCH  15  16
ENDBRANCH   2  15
TORSDOF 6
ENDMDL
MODEL 3
REMARK VINA RESULT:      -7.5      1.091      1.583
REMARK  Name = 
REMARK  6 active torsions:
REMARK  status: ('A' for Active; 'I' for Inactive)
REMARK    1  A    between atoms: C_2  and  C_3
REMARK    2  A    between atoms: C_8  and  C_10
REMARK    3  A    between atoms: C_10  and  N_11
REMARK    4  A    between atoms: C_12  and  C_14
REMARK    5  A    between atoms: C_14  and  C_15
REMARK    6  A    between atoms: C_15  and  C_16
REMARK                            x       y       z     vdW  Elec       q    Type
REMARK                         _______ _______ _______ _____ _____    ______ ____
ROOT
ATOM      1  N   UNL     1       6.104   4.767  19.041  0.00  0.00    +0.000 N 
ATOM      2  C   UNL     1       7.220   5.110  18.317  0.00  0.00    +0.000 C 
ATOM      3  O   UNL     1       8.116   5.780  18.823  0.00  0.00    +0.000 OA
ATOM      4  H   UNL     1       6.107   5.069  20.004  0.00  0.00    +0.000 HD
ENDROOT
BRANCH   1   5
ATOM      5  C   UNL     1       4.997   3.942  18.584  0.00  0.00    +0.000 C 
BRANCH   5  11
ATOM      6  C   UNL     1       2.093   4.044  19.308  0.00  0.00    +0.000 C 
ATOM      7  C   UNL     1       0.750   3.579  19.881  0.00  0.00    +0.000 C 
ATOM      8  C   UNL     1       1.120   3.097  21.280  0.00  0.00    +0.000 C 
ATOM      9  C   UNL     1       2.464   2.425  21.057  0.00  0.00    +0.000 C 
ATOM     10  N   UNL     1       3.085   3.199  19.996  0.00  0.00    +0.000 N 
ATOM     11  C   UNL     1       4.421   3.033  19.675  0.00  0.00    +0.000 C 
ATOM     12  O   UNL     1       5.134   2.227  20.279  0.00  0.00    +0.000 OA
BRANCH   6  14
ATOM     13  N   UNL     1       2.442   6.616  19.765  0.00  0.00    +0.000 NA
ATOM     14  C   UNL     1       2.311   5.481  19.566  0.00  0.00    +0.000 C 
ENDBRANCH   6  14
ENDBRANCH   5  11
ENDBRANCH   1   5
BRANCH   2  15
ATOM     15  C   UNL     1       7.263   4.600  16.886  0.00  0.00    +0.000 C 
BRANCH  15  16
ATOM     16  C   UNL     1       6.490   5.471  15.908  0.00  0.00    +0.000 C 
BRANCH  16  17
ATOM     17  C   UNL     1       6.567   4.895  14.512  0.00  0.00    +0.000 A 
ATOM     18  C   UNL     1       7.615   5.251  13.650  0.00  0.00    +0.000 A 
ATOM     19  C   UNL     1       7.681   4.720  12.360  0.00  0.00    +0.000 A 
ATOM     20  C   UNL     1       6.700   3.837  11.914  0.00  0.00    +0.000 A 
ATOM     21  C   UNL     1       5.648   3.485  12.759  0.00  0.00    +0.000 A 
ATOM     22  C   UNL     1       5.579   4.016  14.050  0.00  0.00    +0.000 A 
ENDBRANCH  16  17
ENDBRANCH  15  16
ENDBRANCH   2  15
TORSDOF 6
ENDMDL
MODEL 4
REMARK VINA RESULT:      -7.4      1.172      1.296
REMARK  Name = 
REMARK  6 active torsions:
REMARK  status: ('A' for Active; 'I' for Inactive)
REMARK    1  A    between atoms: C_2  and  C_3
REMARK    2  A    between atoms: C_8  and  C_10
REMARK    3  A    between atoms: C_10  and  N_11
REMARK    4  A    between atoms: C_12  and  C_14
REMARK    5  A    between atoms: C_14  and  C_15
REMARK    6  A    between atoms: C_15  and  C_16
REMARK                            x       y       z     vdW  Elec       q    Type
REMARK                         _______ _______ _______ _____ _____    ______ ____
ROOT
ATOM      1  N   UNL     1       5.999   4.636  19.047  0.00  0.00    +0.000 N 
ATOM      2  C   UNL     1       7.028   5.125  18.279  0.00  0.00    +0.000 C 
ATOM      3  O   UNL     1       7.809   5.958  18.731  0.00  0.00    +0.000 OA
ATOM      4  H   UNL     1       5.970   4.979  19.996  0.00  0.00    +0.000 HD
ENDROOT
BRANCH   1   5
ATOM      5  C   UNL     1       5.036   3.618  18.655  0.00  0.00    +0.000 C 
BRANCH   5  11
ATOM      6  C   UNL     1       2.179   3.920  19.498  0.00  0.00    +0.000 C 
ATOM      7  C   UNL     1       0.845   3.569  20.164  0.00  0.00    +0.000 C 
ATOM      8  C   UNL     1       1.259   3.175  21.579  0.00  0.00    +0.000 C 
ATOM      9  C   UNL     1       2.558   2.422  21.349  0.00  0.00    +0.000 C 
ATOM     10  N   UNL     1       3.162   3.081  20.205  0.00  0.00    +0.000 N 
ATOM     11  C   UNL     1       4.472   2.825  19.838  0.00  0.00    +0.000 C 
ATOM     12  O   UNL     1       5.175   2.032  20.471  0.00  0.00    +0.000 OA
BRANCH   6  14
ATOM     13  N   UNL     1       2.731   6.489  19.706  0.00  0.00    +0.000 NA
ATOM     14  C   UNL     1       2.476   5.360  19.634  0.00  0.00    +0.000 C 
ENDBRANCH   6  14
ENDBRANCH   5  11
ENDBRANCH   1   5
BRANCH   2  15
ATOM     15  C   UNL     1       7.127   4.563  16.870  0.00  0.00    +0.000 C 
BRANCH  15  16
ATOM     16  C   UNL     1       6.049   5.082  15.932  0.00  0.00    +0.000 C 
BRANCH  16  17
ATOM     17  C   UNL     1       6.371   4.715  14.501  0.00  0.00    +0.000 A 
ATOM     18  C   UNL     1       5.574   3.794  13.805  0.00  0.00    +0.000 A 
ATOM     19  C   UNL     1       5.875   3.454  12.484  0.00  0.00    +0.000 A 
ATOM     20  C   UNL     1       6.977   4.024  11.848  0.00  0.00    +0.000 A 
ATOM     21  C   UNL     1       7.781   4.932  12.534  0.00  0.00    +0.000 A 
ATOM     22  C   UNL     1       7.483   5.272  13.856  0.00  0.00    +0.000 A 
ENDBRANCH  16  17
ENDBRANCH  15  16
ENDBRANCH   2  15
TORSDOF 6
ENDMDL
MODEL 5
REMARK VINA RESULT:      -7.4      1.847      2.692
REMARK  Name = 
REMARK  6 active torsions:
REMARK  status: ('A' for Active; 'I' for Inactive)
REMARK    1  A    between atoms: C_2  and  C_3
REMARK    2  A    between atoms: C_8  and  C_10
REMARK    3  A    between atoms: C_10  and  N_11
REMARK    4  A    between atoms: C_12  and  C_14
REMARK    5  A    between atoms: C_14  and  C_15
REMARK    6  A    between atoms: C_15  and  C_16
REMARK                            x       y       z     vdW  Elec       q    Type
REMARK                         _______ _______ _______ _____ _____    ______ ____
ROOT
ATOM      1  N   UNL     1       5.959   5.996  18.427  0.00  0.00    +0.000 N 
ATOM      2  C   UNL     1       6.057   6.391  17.114  0.00  0.00    +0.000 C 
ATOM      3  O   UNL     1       6.816   7.299  16.787  0.00  0.00    +0.000 OA
ATOM      4  H   UNL     1       6.575   6.475  19.067  0.00  0.00    +0.000 HD
ENDROOT
BRANCH   1   5
ATOM      5  C   UNL     1       5.141   4.909  18.943  0.00  0.00    +0.000 C 
BRANCH   5  11
ATOM      6  C   UNL     1       3.335   3.036  20.423  0.00  0.00    +0.000 C 
ATOM      7  C   UNL     1       2.191   2.584  21.337  0.00  0.00    +0.000 C 
ATOM      8  C   UNL     1       0.999   3.384  20.821  0.00  0.00    +0.000 C 
ATOM      9  C   UNL     1       1.620   4.731  20.491  0.00  0.00    +0.000 C 
ATOM     10  N   UNL     1       2.964   4.411  20.044  0.00  0.00    +0.000 N 
ATOM     11  C   UNL     1       3.763   5.362  19.435  0.00  0.00    +0.000 C 
ATOM     12  O   UNL     1       3.362   6.514  19.243  0.00  0.00    +0.000 OA
BRANCH   6  14
ATOM     13  N   UNL     1       3.540   1.482  18.305  0.00  0.00    +0.000 NA
ATOM     14  C   UNL     1       3.458   2.149  19.250  0.00  0.00    +0.000 C 
ENDBRANCH   6  14
ENDBRANCH   5  11
ENDBRANCH   1   5
BRANCH   2  15
ATOM     15  C   UNL     1       5.188   5.629  16.127  0.00  0.00    +0.000 C 
BRANCH  15  16
ATOM     16  C   UNL     1       5.746   4.265  15.754  0.00  0.00    +0.000 C 
BRANCH  16  17
ATOM     17  C   UNL     1       6.274   4.277  14.337  0.00  0.00    +0.000 A 
ATOM     18  C   UNL     1       7.346   5.109  13.983  0.00  0.00    +0.000 A 
ATOM     19  C   UNL     1       7.831   5.121  12.673  0.00  0.00    +0.000 A 
ATOM     20  C   UNL     1       7.245   4.310  11.702  0.00  0.00    +0.000 A 
ATOM     21  C   UNL     1       6.172   3.487  12.042  0.00  0.00    +0.000 A 
ATOM     22  C   UNL     1       5.685   3.475  13.351  0.00  0.00    +0.000 A 
ENDBRANCH  16  17
ENDBRANCH  15  16
ENDBRANCH   2  15
TORSDOF 6
ENDMDL
MODEL 6
REMARK VINA RESULT:      -7.3      1.309      1.456
REMARK  Name = 
REMARK  6 active torsions:
REMARK  status: ('A' for Active; 'I' for Inactive)
REMARK    1  A    between atoms: C_2  and  C_3
REMARK    2  A    between atoms: C_8  and  C_10
REMARK    3  A    between atoms: C_10  and  N_11
REMARK    4  A    between atoms: C_12  and  C_14
REMARK    5  A    between atoms: C_14  and  C_15
REMARK    6  A    between atoms: C_15  and  C_16
REMARK                            x       y       z     vdW  Elec       q    Type
REMARK                         _______ _______ _______ _____ _____    ______ ____
ROOT
ATOM      1  N   UNL     1       5.874   6.024  18.262  0.00  0.00    +0.000 N 
ATOM      2  C   UNL     1       6.395   6.249  17.010  0.00  0.00    +0.000 C 
ATOM      3  O   UNL     1       7.567   6.586  16.870  0.00  0.00    +0.000 OA
ATOM      4  H   UNL     1       6.530   6.115  19.023  0.00  0.00    +0.000 HD
ENDROOT
BRANCH   1   5
ATOM      5  C   UNL     1       4.524   5.576  18.568  0.00  0.00    +0.000 C 
BRANCH   5  11
ATOM      6  C   UNL     1       1.946   4.521  19.665  0.00  0.00    +0.000 C 
ATOM      7  C   UNL     1       0.947   3.506  20.230  0.00  0.00    +0.000 C 
ATOM      8  C   UNL     1       1.741   2.820  21.338  0.00  0.00    +0.000 C 
ATOM      9  C   UNL     1       3.131   2.713  20.734  0.00  0.00    +0.000 C 
ATOM     10  N   UNL     1       3.260   3.900  19.907  0.00  0.00    +0.000 N 
ATOM     11  C   UNL     1       4.481   4.275  19.375  0.00  0.00    +0.000 C 
ATOM     12  O   UNL     1       5.506   3.619  19.588  0.00  0.00    +0.000 OA
BRANCH   6  14
ATOM     13  N   UNL     1       1.679   6.838  20.891  0.00  0.00    +0.000 NA
ATOM     14  C   UNL     1       1.815   5.827  20.341  0.00  0.00    +0.000 C 
ENDBRANCH   6  14
ENDBRANCH   5  11
ENDBRANCH   1   5
BRANCH   2  15
ATOM     15  C   UNL     1       5.438   6.045  15.848  0.00  0.00    +0.000 C 
BRANCH  15  16
ATOM     16  C   UNL     1       5.250   4.585  15.466  0.00  0.00    +0.000 C 
BRANCH  16  17
ATOM     17  C   UNL     1       5.864   4.308  14.112  0.00  0.00    +0.000 A 
ATOM     18  C   UNL     1       5.230   3.448  13.204  0.00  0.00    +0.000 A 
ATOM     19  C   UNL     1       5.801   3.193  11.955  0.00  0.00    +0.000 A 
ATOM     20  C   UNL     1       7.012   3.786  11.604  0.00  0.00    +0.000 A 
ATOM     21  C   UNL     1       7.656   4.634  12.504  0.00  0.00    +0.000 A 
ATOM     22  C   UNL     1       7.088   4.890  13.754  0.00  0.00    +0.000 A 
ENDBRANCH  16  17
ENDBRANCH  15  16
ENDBRANCH   2  15
TORSDOF 6
ENDMDL
MODEL 7
REMARK VINA RESULT:      -7.3      1.163      1.590
REMARK  Name = 
REMARK  6 active torsions:
REMARK  status: ('A' for Active; 'I' for Inactive)
REMARK    1  A    between atoms: C_2  and  C_3
REMARK    2  A    between atoms: C_8  and  C_10
REMARK    3  A    between atoms: C_10  and  N_11
REMARK    4  A    between atoms: C_12  and  C_14
REMARK    5  A    between atoms: C_14  and  C_15
REMARK    6  A    between atoms: C_15  and  C_16
REMARK                            x       y       z     vdW  Elec       q    Type
REMARK                         _______ _______ _______ _____ _____    ______ ____
ROOT
ATOM      1  N   UNL     1       6.187   3.940  18.208  0.00  0.00    +0.000 N 
ATOM      2  C   UNL     1       6.892   4.313  17.089  0.00  0.00    +0.000 C 
ATOM      3  O   UNL     1       8.115   4.424  17.125  0.00  0.00    +0.000 OA
ATOM      4  H   UNL     1       6.749   3.734  19.021  0.00  0.00    +0.000 HD
ENDROOT
BRANCH   1   5
ATOM      5  C   UNL     1       4.751   3.725  18.293  0.00  0.00    +0.000 C 
BRANCH   5  11
ATOM      6  C   UNL     1       1.985   3.954  19.416  0.00  0.00    +0.000 C 
ATOM      7  C   UNL     1       0.733   3.568  20.210  0.00  0.00    +0.000 C 
ATOM      8  C   UNL     1       1.295   3.184  21.575  0.00  0.00    +0.000 C 
ATOM      9  C   UNL     1       2.583   2.463  21.215  0.00  0.00    +0.000 C 
ATOM     10  N   UNL     1       3.055   3.139  20.019  0.00  0.00    +0.000 N 
ATOM     11  C   UNL     1       4.327   2.916  19.523  0.00  0.00    +0.000 C 
ATOM     12  O   UNL     1       5.109   2.140  20.080  0.00  0.00    +0.000 OA
BRANCH   6  14
ATOM     13  N   UNL     1       2.503   6.532  19.587  0.00  0.00    +0.000 NA
ATOM     14  C   UNL     1       2.258   5.401  19.527  0.00  0.00    +0.000 C 
ENDBRANCH   6  14
ENDBRANCH   5  11
ENDBRANCH   1   5
BRANCH   2  15
ATOM     15  C   UNL     1       6.066   4.557  15.837  0.00  0.00    +0.000 C 
BRANCH  15  16
ATOM     16  C   UNL     1       6.906   4.808  14.594  0.00  0.00    +0.000 C 
BRANCH  16  17
ATOM     17  C   UNL     1       6.346   4.048  13.414  0.00  0.00    +0.000 A 
ATOM     18  C   UNL     1       4.960   3.906  13.249  0.00  0.00    +0.000 A 
ATOM     19  C   UNL     1       4.445   3.200  12.159  0.00  0.00    +0.000 A 
ATOM     20  C   UNL     1       5.307   2.624  11.228  0.00  0.00    +0.000 A 
ATOM     21  C   UNL     1       6.686   2.750  11.388  0.00  0.00    +0.000 A 
ATOM     22  C   UNL     1       7.203   3.454  12.478  0.00  0.00    +0.000 A 
ENDBRANCH  16  17
ENDBRANCH  15  16
ENDBRANCH   2  15
TORSDOF 6
ENDMDL
MODEL 8
REMARK VINA RESULT:      -7.2      1.511      1.977
REMARK  Name = 
REMARK  6 active torsions:
REMARK  status: ('A' for Active; 'I' for Inactive)
REMARK    1  A    between atoms: C_2  and  C_3
REMARK    2  A    between atoms: C_8  and  C_10
REMARK    3  A    between atoms: C_10  and  N_11
REMARK    4  A    between atoms: C_12  and  C_14
REMARK    5  A    between atoms: C_14  and  C_15
REMARK    6  A    between atoms: C_15  and  C_16
REMARK                            x       y       z     vdW  Elec       q    Type
REMARK                         _______ _______ _______ _____ _____    ______ ____
ROOT
ATOM      1  N   UNL     1       5.492   6.414  18.205  0.00  0.00    +0.000 N 
ATOM      2  C   UNL     1       6.053   6.536  16.956  0.00  0.00    +0.000 C 
ATOM      3  O   UNL     1       7.154   7.060  16.811  0.00  0.00    +0.000 OA
ATOM      4  H   UNL     1       6.066   6.743  18.967  0.00  0.00    +0.000 HD
ENDROOT
BRANCH   1   5
ATOM      5  C   UNL     1       4.225   5.775  18.525  0.00  0.00    +0.000 C 
BRANCH   5  11
ATOM      6  C   UNL     1       1.872   4.437  19.804  0.00  0.00    +0.000 C 
ATOM      7  C   UNL     1       1.032   3.311  20.417  0.00  0.00    +0.000 C 
ATOM      8  C   UNL     1       1.987   2.676  21.423  0.00  0.00    +0.000 C 
ATOM      9  C   UNL     1       3.319   2.725  20.694  0.00  0.00    +0.000 C 
ATOM     10  N   UNL     1       3.256   3.942  19.905  0.00  0.00    +0.000 N 
ATOM     11  C   UNL     1       4.382   4.452  19.282  0.00  0.00    +0.000 C 
ATOM     12  O   UNL     1       5.480   3.896  19.378  0.00  0.00    +0.000 OA
BRANCH   6  14
ATOM     13  N   UNL     1       1.487   6.698  21.103  0.00  0.00    +0.000 NA
ATOM     14  C   UNL     1       1.678   5.703  20.538  0.00  0.00    +0.000 C 
ENDBRANCH   6  14
ENDBRANCH   5  11
ENDBRANCH   1   5
BRANCH   2  15
ATOM     15  C   UNL     1       5.232   5.979  15.805  0.00  0.00    +0.000 C 
BRANCH  15  16
ATOM     16  C   UNL     1       5.518   4.515  15.509  0.00  0.00    +0.000 C 
BRANCH  16  17
ATOM     17  C   UNL     1       6.144   4.363  14.141  0.00  0.00    +0.000 A 
ATOM     18  C   UNL     1       7.284   5.103  13.793  0.00  0.00    +0.000 A 
ATOM     19  C   UNL     1       7.859   4.964  12.527  0.00  0.00    +0.000 A 
ATOM     20  C   UNL     1       7.298   4.092  11.595  0.00  0.00    +0.000 A 
ATOM     21  C   UNL     1       6.159   3.360  11.928  0.00  0.00    +0.000 A 
ATOM     22  C   UNL     1       5.582   3.499  13.192  0.00  0.00    +0.000 A 
ENDBRANCH  16  17
ENDBRANCH  15  16
ENDBRANCH   2  15
TORSDOF 6
ENDMDL
MODEL 9
REMARK VINA RESULT:      -7.2      1.762      2.647
REMARK  Name = 
REMARK  6 active torsions:
REMARK  status: ('A' for Active; 'I' for Inactive)
REMARK    1  A    between atoms: C_2  and  C_3
REMARK    2  A    between atoms: C_8  and  C_10
REMARK    3  A    between atoms: C_10  and  N_11
REMARK    4  A    between atoms: C_12  and  C_14
REMARK    5  A    between atoms: C_14  and  C_15
REMARK    6  A    between atoms: C_15  and  C_16
REMARK                            x       y       z     vdW  Elec       q    Type
REMARK                         _______ _______ _______ _____ _____    ______ ____
ROOT
ATOM      1  N   UNL     1       5.668   5.490  18.828  0.00  0.00    +0.000 N 
ATOM      2  C   UNL     1       6.822   4.983  18.280  0.00  0.00    +0.000 C 
ATOM      3  O   UNL     1       7.873   4.986  18.916  0.00  0.00    +0.000 OA
ATOM      4  H   UNL     1       5.751   5.814  19.780  0.00  0.00    +0.000 HD
ENDROOT
BRANCH   1   5
ATOM      5  C   UNL     1       4.352   5.505  18.208  0.00  0.00    +0.000 C 
BRANCH   5  11
ATOM      6  C   UNL     1       3.361   3.311  19.987  0.00  0.00    +0.000 C 
ATOM      7  C   UNL     1       2.665   2.648  21.180  0.00  0.00    +0.000 C 
ATOM      8  C   UNL     1       1.306   3.341  21.216  0.00  0.00    +0.000 C 
ATOM      9  C   UNL     1       1.654   4.776  20.857  0.00  0.00    +0.000 C 
ATOM     10  N   UNL     1       2.768   4.659  19.932  0.00  0.00    +0.000 N 
ATOM     11  C   UNL     1       3.212   5.747  19.203  0.00  0.00    +0.000 C 
ATOM     12  O   UNL     1       2.677   6.855  19.306  0.00  0.00    +0.000 OA
BRANCH   6  14
ATOM     13  N   UNL     1       2.898   1.950  17.777  0.00  0.00    +0.000 NA
ATOM     14  C   UNL     1       3.124   2.548  18.745  0.00  0.00    +0.000 C 
ENDBRANCH   6  14
ENDBRANCH   5  11
ENDBRANCH   1   5
BRANCH   2  15
ATOM     15  C   UNL     1       6.697   4.424  16.873  0.00  0.00    +0.000 C 
BRANCH  15  16
ATOM     16  C   UNL     1       7.126   5.403  15.791  0.00  0.00    +0.000 C 
BRANCH  16  17
ATOM     17  C   UNL     1       6.896   4.811  14.419  0.00  0.00    +0.000 A 
ATOM     18  C   UNL     1       7.685   5.207  13.329  0.00  0.00    +0.000 A 
ATOM     19  C   UNL     1       7.469   4.660  12.062  0.00  0.00    +0.000 A 
ATOM     20  C   UNL     1       6.459   3.719  11.869  0.00  0.00    +0.000 A 
ATOM     21  C   UNL     1       5.662   3.326  12.943  0.00  0.00    +0.000 A 
ATOM     22  C   UNL     1       5.876   3.873  14.211  0.00  0.00    +0.000 A 
ENDBRANCH  16  17
ENDBRANCH  15  16
ENDBRANCH   2  15
TORSDOF 6
ENDMDL
