MODEL 1
REMARK VINA RESULT:      -6.2      0.000      0.000
REMARK  Name = 
REMARK  8 active torsions:
REMARK  status: ('A' for Active; 'I' for Inactive)
REMARK    1  A    between atoms: C_2  and  C_3
REMARK    2  A    between atoms: C_3  and  C_4
REMARK    3  A    between atoms: C_7  and  O_8
REMARK    4  A    between atoms: O_8  and  C_9
REMARK    5  A    between atoms: C_9  and  C_10
REMARK    6  A    between atoms: C_10  and  O_12
REMARK    7  A    between atoms: C_13  and  O_14
REMARK    8  A    between atoms: O_14  and  C_15
REMARK                            x       y       z     vdW  Elec       q    Type
REMARK                         _______ _______ _______ _____ _____    ______ ____
ROOT
ATOM      1  C   UNL     1       4.959   5.137  16.359  0.00  0.00    +0.000 A 
ATOM      2  C   UNL     1       4.540   6.292  17.020  0.00  0.00    +0.000 A 
ATOM      3  C   UNL     1       3.506   6.233  17.951  0.00  0.00    +0.000 A 
ATOM      4  C   UNL     1       2.855   5.023  18.223  0.00  0.00    +0.000 A 
ATOM      5  C   UNL     1       3.309   3.837  17.610  0.00  0.00    +0.000 A 
ATOM      6  C   UNL     1       4.357   3.911  16.680  0.00  0.00    +0.000 A 
ENDROOT
BRANCH   5   7
ATOM      7  O   UNL     1       2.677   2.669  17.965  0.00  0.00    +0.000 OA
ATOM      8  C   UNL     1       3.509   1.604  18.425  0.00  0.00    +0.000 C 
ENDBRANCH   5   7
BRANCH   1   9
ATOM      9  C   UNL     1       6.072   5.208  15.342  0.00  0.00    +0.000 C 
BRANCH   9  11
ATOM     10  C   UNL     1       5.953   3.745  13.304  0.00  0.00    +0.000 C 
ATOM     11  C   UNL     1       6.245   3.914  14.599  0.00  0.00    +0.000 C 
ENDBRANCH   9  11
ENDBRANCH   1   9
BRANCH   4  12
ATOM     12  O   UNL     1       1.771   4.936  19.074  0.00  0.00    +0.000 OA
BRANCH  12  13
ATOM     13  C   UNL     1       2.107   4.935  20.467  0.00  0.00    +0.000 C 
BRANCH  13  14
ATOM     14  C   UNL     1       1.694   3.629  21.128  0.00  0.00    +0.000 C 
ATOM     15  O   UNL     1       2.208   3.188  22.144  0.00  0.00    +0.000 OA
BRANCH  14  16
ATOM     16  O   UNL     1       0.692   2.993  20.471  0.00  0.00    +0.000 OA
ATOM     17  H   UNL     1       1.017   2.121  20.148  0.00  0.00    +0.000 HD
ENDBRANCH  14  16
ENDBRANCH  13  14
ENDBRANCH  12  13
ENDBRANCH   4  12
TORSDOF 7
ENDMDL
MODEL 2
REMARK VINA RESULT:      -6.1      2.989      6.224
REMARK  Name = 
REMARK  8 active torsions:
REMARK  status: ('A' for Active; 'I' for Inactive)
REMARK    1  A    between atoms: C_2  and  C_3
REMARK    2  A    between atoms: C_3  and  C_4
REMARK    3  A    between atoms: C_7  and  O_8
REMARK    4  A    between atoms: O_8  and  C_9
REMARK    5  A    between atoms: C_9  and  C_10
REMARK    6  A    between atoms: C_10  and  O_12
REMARK    7  A    between atoms: C_13  and  O_14
REMARK    8  A    between atoms: O_14  and  C_15
REMARK                            x       y       z     vdW  Elec       q    Type
REMARK                         _______ _______ _______ _____ _____    ______ ____
ROOT
ATOM      1  C   UNL     1       2.980   4.490  19.340  0.00  0.00    +0.000 A 
ATOM      2  C   UNL     1       2.486   4.043  18.113  0.00  0.00    +0.000 A 
ATOM      3  C   UNL     1       3.357   3.769  17.062  0.00  0.00    +0.000 A 
ATOM      4  C   UNL     1       4.738   3.957  17.208  0.00  0.00    +0.000 A 
ATOM      5  C   UNL     1       5.257   4.348  18.459  0.00  0.00    +0.000 A 
ATOM      6  C   UNL     1       4.367   4.614  19.512  0.00  0.00    +0.000 A 
ENDROOT
BRANCH   5   7
ATOM      7  O   UNL     1       6.623   4.452  18.564  0.00  0.00    +0.000 OA
ATOM      8  C   UNL     1       7.131   5.620  19.208  0.00  0.00    +0.000 C 
ENDBRANCH   5   7
BRANCH   1   9
ATOM      9  C   UNL     1       2.031   4.798  20.472  0.00  0.00    +0.000 C 
BRANCH   9  11
ATOM     10  C   UNL     1       1.568   2.594  21.582  0.00  0.00    +0.000 C 
ATOM     11  C   UNL     1       1.167   3.621  20.824  0.00  0.00    +0.000 C 
ENDBRANCH   9  11
ENDBRANCH   1   9
BRANCH   4  12
ATOM     12  O   UNL     1       5.627   3.779  16.167  0.00  0.00    +0.000 OA
BRANCH  12  13
ATOM     13  C   UNL     1       5.756   4.910  15.296  0.00  0.00    +0.000 C 
BRANCH  13  14
ATOM     14  C   UNL     1       6.784   4.646  14.206  0.00  0.00    +0.000 C 
ATOM     15  O   UNL     1       7.725   5.386  13.964  0.00  0.00    +0.000 OA
BRANCH  14  16
ATOM     16  O   UNL     1       6.549   3.501  13.519  0.00  0.00    +0.000 OA
ATOM     17  H   UNL     1       7.347   3.269  12.989  0.00  0.00    +0.000 HD
ENDBRANCH  14  16
ENDBRANCH  13  14
ENDBRANCH  12  13
ENDBRANCH   4  12
TORSDOF 7
ENDMDL
MODEL 3
REMARK VINA RESULT:      -6.1      3.137      5.235
REMARK  Name = 
REMARK  8 active torsions:
REMARK  status: ('A' for Active; 'I' for Inactive)
REMARK    1  A    between atoms: C_2  and  C_3
REMARK    2  A    between atoms: C_3  and  C_4
REMARK    3  A    between atoms: C_7  and  O_8
REMARK    4  A    between atoms: O_8  and  C_9
REMARK    5  A    between atoms: C_9  and  C_10
REMARK    6  A    between atoms: C_10  and  O_12
REMARK    7  A    between atoms: C_13  and  O_14
REMARK    8  A    between atoms: O_14  and  C_15
REMARK                            x       y       z     vdW  Elec       q    Type
REMARK                         _______ _______ _______ _____ _____    ______ ____
ROOT
ATOM      1  C   UNL     1       3.073   4.577  17.486  0.00  0.00    +0.000 A 
ATOM      2  C   UNL     1       3.317   5.887  17.903  0.00  0.00    +0.000 A 
ATOM      3  C   UNL     1       4.524   6.510  17.596  0.00  0.00    +0.000 A 
ATOM      4  C   UNL     1       5.521   5.828  16.886  0.00  0.00    +0.000 A 
ATOM      5  C   UNL     1       5.266   4.527  16.405  0.00  0.00    +0.000 A 
ATOM      6  C   UNL     1       4.041   3.915  16.716  0.00  0.00    +0.000 A 
ENDROOT
BRANCH   5   7
ATOM      7  O   UNL     1       6.254   3.933  15.658  0.00  0.00    +0.000 OA
ATOM      8  C   UNL     1       6.085   3.949  14.241  0.00  0.00    +0.000 C 
ENDBRANCH   5   7
BRANCH   1   9
ATOM      9  C   UNL     1       1.768   3.903  17.832  0.00  0.00    +0.000 C 
BRANCH   9  11
ATOM     10  C   UNL     1       0.907   3.071  20.040  0.00  0.00    +0.000 C 
ATOM     11  C   UNL     1       1.422   4.050  19.286  0.00  0.00    +0.000 C 
ENDBRANCH   9  11
ENDBRANCH   1   9
BRANCH   4  12
ATOM     12  O   UNL     1       6.763   6.377  16.636  0.00  0.00    +0.000 OA
BRANCH  12  13
ATOM     13  C   UNL     1       7.527   6.681  17.809  0.00  0.00    +0.000 C 
BRANCH  13  14
ATOM     14  C   UNL     1       7.735   5.440  18.663  0.00  0.00    +0.000 C 
ATOM     15  O   UNL     1       8.247   4.410  18.254  0.00  0.00    +0.000 OA
BRANCH  14  16
ATOM     16  O   UNL     1       7.289   5.588  19.936  0.00  0.00    +0.000 OA
ATOM     17  H   UNL     1       7.487   4.770  20.448  0.00  0.00    +0.000 HD
ENDBRANCH  14  16
ENDBRANCH  13  14
ENDBRANCH  12  13
ENDBRANCH   4  12
TORSDOF 7
ENDMDL
MODEL 4
REMARK VINA RESULT:      -6.1      2.725      6.103
REMARK  Name = 
REMARK  8 active torsions:
REMARK  status: ('A' for Active; 'I' for Inactive)
REMARK    1  A    between atoms: C_2  and  C_3
REMARK    2  A    between atoms: C_3  and  C_4
REMARK    3  A    between atoms: C_7  and  O_8
REMARK    4  A    between atoms: O_8  and  C_9
REMARK    5  A    between atoms: C_9  and  C_10
REMARK    6  A    between atoms: C_10  and  O_12
REMARK    7  A    between atoms: C_13  and  O_14
REMARK    8  A    between atoms: O_14  and  C_15
REMARK                            x       y       z     vdW  Elec       q    Type
REMARK                         _______ _______ _______ _____ _____    ______ ____
ROOT
ATOM      1  C   UNL     1       2.110   3.745  18.459  0.00  0.00    +0.000 A 
ATOM      2  C   UNL     1       3.079   2.949  17.846  0.00  0.00    +0.000 A 
ATOM      3  C   UNL     1       4.165   3.534  17.200  0.00  0.00    +0.000 A 
ATOM      4  C   UNL     1       4.292   4.927  17.134  0.00  0.00    +0.000 A 
ATOM      5  C   UNL     1       3.355   5.743  17.801  0.00  0.00    +0.000 A 
ATOM      6  C   UNL     1       2.271   5.138  18.455  0.00  0.00    +0.000 A 
ENDROOT
BRANCH   5   7
ATOM      7  O   UNL     1       3.567   7.101  17.759  0.00  0.00    +0.000 OA
ATOM      8  C   UNL     1       2.463   7.934  18.111  0.00  0.00    +0.000 C 
ENDBRANCH   5   7
BRANCH   1   9
ATOM      9  C   UNL     1       0.929   3.105  19.147  0.00  0.00    +0.000 C 
BRANCH   9  11
ATOM     10  C   UNL     1       2.108   2.958  21.360  0.00  0.00    +0.000 C 
ATOM     11  C   UNL     1       1.011   3.226  20.642  0.00  0.00    +0.000 C 
ENDBRANCH   9  11
ENDBRANCH   1   9
BRANCH   4  12
ATOM     12  O   UNL     1       5.305   5.549  16.431  0.00  0.00    +0.000 OA
BRANCH  12  13
ATOM     13  C   UNL     1       6.504   4.775  16.306  0.00  0.00    +0.000 C 
BRANCH  13  14
ATOM     14  C   UNL     1       6.902   4.613  14.848  0.00  0.00    +0.000 C 
ATOM     15  O   UNL     1       7.638   5.385  14.252  0.00  0.00    +0.000 OA
BRANCH  14  16
ATOM     16  O   UNL     1       6.351   3.520  14.264  0.00  0.00    +0.000 OA
ATOM     17  H   UNL     1       6.518   2.730  14.828  0.00  0.00    +0.000 HD
ENDBRANCH  14  16
ENDBRANCH  13  14
ENDBRANCH  12  13
ENDBRANCH   4  12
TORSDOF 7
ENDMDL
MODEL 5
REMARK VINA RESULT:      -6.0      2.748      5.853
REMARK  Name = 
REMARK  8 active torsions:
REMARK  status: ('A' for Active; 'I' for Inactive)
REMARK    1  A    between atoms: C_2  and  C_3
REMARK    2  A    between atoms: C_3  and  C_4
REMARK    3  A    between atoms: C_7  and  O_8
REMARK    4  A    between atoms: O_8  and  C_9
REMARK    5  A    between atoms: C_9  and  C_10
REMARK    6  A    between atoms: C_10  and  O_12
REMARK    7  A    between atoms: C_13  and  O_14
REMARK    8  A    between atoms: O_14  and  C_15
REMARK                            x       y       z     vdW  Elec       q    Type
REMARK                         _______ _______ _______ _____ _____    ______ ____
ROOT
ATOM      1  C   UNL     1       2.014   3.867  18.705  0.00  0.00    +0.000 A 
ATOM      2  C   UNL     1       2.724   2.879  18.020  0.00  0.00    +0.000 A 
ATOM      3  C   UNL     1       3.763   3.227  17.161  0.00  0.00    +0.000 A 
ATOM      4  C   UNL     1       4.098   4.571  16.951  0.00  0.00    +0.000 A 
ATOM      5  C   UNL     1       3.433   5.576  17.683  0.00  0.00    +0.000 A 
ATOM      6  C   UNL     1       2.393   5.209  18.552  0.00  0.00    +0.000 A 
ENDROOT
BRANCH   5   7
ATOM      7  O   UNL     1       3.849   6.871  17.487  0.00  0.00    +0.000 OA
ATOM      8  C   UNL     1       2.932   7.902  17.849  0.00  0.00    +0.000 C 
ENDBRANCH   5   7
BRANCH   1   9
ATOM      9  C   UNL     1       0.881   3.485  19.626  0.00  0.00    +0.000 C 
BRANCH   9  11
ATOM     10  C   UNL     1       2.034   2.630  21.687  0.00  0.00    +0.000 C 
ATOM     11  C   UNL     1       1.280   3.550  21.073  0.00  0.00    +0.000 C 
ENDBRANCH   9  11
ENDBRANCH   1   9
BRANCH   4  12
ATOM     12  O   UNL     1       5.063   4.964  16.044  0.00  0.00    +0.000 OA
BRANCH  12  13
ATOM     13  C   UNL     1       6.289   4.227  16.124  0.00  0.00    +0.000 C 
BRANCH  13  14
ATOM     14  C   UNL     1       7.300   4.940  17.008  0.00  0.00    +0.000 C 
ATOM     15  O   UNL     1       7.839   4.427  17.976  0.00  0.00    +0.000 OA
BRANCH  14  16
ATOM     16  O   UNL     1       7.543   6.216  16.617  0.00  0.00    +0.000 OA
ATOM     17  H   UNL     1       6.703   6.730  16.642  0.00  0.00    +0.000 HD
ENDBRANCH  14  16
ENDBRANCH  13  14
ENDBRANCH  12  13
ENDBRANCH   4  12
TORSDOF 7
ENDMDL
MODEL 6
REMARK VINA RESULT:      -6.0      3.166      5.602
REMARK  Name = 
REMARK  8 active torsions:
REMARK  status: ('A' for Active; 'I' for Inactive)
REMARK    1  A    between atoms: C_2  and  C_3
REMARK    2  A    between atoms: C_3  and  C_4
REMARK    3  A    between atoms: C_7  and  O_8
REMARK    4  A    between atoms: O_8  and  C_9
REMARK    5  A    between atoms: C_9  and  C_10
REMARK    6  A    between atoms: C_10  and  O_12
REMARK    7  A    between atoms: C_13  and  O_14
REMARK    8  A    between atoms: O_14  and  C_15
REMARK                            x       y       z     vdW  Elec       q    Type
REMARK                         _______ _______ _______ _____ _____    ______ ____
ROOT
ATOM      1  C   UNL     1       2.483   4.008  18.040  0.00  0.00    +0.000 A 
ATOM      2  C   UNL     1       3.669   3.278  17.945  0.00  0.00    +0.000 A 
ATOM      3  C   UNL     1       4.879   3.928  17.716  0.00  0.00    +0.000 A 
ATOM      4  C   UNL     1       4.925   5.318  17.554  0.00  0.00    +0.000 A 
ATOM      5  C   UNL     1       3.746   6.076  17.708  0.00  0.00    +0.000 A 
ATOM      6  C   UNL     1       2.535   5.407  17.948  0.00  0.00    +0.000 A 
ENDROOT
BRANCH   5   7
ATOM      7  O   UNL     1       3.862   7.441  17.605  0.00  0.00    +0.000 OA
ATOM      8  C   UNL     1       2.673   8.204  17.806  0.00  0.00    +0.000 C 
ENDBRANCH   5   7
BRANCH   1   9
ATOM      9  C   UNL     1       1.173   3.298  18.277  0.00  0.00    +0.000 C 
BRANCH   9  11
ATOM     10  C   UNL     1       1.231   3.569  20.773  0.00  0.00    +0.000 C 
ATOM     11  C   UNL     1       1.042   2.806  19.690  0.00  0.00    +0.000 C 
ENDBRANCH   9  11
ENDBRANCH   1   9
BRANCH   4  12
ATOM     12  O   UNL     1       6.089   5.992  17.240  0.00  0.00    +0.000 OA
BRANCH  12  13
ATOM     13  C   UNL     1       7.287   5.353  17.697  0.00  0.00    +0.000 C 
BRANCH  13  14
ATOM     14  C   UNL     1       7.726   5.912  19.042  0.00  0.00    +0.000 C 
ATOM     15  O   UNL     1       7.490   5.375  20.113  0.00  0.00    +0.000 OA
BRANCH  14  16
ATOM     16  O   UNL     1       8.409   7.079  18.936  0.00  0.00    +0.000 OA
ATOM     17  H   UNL     1       9.348   6.888  18.709  0.00  0.00    +0.000 HD
ENDBRANCH  14  16
ENDBRANCH  13  14
ENDBRANCH  12  13
ENDBRANCH   4  12
TORSDOF 7
ENDMDL
MODEL 7
REMARK VINA RESULT:      -6.0      2.508      3.400
REMARK  Name = 
REMARK  8 active torsions:
REMARK  status: ('A' for Active; 'I' for Inactive)
REMARK    1  A    between atoms: C_2  and  C_3
REMARK    2  A    between atoms: C_3  and  C_4
REMARK    3  A    between atoms: C_7  and  O_8
REMARK    4  A    between atoms: O_8  and  C_9
REMARK    5  A    between atoms: C_9  and  C_10
REMARK    6  A    between atoms: C_10  and  O_12
REMARK    7  A    between atoms: C_13  and  O_14
REMARK    8  A    between atoms: O_14  and  C_15
REMARK                            x       y       z     vdW  Elec       q    Type
REMARK                         _______ _______ _______ _____ _____    ______ ____
ROOT
ATOM      1  C   UNL     1       6.308   4.569  15.094  0.00  0.00    +0.000 A 
ATOM      2  C   UNL     1       5.006   4.278  15.502  0.00  0.00    +0.000 A 
ATOM      3  C   UNL     1       4.707   4.135  16.855  0.00  0.00    +0.000 A 
ATOM      4  C   UNL     1       5.710   4.258  17.826  0.00  0.00    +0.000 A 
ATOM      5  C   UNL     1       7.017   4.613  17.434  0.00  0.00    +0.000 A 
ATOM      6  C   UNL     1       7.300   4.762  16.067  0.00  0.00    +0.000 A 
ENDROOT
BRANCH   5   7
ATOM      7  O   UNL     1       7.944   4.785  18.434  0.00  0.00    +0.000 OA
ATOM      8  C   UNL     1       8.007   6.079  19.034  0.00  0.00    +0.000 C 
ENDBRANCH   5   7
BRANCH   1   9
ATOM      9  C   UNL     1       6.628   4.711  13.626  0.00  0.00    +0.000 C 
BRANCH   9  11
ATOM     10  C   UNL     1       5.359   3.310  11.972  0.00  0.00    +0.000 C 
ATOM     11  C   UNL     1       6.350   3.449  12.861  0.00  0.00    +0.000 C 
ENDBRANCH   9  11
ENDBRANCH   1   9
BRANCH   4  12
ATOM     12  O   UNL     1       5.475   4.039  19.168  0.00  0.00    +0.000 OA
BRANCH  12  13
ATOM     13  C   UNL     1       4.123   3.688  19.487  0.00  0.00    +0.000 C 
BRANCH  13  14
ATOM     14  C   UNL     1       4.072   2.473  20.399  0.00  0.00    +0.000 C 
ATOM     15  O   UNL     1       3.239   2.314  21.277  0.00  0.00    +0.000 OA
BRANCH  14  16
ATOM     16  O   UNL     1       5.056   1.575  20.144  0.00  0.00    +0.000 OA
ATOM     17  H   UNL     1       5.410   1.227  20.996  0.00  0.00    +0.000 HD
ENDBRANCH  14  16
ENDBRANCH  13  14
ENDBRANCH  12  13
ENDBRANCH   4  12
TORSDOF 7
ENDMDL
MODEL 8
REMARK VINA RESULT:      -5.9      1.959      2.499
REMARK  Name = 
REMARK  8 active torsions:
REMARK  status: ('A' for Active; 'I' for Inactive)
REMARK    1  A    between atoms: C_2  and  C_3
REMARK    2  A    between atoms: C_3  and  C_4
REMARK    3  A    between atoms: C_7  and  O_8
REMARK    4  A    between atoms: O_8  and  C_9
REMARK    5  A    between atoms: C_9  and  C_10
REMARK    6  A    between atoms: C_10  and  O_12
REMARK    7  A    between atoms: C_13  and  O_14
REMARK    8  A    between atoms: O_14  and  C_15
REMARK                            x       y       z     vdW  Elec       q    Type
REMARK                         _______ _______ _______ _____ _____    ______ ____
ROOT
ATOM      1  C   UNL     1       5.638   4.593  16.092  0.00  0.00    +0.000 A 
ATOM      2  C   UNL     1       4.376   4.009  16.212  0.00  0.00    +0.000 A 
ATOM      3  C   UNL     1       3.837   3.751  17.469  0.00  0.00    +0.000 A 
ATOM      4  C   UNL     1       4.557   4.049  18.632  0.00  0.00    +0.000 A 
ATOM      5  C   UNL     1       5.806   4.696  18.529  0.00  0.00    +0.000 A 
ATOM      6  C   UNL     1       6.333   4.958  17.255  0.00  0.00    +0.000 A 
ENDROOT
BRANCH   5   7
ATOM      7  O   UNL     1       6.438   5.025  19.704  0.00  0.00    +0.000 OA
ATOM      8  C   UNL     1       7.707   5.669  19.593  0.00  0.00    +0.000 C 
ENDBRANCH   5   7
BRANCH   1   9
ATOM      9  C   UNL     1       6.223   4.860  14.727  0.00  0.00    +0.000 C 
BRANCH   9  11
ATOM     10  C   UNL     1       6.394   3.611  12.555  0.00  0.00    +0.000 C 
ATOM     11  C   UNL     1       5.758   3.862  13.706  0.00  0.00    +0.000 C 
ENDBRANCH   9  11
ENDBRANCH   1   9
BRANCH   4  12
ATOM     12  O   UNL     1       4.097   3.731  19.895  0.00  0.00    +0.000 OA
BRANCH  12  13
ATOM     13  C   UNL     1       2.817   4.287  20.219  0.00  0.00    +0.000 C 
BRANCH  13  14
ATOM     14  C   UNL     1       2.040   3.368  21.147  0.00  0.00    +0.000 C 
ATOM     15  O   UNL     1       2.507   2.866  22.158  0.00  0.00    +0.000 OA
BRANCH  14  16
ATOM     16  O   UNL     1       0.765   3.151  20.738  0.00  0.00    +0.000 OA
ATOM     17  H   UNL     1       0.247   2.756  21.477  0.00  0.00    +0.000 HD
ENDBRANCH  14  16
ENDBRANCH  13  14
ENDBRANCH  12  13
ENDBRANCH   4  12
TORSDOF 7
ENDMDL
MODEL 9
REMARK VINA RESULT:      -5.9      1.351      2.759
REMARK  Name = 
REMARK  8 active torsions:
REMARK  status: ('A' for Active; 'I' for Inactive)
REMARK    1  A    between atoms: C_2  and  C_3
REMARK    2  A    between atoms: C_3  and  C_4
REMARK    3  A    between atoms: C_7  and  O_8
REMARK    4  A    between atoms: O_8  and  C_9
REMARK    5  A    between atoms: C_9  and  C_10
REMARK    6  A    between atoms: C_10  and  O_12
REMARK    7  A    between atoms: C_13  and  O_14
REMARK    8  A    between atoms: O_14  and  C_15
REMARK                            x       y       z     vdW  Elec       q    Type
REMARK                         _______ _______ _______ _____ _____    ______ ____
ROOT
ATOM      1  C   UNL     1       4.656   5.235  16.691  0.00  0.00    +0.000 A 
ATOM      2  C   UNL     1       4.095   4.001  17.022  0.00  0.00    +0.000 A 
ATOM      3  C   UNL     1       3.081   3.922  17.973  0.00  0.00    +0.000 A 
ATOM      4  C   UNL     1       2.623   5.072  18.629  0.00  0.00    +0.000 A 
ATOM      5  C   UNL     1       3.136   6.332  18.261  0.00  0.00    +0.000 A 
ATOM      6  C   UNL     1       4.152   6.397  17.294  0.00  0.00    +0.000 A 
ENDROOT
BRANCH   5   7
ATOM      7  O   UNL     1       2.602   7.432  18.889  0.00  0.00    +0.000 OA
ATOM      8  C   UNL     1       2.188   8.512  18.053  0.00  0.00    +0.000 C 
ENDBRANCH   5   7
BRANCH   1   9
ATOM      9  C   UNL     1       5.763   5.314  15.668  0.00  0.00    +0.000 C 
BRANCH   9  11
ATOM     10  C   UNL     1       7.547   4.626  17.296  0.00  0.00    +0.000 C 
ATOM     11  C   UNL     1       6.978   4.538  16.088  0.00  0.00    +0.000 C 
ENDBRANCH   9  11
ENDBRANCH   1   9
BRANCH   4  12
ATOM     12  O   UNL     1       1.681   5.027  19.638  0.00  0.00    +0.000 OA
BRANCH  12  13
ATOM     13  C   UNL     1       2.216   4.751  20.939  0.00  0.00    +0.000 C 
BRANCH  13  14
ATOM     14  C   UNL     1       1.852   3.346  21.393  0.00  0.00    +0.000 C 
ATOM     15  O   UNL     1       2.553   2.663  22.122  0.00  0.00    +0.000 OA
BRANCH  14  16
ATOM     16  O   UNL     1       0.662   2.919  20.901  0.00  0.00    +0.000 OA
ATOM     17  H   UNL     1       0.289   2.231  21.500  0.00  0.00    +0.000 HD
ENDBRANCH  14  16
ENDBRANCH  13  14
ENDBRANCH  12  13
ENDBRANCH   4  12
TORSDOF 7
ENDMDL
