MODEL 1
REMARK VINA RESULT:      -9.7      0.000      0.000
REMARK  Name = 
REMARK  7 active torsions:
REMARK  status: ('A' for Active; 'I' for Inactive)
REMARK    1  A    between atoms: C_1  and  C_2
REMARK    2  A    between atoms: C_5  and  N_6
REMARK    3  A    between atoms: C_7  and  C_9
REMARK    4  A    between atoms: C_9  and  N_10
REMARK    5  A    between atoms: C_9  and  C_23
REMARK    6  A    between atoms: C_11  and  C_13
REMARK    7  A    between atoms: C_29  and  C_30
REMARK                            x       y       z     vdW  Elec       q    Type
REMARK                         _______ _______ _______ _____ _____    ______ ____
ROOT
ATOM      1  C   UNL     1       3.054   6.573  19.002  0.00  0.00    +0.000 C 
ENDROOT
BRANCH   1   2
ATOM      2  C   UNL     1       2.258   5.302  19.300  0.00  0.00    +0.000 A 
ATOM      3  C   UNL     1       2.020   4.903  20.626  0.00  0.00    +0.000 A 
ATOM      4  C   UNL     1       1.334   3.716  20.908  0.00  0.00    +0.000 A 
ATOM      5  C   UNL     1       0.893   2.898  19.871  0.00  0.00    +0.000 A 
ATOM      6  C   UNL     1       1.122   3.272  18.551  0.00  0.00    +0.000 A 
ATOM      7  C   UNL     1       1.783   4.469  18.268  0.00  0.00    +0.000 A 
ENDBRANCH   1   2
BRANCH   1   9
ATOM      8  N   UNL     1       1.465   8.290  19.870  0.00  0.00    +0.000 N 
ATOM      9  C   UNL     1       2.169   7.834  18.759  0.00  0.00    +0.000 C 
ATOM     10  O   UNL     1       2.170   8.373  17.649  0.00  0.00    +0.000 OA
ATOM     11  H   UNL     1       1.465   7.679  20.671  0.00  0.00    +0.000 HD
BRANCH   8  16
ATOM     12  C   UNL     1      -1.987  12.900  20.264  0.00  0.00    +0.000 C 
ATOM     13  C   UNL     1      -1.047  11.735  20.158  0.00  0.00    +0.000 A 
ATOM     14  C   UNL     1      -0.586  11.295  18.922  0.00  0.00    +0.000 A 
ATOM     15  C   UNL     1       0.254  10.177  18.833  0.00  0.00    +0.000 A 
ATOM     16  C   UNL     1       0.663   9.462  19.969  0.00  0.00    +0.000 A 
ATOM     17  C   UNL     1       0.253   9.946  21.233  0.00  0.00    +0.000 A 
ATOM     18  C   UNL     1       0.662   9.358  22.557  0.00  0.00    +0.000 C 
ATOM     19  C   UNL     1      -0.611  11.065  21.303  0.00  0.00    +0.000 A 
ENDBRANCH   8  16
ENDBRANCH   1   9
BRANCH   1  20
ATOM     20  N   UNL     1       3.866   6.405  17.797  0.00  0.00    +0.000 N 
ATOM     21  C   UNL     1       5.104   5.824  17.748  0.00  0.00    +0.000 C 
ATOM     22  O   UNL     1       5.685   5.399  18.742  0.00  0.00    +0.000 OA
ATOM     23  H   UNL     1       3.617   6.974  16.986  0.00  0.00    +0.000 HD
BRANCH  21  24
ATOM     24  C   UNL     1       5.636   5.626  16.308  0.00  0.00    +0.000 C 
ATOM     25  C   UNL     1       5.342   4.212  15.786  0.00  0.00    +0.000 C 
ATOM     26  C   UNL     1       5.834   4.130  14.362  0.00  0.00    +0.000 A 
ATOM     27  C   UNL     1       5.106   3.513  13.344  0.00  0.00    +0.000 A 
ATOM     28  C   UNL     1       5.608   3.503  12.042  0.00  0.00    +0.000 A 
ATOM     29  C   UNL     1       6.839   4.097  11.759  0.00  0.00    +0.000 A 
ATOM     30  C   UNL     1       7.578   4.699  12.779  0.00  0.00    +0.000 A 
ATOM     31  C   UNL     1       7.077   4.726  14.084  0.00  0.00    +0.000 A 
ATOM     32  C   UNL     1       7.862   5.296  15.239  0.00  0.00    +0.000 C 
ATOM     33  N   UNL     1       7.063   6.076  16.199  0.00  0.00    +0.000 NA
ATOM     34  H   UNL     1       7.047   7.043  15.876  0.00  0.00    +0.000 HD
ENDBRANCH  21  24
ENDBRANCH   1  20
TORSDOF 5
ENDMDL
MODEL 2
REMARK VINA RESULT:      -8.9      0.708      1.279
REMARK  Name = 
REMARK  7 active torsions:
REMARK  status: ('A' for Active; 'I' for Inactive)
REMARK    1  A    between atoms: C_1  and  C_2
REMARK    2  A    between atoms: C_5  and  N_6
REMARK    3  A    between atoms: C_7  and  C_9
REMARK    4  A    between atoms: C_9  and  N_10
REMARK    5  A    between atoms: C_9  and  C_23
REMARK    6  A    between atoms: C_11  and  C_13
REMARK    7  A    between atoms: C_29  and  C_30
REMARK                            x       y       z     vdW  Elec       q    Type
REMARK                         _______ _______ _______ _____ _____    ______ ____
ROOT
ATOM      1  C   UNL     1       2.888   6.537  18.887  0.00  0.00    +0.000 C 
ENDROOT
BRANCH   1   2
ATOM      2  C   UNL     1       2.179   5.231  19.248  0.00  0.00    +0.000 A 
ATOM      3  C   UNL     1       1.916   4.909  20.590  0.00  0.00    +0.000 A 
ATOM      4  C   UNL     1       1.310   3.695  20.933  0.00  0.00    +0.000 A 
ATOM      5  C   UNL     1       0.975   2.774  19.943  0.00  0.00    +0.000 A 
ATOM      6  C   UNL     1       1.230   3.071  18.609  0.00  0.00    +0.000 A 
ATOM      7  C   UNL     1       1.811   4.294  18.263  0.00  0.00    +0.000 A 
ENDBRANCH   1   2
BRANCH   1   9
ATOM      8  N   UNL     1       1.667   8.569  19.666  0.00  0.00    +0.000 N 
ATOM      9  C   UNL     1       1.922   7.724  18.589  0.00  0.00    +0.000 C 
ATOM     10  O   UNL     1       1.481   7.877  17.447  0.00  0.00    +0.000 OA
ATOM     11  H   UNL     1       1.996   8.248  20.563  0.00  0.00    +0.000 HD
BRANCH   8  16
ATOM     12  C   UNL     1      -1.270  13.534  19.851  0.00  0.00    +0.000 C 
ATOM     13  C   UNL     1      -0.541  12.226  19.764  0.00  0.00    +0.000 A 
ATOM     14  C   UNL     1      -1.006  11.099  20.432  0.00  0.00    +0.000 A 
ATOM     15  C   UNL     1      -0.290   9.895  20.380  0.00  0.00    +0.000 A 
ATOM     16  C   UNL     1       0.910   9.774  19.664  0.00  0.00    +0.000 A 
ATOM     17  C   UNL     1       1.352  10.897  18.927  0.00  0.00    +0.000 A 
ATOM     18  C   UNL     1       2.567  10.925  18.039  0.00  0.00    +0.000 C 
ATOM     19  C   UNL     1       0.627  12.111  19.006  0.00  0.00    +0.000 A 
ENDBRANCH   8  16
ENDBRANCH   1   9
BRANCH   1  20
ATOM     20  N   UNL     1       3.708   6.366  17.687  0.00  0.00    +0.000 N 
ATOM     21  C   UNL     1       5.033   6.024  17.673  0.00  0.00    +0.000 C 
ATOM     22  O   UNL     1       5.691   5.849  18.694  0.00  0.00    +0.000 OA
ATOM     23  H   UNL     1       3.350   6.768  16.819  0.00  0.00    +0.000 HD
BRANCH  21  24
ATOM     24  C   UNL     1       5.582   5.741  16.253  0.00  0.00    +0.000 C 
ATOM     25  C   UNL     1       5.221   4.326  15.779  0.00  0.00    +0.000 C 
ATOM     26  C   UNL     1       5.735   4.162  14.371  0.00  0.00    +0.000 A 
ATOM     27  C   UNL     1       4.994   3.546  13.361  0.00  0.00    +0.000 A 
ATOM     28  C   UNL     1       5.521   3.458  12.071  0.00  0.00    +0.000 A 
ATOM     29  C   UNL     1       6.788   3.972  11.793  0.00  0.00    +0.000 A 
ATOM     30  C   UNL     1       7.538   4.573  12.806  0.00  0.00    +0.000 A 
ATOM     31  C   UNL     1       7.014   4.678  14.097  0.00  0.00    +0.000 A 
ATOM     32  C   UNL     1       7.806   5.250  15.247  0.00  0.00    +0.000 C 
ATOM     33  N   UNL     1       7.033   6.109  16.158  0.00  0.00    +0.000 NA
ATOM     34  H   UNL     1       7.077   7.062  15.799  0.00  0.00    +0.000 HD
ENDBRANCH  21  24
ENDBRANCH   1  20
TORSDOF 5
ENDMDL
MODEL 3
REMARK VINA RESULT:      -8.9      3.291      6.215
REMARK  Name = 
REMARK  7 active torsions:
REMARK  status: ('A' for Active; 'I' for Inactive)
REMARK    1  A    between atoms: C_1  and  C_2
REMARK    2  A    between atoms: C_5  and  N_6
REMARK    3  A    between atoms: C_7  and  C_9
REMARK    4  A    between atoms: C_9  and  N_10
REMARK    5  A    between atoms: C_9  and  C_23
REMARK    6  A    between atoms: C_11  and  C_13
REMARK    7  A    between atoms: C_29  and  C_30
REMARK                            x       y       z     vdW  Elec       q    Type
REMARK                         _______ _______ _______ _____ _____    ______ ____
ROOT
ATOM      1  C   UNL     1      -0.339  10.371  20.216  0.00  0.00    +0.000 C 
ENDROOT
BRANCH   1   2
ATOM      2  C   UNL     1      -1.257  10.613  19.017  0.00  0.00    +0.000 A 
ATOM      3  C   UNL     1      -2.314  11.536  19.102  0.00  0.00    +0.000 A 
ATOM      4  C   UNL     1      -3.188  11.729  18.026  0.00  0.00    +0.000 A 
ATOM      5  C   UNL     1      -3.035  10.990  16.856  0.00  0.00    +0.000 A 
ATOM      6  C   UNL     1      -1.998  10.069  16.752  0.00  0.00    +0.000 A 
ATOM      7  C   UNL     1      -1.108   9.894  17.816  0.00  0.00    +0.000 A 
ENDBRANCH   1   2
BRANCH   1   9
ATOM      8  N   UNL     1       1.102  12.355  19.752  0.00  0.00    +0.000 N 
ATOM      9  C   UNL     1       0.395  11.650  20.723  0.00  0.00    +0.000 C 
ATOM     10  O   UNL     1       0.285  11.987  21.905  0.00  0.00    +0.000 OA
ATOM     11  H   UNL     1       1.204  11.894  18.862  0.00  0.00    +0.000 HD
BRANCH   8  16
ATOM     12  C   UNL     1       3.957  17.357  20.141  0.00  0.00    +0.000 C 
ATOM     13  C   UNL     1       3.197  16.064  20.092  0.00  0.00    +0.000 A 
ATOM     14  C   UNL     1       3.729  14.897  20.629  0.00  0.00    +0.000 A 
ATOM     15  C   UNL     1       3.029  13.686  20.534  0.00  0.00    +0.000 A 
ATOM     16  C   UNL     1       1.780  13.598  19.903  0.00  0.00    +0.000 A 
ATOM     17  C   UNL     1       1.203  14.793  19.415  0.00  0.00    +0.000 A 
ATOM     18  C   UNL     1      -0.160  14.901  18.785  0.00  0.00    +0.000 C 
ATOM     19  C   UNL     1       1.932  16.004  19.502  0.00  0.00    +0.000 A 
ENDBRANCH   8  16
ENDBRANCH   1   9
BRANCH   1  20
ATOM     20  N   UNL     1       0.707   9.405  19.880  0.00  0.00    +0.000 N 
ATOM     21  C   UNL     1       1.273   8.513  20.750  0.00  0.00    +0.000 C 
ATOM     22  O   UNL     1       0.971   8.452  21.938  0.00  0.00    +0.000 OA
ATOM     23  H   UNL     1       1.230   9.567  19.018  0.00  0.00    +0.000 HD
BRANCH  21  24
ATOM     24  C   UNL     1       2.221   7.499  20.064  0.00  0.00    +0.000 C 
ATOM     25  C   UNL     1       2.274   7.713  18.544  0.00  0.00    +0.000 C 
ATOM     26  C   UNL     1       3.265   6.732  17.970  0.00  0.00    +0.000 A 
ATOM     27  C   UNL     1       4.192   7.080  16.987  0.00  0.00    +0.000 A 
ATOM     28  C   UNL     1       5.102   6.127  16.525  0.00  0.00    +0.000 A 
ATOM     29  C   UNL     1       5.078   4.828  17.034  0.00  0.00    +0.000 A 
ATOM     30  C   UNL     1       4.140   4.473  18.006  0.00  0.00    +0.000 A 
ATOM     31  C   UNL     1       3.234   5.424  18.484  0.00  0.00    +0.000 A 
ATOM     32  C   UNL     1       2.151   5.080  19.477  0.00  0.00    +0.000 C 
ATOM     33  N   UNL     1       1.923   6.100  20.514  0.00  0.00    +0.000 NA
ATOM     34  H   UNL     1       2.549   5.896  21.293  0.00  0.00    +0.000 HD
ENDBRANCH  21  24
ENDBRANCH   1  20
TORSDOF 5
ENDMDL
MODEL 4
REMARK VINA RESULT:      -8.7      3.164      5.971
REMARK  Name = 
REMARK  7 active torsions:
REMARK  status: ('A' for Active; 'I' for Inactive)
REMARK    1  A    between atoms: C_1  and  C_2
REMARK    2  A    between atoms: C_5  and  N_6
REMARK    3  A    between atoms: C_7  and  C_9
REMARK    4  A    between atoms: C_9  and  N_10
REMARK    5  A    between atoms: C_9  and  C_23
REMARK    6  A    between atoms: C_11  and  C_13
REMARK    7  A    between atoms: C_29  and  C_30
REMARK                            x       y       z     vdW  Elec       q    Type
REMARK                         _______ _______ _______ _____ _____    ______ ____
ROOT
ATOM      1  C   UNL     1      -0.138  10.162  20.035  0.00  0.00    +0.000 C 
ENDROOT
BRANCH   1   2
ATOM      2  C   UNL     1      -1.150  10.406  18.915  0.00  0.00    +0.000 A 
ATOM      3  C   UNL     1      -1.016   9.754  17.677  0.00  0.00    +0.000 A 
ATOM      4  C   UNL     1      -1.910  10.007  16.630  0.00  0.00    +0.000 A 
ATOM      5  C   UNL     1      -2.939  10.931  16.795  0.00  0.00    +0.000 A 
ATOM      6  C   UNL     1      -3.087  11.590  18.011  0.00  0.00    +0.000 A 
ATOM      7  C   UNL     1      -2.212  11.319  19.065  0.00  0.00    +0.000 A 
ENDBRANCH   1   2
BRANCH   1   9
ATOM      8  N   UNL     1       1.001  12.302  19.442  0.00  0.00    +0.000 N 
ATOM      9  C   UNL     1       0.645  11.438  20.474  0.00  0.00    +0.000 C 
ATOM     10  O   UNL     1       0.863  11.635  21.672  0.00  0.00    +0.000 OA
ATOM     11  H   UNL     1       0.866  11.949  18.508  0.00  0.00    +0.000 HD
BRANCH   8  16
ATOM     12  C   UNL     1       3.538  17.483  19.646  0.00  0.00    +0.000 C 
ATOM     13  C   UNL     1       2.886  16.131  19.647  0.00  0.00    +0.000 A 
ATOM     14  C   UNL     1       3.646  14.967  19.627  0.00  0.00    +0.000 A 
ATOM     15  C   UNL     1       3.024  13.712  19.581  0.00  0.00    +0.000 A 
ATOM     16  C   UNL     1       1.628  13.575  19.553  0.00  0.00    +0.000 A 
ATOM     17  C   UNL     1       0.850  14.752  19.643  0.00  0.00    +0.000 A 
ATOM     18  C   UNL     1      -0.654  14.791  19.711  0.00  0.00    +0.000 C 
ATOM     19  C   UNL     1       1.494  16.012  19.669  0.00  0.00    +0.000 A 
ENDBRANCH   8  16
ENDBRANCH   1   9
BRANCH   1  20
ATOM     20  N   UNL     1       0.871   9.188  19.618  0.00  0.00    +0.000 N 
ATOM     21  C   UNL     1       1.488   8.283  20.439  0.00  0.00    +0.000 C 
ATOM     22  O   UNL     1       1.272   8.216  21.645  0.00  0.00    +0.000 OA
ATOM     23  H   UNL     1       1.333   9.351  18.722  0.00  0.00    +0.000 HD
BRANCH  21  24
ATOM     24  C   UNL     1       2.374   7.265  19.680  0.00  0.00    +0.000 C 
ATOM     25  C   UNL     1       2.544   7.653  18.204  0.00  0.00    +0.000 C 
ATOM     26  C   UNL     1       3.468   6.649  17.562  0.00  0.00    +0.000 A 
ATOM     27  C   UNL     1       4.486   7.013  16.679  0.00  0.00    +0.000 A 
ATOM     28  C   UNL     1       5.325   6.032  16.148  0.00  0.00    +0.000 A 
ATOM     29  C   UNL     1       5.141   4.691  16.487  0.00  0.00    +0.000 A 
ATOM     30  C   UNL     1       4.112   4.322  17.357  0.00  0.00    +0.000 A 
ATOM     31  C   UNL     1       3.275   5.299  17.905  0.00  0.00    +0.000 A 
ATOM     32  C   UNL     1       2.104   4.954  18.790  0.00  0.00    +0.000 C 
ATOM     33  N   UNL     1       1.911   5.861  19.934  0.00  0.00    +0.000 NA
ATOM     34  H   UNL     1       2.463   5.500  20.713  0.00  0.00    +0.000 HD
ENDBRANCH  21  24
ENDBRANCH   1  20
TORSDOF 5
ENDMDL
MODEL 5
REMARK VINA RESULT:      -8.6      3.688      6.654
REMARK  Name = 
REMARK  7 active torsions:
REMARK  status: ('A' for Active; 'I' for Inactive)
REMARK    1  A    between atoms: C_1  and  C_2
REMARK    2  A    between atoms: C_5  and  N_6
REMARK    3  A    between atoms: C_7  and  C_9
REMARK    4  A    between atoms: C_9  and  N_10
REMARK    5  A    between atoms: C_9  and  C_23
REMARK    6  A    between atoms: C_11  and  C_13
REMARK    7  A    between atoms: C_29  and  C_30
REMARK                            x       y       z     vdW  Elec       q    Type
REMARK                         _______ _______ _______ _____ _____    ______ ____
ROOT
ATOM      1  C   UNL     1      -0.296  11.306  19.540  0.00  0.00    +0.000 C 
ENDROOT
BRANCH   1   2
ATOM      2  C   UNL     1      -1.435  10.976  18.576  0.00  0.00    +0.000 A 
ATOM      3  C   UNL     1      -1.233  10.082  17.511  0.00  0.00    +0.000 A 
ATOM      4  C   UNL     1      -2.257   9.810  16.595  0.00  0.00    +0.000 A 
ATOM      5  C   UNL     1      -3.491  10.443  16.716  0.00  0.00    +0.000 A 
ATOM      6  C   UNL     1      -3.712  11.334  17.761  0.00  0.00    +0.000 A 
ATOM      7  C   UNL     1      -2.700  11.586  18.690  0.00  0.00    +0.000 A 
ENDBRANCH   1   2
BRANCH   1   9
ATOM      8  N   UNL     1       1.742  12.731  19.750  0.00  0.00    +0.000 N 
ATOM      9  C   UNL     1       0.473  12.617  19.190  0.00  0.00    +0.000 C 
ATOM     10  O   UNL     1      -0.043  13.440  18.428  0.00  0.00    +0.000 OA
ATOM     11  H   UNL     1       1.978  12.042  20.447  0.00  0.00    +0.000 HD
BRANCH   8  16
ATOM     12  C   UNL     1       5.450  17.040  18.749  0.00  0.00    +0.000 C 
ATOM     13  C   UNL     1       4.528  15.889  19.027  0.00  0.00    +0.000 A 
ATOM     14  C   UNL     1       4.396  14.840  18.125  0.00  0.00    +0.000 A 
ATOM     15  C   UNL     1       3.496  13.795  18.375  0.00  0.00    +0.000 A 
ATOM     16  C   UNL     1       2.700  13.760  19.529  0.00  0.00    +0.000 A 
ATOM     17  C   UNL     1       2.880  14.788  20.483  0.00  0.00    +0.000 A 
ATOM     18  C   UNL     1       2.176  14.868  21.812  0.00  0.00    +0.000 C 
ATOM     19  C   UNL     1       3.779  15.847  20.205  0.00  0.00    +0.000 A 
ENDBRANCH   8  16
ENDBRANCH   1   9
BRANCH   1  20
ATOM     20  N   UNL     1       0.702  10.237  19.548  0.00  0.00    +0.000 N 
ATOM     21  C   UNL     1       0.825   9.272  20.512  0.00  0.00    +0.000 C 
ATOM     22  O   UNL     1       0.109   9.224  21.507  0.00  0.00    +0.000 OA
ATOM     23  H   UNL     1       1.515  10.355  18.941  0.00  0.00    +0.000 HD
BRANCH  21  24
ATOM     24  C   UNL     1       1.855   8.172  20.156  0.00  0.00    +0.000 C 
ATOM     25  C   UNL     1       1.965   7.971  18.637  0.00  0.00    +0.000 C 
ATOM     26  C   UNL     1       3.031   6.935  18.381  0.00  0.00    +0.000 A 
ATOM     27  C   UNL     1       3.982   7.062  17.368  0.00  0.00    +0.000 A 
ATOM     28  C   UNL     1       4.960   6.078  17.209  0.00  0.00    +0.000 A 
ATOM     29  C   UNL     1       4.981   4.966  18.052  0.00  0.00    +0.000 A 
ATOM     30  C   UNL     1       4.020   4.829  19.056  0.00  0.00    +0.000 A 
ATOM     31  C   UNL     1       3.045   5.815  19.231  0.00  0.00    +0.000 A 
ATOM     32  C   UNL     1       1.938   5.685  20.248  0.00  0.00    +0.000 C 
ATOM     33  N   UNL     1       1.610   6.931  20.960  0.00  0.00    +0.000 NA
ATOM     34  H   UNL     1       2.210   6.985  21.784  0.00  0.00    +0.000 HD
ENDBRANCH  21  24
ENDBRANCH   1  20
TORSDOF 5
ENDMDL
MODEL 6
REMARK VINA RESULT:      -8.6      3.428      6.574
REMARK  Name = 
REMARK  7 active torsions:
REMARK  status: ('A' for Active; 'I' for Inactive)
REMARK    1  A    between atoms: C_1  and  C_2
REMARK    2  A    between atoms: C_5  and  N_6
REMARK    3  A    between atoms: C_7  and  C_9
REMARK    4  A    between atoms: C_9  and  N_10
REMARK    5  A    between atoms: C_9  and  C_23
REMARK    6  A    between atoms: C_11  and  C_13
REMARK    7  A    between atoms: C_29  and  C_30
REMARK                            x       y       z     vdW  Elec       q    Type
REMARK                         _______ _______ _______ _____ _____    ______ ____
ROOT
ATOM      1  C   UNL     1      -1.208  10.702  19.582  0.00  0.00    +0.000 C 
ENDROOT
BRANCH   1   2
ATOM      2  C   UNL     1      -2.005  10.671  18.279  0.00  0.00    +0.000 A 
ATOM      3  C   UNL     1      -3.190  11.416  18.148  0.00  0.00    +0.000 A 
ATOM      4  C   UNL     1      -3.952  11.357  16.976  0.00  0.00    +0.000 A 
ATOM      5  C   UNL     1      -3.555  10.538  15.922  0.00  0.00    +0.000 A 
ATOM      6  C   UNL     1      -2.387   9.789  16.031  0.00  0.00    +0.000 A 
ATOM      7  C   UNL     1      -1.612   9.867  17.191  0.00  0.00    +0.000 A 
ENDBRANCH   1   2
BRANCH   1   9
ATOM      8  N   UNL     1      -0.165  12.884  18.969  0.00  0.00    +0.000 N 
ATOM      9  C   UNL     1      -0.718  12.124  19.995  0.00  0.00    +0.000 C 
ATOM     10  O   UNL     1      -0.877  12.509  21.157  0.00  0.00    +0.000 OA
ATOM     11  H   UNL     1       0.013  12.394  18.106  0.00  0.00    +0.000 HD
BRANCH   8  16
ATOM     12  C   UNL     1       1.657  18.340  19.452  0.00  0.00    +0.000 C 
ATOM     13  C   UNL     1       1.169  16.932  19.275  0.00  0.00    +0.000 A 
ATOM     14  C   UNL     1      -0.178  16.617  19.410  0.00  0.00    +0.000 A 
ATOM     15  C   UNL     1      -0.615  15.291  19.289  0.00  0.00    +0.000 A 
ATOM     16  C   UNL     1       0.273  14.238  19.029  0.00  0.00    +0.000 A 
ATOM     17  C   UNL     1       1.634  14.560  18.822  0.00  0.00    +0.000 A 
ATOM     18  C   UNL     1       2.710  13.574  18.453  0.00  0.00    +0.000 C 
ATOM     19  C   UNL     1       2.061  15.902  18.968  0.00  0.00    +0.000 A 
ENDBRANCH   8  16
ENDBRANCH   1   9
BRANCH   1  20
ATOM     20  N   UNL     1      -0.008   9.872  19.475  0.00  0.00    +0.000 N 
ATOM     21  C   UNL     1       0.627   9.255  20.519  0.00  0.00    +0.000 C 
ATOM     22  O   UNL     1       0.260   9.363  21.685  0.00  0.00    +0.000 OA
ATOM     23  H   UNL     1       0.541   9.957  18.618  0.00  0.00    +0.000 HD
BRANCH  21  24
ATOM     24  C   UNL     1       1.761   8.299  20.074  0.00  0.00    +0.000 C 
ATOM     25  C   UNL     1       1.801   8.142  18.547  0.00  0.00    +0.000 C 
ATOM     26  C   UNL     1       2.968   7.253  18.201  0.00  0.00    +0.000 A 
ATOM     27  C   UNL     1       3.832   7.516  17.137  0.00  0.00    +0.000 A 
ATOM     28  C   UNL     1       4.912   6.666  16.895  0.00  0.00    +0.000 A 
ATOM     29  C   UNL     1       5.123   5.549  17.705  0.00  0.00    +0.000 A 
ATOM     30  C   UNL     1       4.250   5.274  18.760  0.00  0.00    +0.000 A 
ATOM     31  C   UNL     1       3.173   6.127  19.018  0.00  0.00    +0.000 A 
ATOM     32  C   UNL     1       2.156   5.840  20.095  0.00  0.00    +0.000 C 
ATOM     33  N   UNL     1       1.721   7.022  20.859  0.00  0.00    +0.000 NA
ATOM     34  H   UNL     1       2.360   7.135  21.646  0.00  0.00    +0.000 HD
ENDBRANCH  21  24
ENDBRANCH   1  20
TORSDOF 5
ENDMDL
MODEL 7
REMARK VINA RESULT:      -8.5      3.126      6.193
REMARK  Name = 
REMARK  7 active torsions:
REMARK  status: ('A' for Active; 'I' for Inactive)
REMARK    1  A    between atoms: C_1  and  C_2
REMARK    2  A    between atoms: C_5  and  N_6
REMARK    3  A    between atoms: C_7  and  C_9
REMARK    4  A    between atoms: C_9  and  N_10
REMARK    5  A    between atoms: C_9  and  C_23
REMARK    6  A    between atoms: C_11  and  C_13
REMARK    7  A    between atoms: C_29  and  C_30
REMARK                            x       y       z     vdW  Elec       q    Type
REMARK                         _______ _______ _______ _____ _____    ______ ____
ROOT
ATOM      1  C   UNL     1      -0.391  10.442  20.011  0.00  0.00    +0.000 C 
ENDROOT
BRANCH   1   2
ATOM      2  C   UNL     1      -1.387  10.522  18.853  0.00  0.00    +0.000 A 
ATOM      3  C   UNL     1      -1.139   9.840  17.650  0.00  0.00    +0.000 A 
ATOM      4  C   UNL     1      -2.021   9.946  16.568  0.00  0.00    +0.000 A 
ATOM      5  C   UNL     1      -3.153  10.750  16.663  0.00  0.00    +0.000 A 
ATOM      6  C   UNL     1      -3.416  11.437  17.844  0.00  0.00    +0.000 A 
ATOM      7  C   UNL     1      -2.551  11.311  18.933  0.00  0.00    +0.000 A 
ENDBRANCH   1   2
BRANCH   1   9
ATOM      8  N   UNL     1       0.140  12.798  19.385  0.00  0.00    +0.000 N 
ATOM      9  C   UNL     1       0.325  11.791  20.328  0.00  0.00    +0.000 C 
ATOM     10  O   UNL     1       0.960  11.910  21.379  0.00  0.00    +0.000 OA
ATOM     11  H   UNL     1      -0.297  12.517  18.522  0.00  0.00    +0.000 HD
BRANCH   8  16
ATOM     12  C   UNL     1       2.050  18.221  19.900  0.00  0.00    +0.000 C 
ATOM     13  C   UNL     1       1.529  16.826  19.719  0.00  0.00    +0.000 A 
ATOM     14  C   UNL     1       0.231  16.490  20.087  0.00  0.00    +0.000 A 
ATOM     15  C   UNL     1      -0.228  15.173  19.957  0.00  0.00    +0.000 A 
ATOM     16  C   UNL     1       0.589  14.148  19.457  0.00  0.00    +0.000 A 
ATOM     17  C   UNL     1       1.887  14.496  19.017  0.00  0.00    +0.000 A 
ATOM     18  C   UNL     1       2.867  13.548  18.380  0.00  0.00    +0.000 C 
ATOM     19  C   UNL     1       2.341  15.828  19.174  0.00  0.00    +0.000 A 
ENDBRANCH   8  16
ENDBRANCH   1   9
BRANCH   1  20
ATOM     20  N   UNL     1       0.668   9.476  19.718  0.00  0.00    +0.000 N 
ATOM     21  C   UNL     1       1.220   8.606  20.618  0.00  0.00    +0.000 C 
ATOM     22  O   UNL     1       0.893   8.566  21.800  0.00  0.00    +0.000 OA
ATOM     23  H   UNL     1       1.208   9.625  18.864  0.00  0.00    +0.000 HD
BRANCH  21  24
ATOM     24  C   UNL     1       2.189   7.585  19.974  0.00  0.00    +0.000 C 
ATOM     25  C   UNL     1       2.241   7.739  18.447  0.00  0.00    +0.000 C 
ATOM     26  C   UNL     1       3.251   6.756  17.913  0.00  0.00    +0.000 A 
ATOM     27  C   UNL     1       4.174   7.083  16.917  0.00  0.00    +0.000 A 
ATOM     28  C   UNL     1       5.102   6.131  16.494  0.00  0.00    +0.000 A 
ATOM     29  C   UNL     1       5.104   4.853  17.054  0.00  0.00    +0.000 A 
ATOM     30  C   UNL     1       4.171   4.518  18.038  0.00  0.00    +0.000 A 
ATOM     31  C   UNL     1       3.245   5.469  18.478  0.00  0.00    +0.000 A 
ATOM     32  C   UNL     1       2.169   5.143  19.483  0.00  0.00    +0.000 C 
ATOM     33  N   UNL     1       1.918   6.199  20.478  0.00  0.00    +0.000 NA
ATOM     34  H   UNL     1       2.547   6.039  21.266  0.00  0.00    +0.000 HD
ENDBRANCH  21  24
ENDBRANCH   1  20
TORSDOF 5
ENDMDL
MODEL 8
REMARK VINA RESULT:      -8.5      1.021      1.511
REMARK  Name = 
REMARK  7 active torsions:
REMARK  status: ('A' for Active; 'I' for Inactive)
REMARK    1  A    between atoms: C_1  and  C_2
REMARK    2  A    between atoms: C_5  and  N_6
REMARK    3  A    between atoms: C_7  and  C_9
REMARK    4  A    between atoms: C_9  and  N_10
REMARK    5  A    between atoms: C_9  and  C_23
REMARK    6  A    between atoms: C_11  and  C_13
REMARK    7  A    between atoms: C_29  and  C_30
REMARK                            x       y       z     vdW  Elec       q    Type
REMARK                         _______ _______ _______ _____ _____    ______ ____
ROOT
ATOM      1  C   UNL     1       3.477   6.028  19.378  0.00  0.00    +0.000 C 
ENDROOT
BRANCH   1   2
ATOM      2  C   UNL     1       2.580   4.899  19.887  0.00  0.00    +0.000 A 
ATOM      3  C   UNL     1       2.651   4.479  21.226  0.00  0.00    +0.000 A 
ATOM      4  C   UNL     1       1.867   3.415  21.689  0.00  0.00    +0.000 A 
ATOM      5  C   UNL     1       1.016   2.740  20.817  0.00  0.00    +0.000 A 
ATOM      6  C   UNL     1       0.934   3.137  19.487  0.00  0.00    +0.000 A 
ATOM      7  C   UNL     1       1.695   4.216  19.030  0.00  0.00    +0.000 A 
ENDBRANCH   1   2
BRANCH   1   9
ATOM      8  N   UNL     1       1.828   7.804  19.973  0.00  0.00    +0.000 N 
ATOM      9  C   UNL     1       2.708   7.332  19.003  0.00  0.00    +0.000 C 
ATOM     10  O   UNL     1       2.939   7.885  17.924  0.00  0.00    +0.000 OA
ATOM     11  H   UNL     1       1.653   7.182  20.747  0.00  0.00    +0.000 HD
BRANCH   8  16
ATOM     12  C   UNL     1      -1.442  12.559  19.870  0.00  0.00    +0.000 C 
ATOM     13  C   UNL     1      -0.548  11.355  19.890  0.00  0.00    +0.000 A 
ATOM     14  C   UNL     1      -0.085  10.784  18.711  0.00  0.00    +0.000 A 
ATOM     15  C   UNL     1       0.711   9.631  18.742  0.00  0.00    +0.000 A 
ATOM     16  C   UNL     1       1.072   9.010  19.947  0.00  0.00    +0.000 A 
ATOM     17  C   UNL     1       0.662   9.625  21.152  0.00  0.00    +0.000 A 
ATOM     18  C   UNL     1       1.025   9.148  22.533  0.00  0.00    +0.000 C 
ATOM     19  C   UNL     1      -0.158  10.778  21.102  0.00  0.00    +0.000 A 
ENDBRANCH   8  16
ENDBRANCH   1   9
BRANCH   1  20
ATOM     20  N   UNL     1       4.194   5.615  18.172  0.00  0.00    +0.000 N 
ATOM     21  C   UNL     1       5.365   4.906  18.148  0.00  0.00    +0.000 C 
ATOM     22  O   UNL     1       5.961   4.561  19.163  0.00  0.00    +0.000 OA
ATOM     23  H   UNL     1       3.954   6.093  17.302  0.00  0.00    +0.000 HD
BRANCH  21  24
ATOM     24  C   UNL     1       5.788   4.462  16.726  0.00  0.00    +0.000 C 
ATOM     25  C   UNL     1       6.096   5.666  15.825  0.00  0.00    +0.000 C 
ATOM     26  C   UNL     1       6.559   5.142  14.489  0.00  0.00    +0.000 A 
ATOM     27  C   UNL     1       7.639   5.689  13.794  0.00  0.00    +0.000 A 
ATOM     28  C   UNL     1       8.033   5.131  12.577  0.00  0.00    +0.000 A 
ATOM     29  C   UNL     1       7.344   4.039  12.049  0.00  0.00    +0.000 A 
ATOM     30  C   UNL     1       6.252   3.500  12.734  0.00  0.00    +0.000 A 
ATOM     31  C   UNL     1       5.859   4.044  13.960  0.00  0.00    +0.000 A 
ATOM     32  C   UNL     1       4.644   3.553  14.709  0.00  0.00    +0.000 C 
ATOM     33  N   UNL     1       4.817   3.464  16.168  0.00  0.00    +0.000 NA
ATOM     34  H   UNL     1       5.186   2.537  16.381  0.00  0.00    +0.000 HD
ENDBRANCH  21  24
ENDBRANCH   1  20
TORSDOF 5
ENDMDL
MODEL 9
REMARK VINA RESULT:      -8.4      3.681      6.635
REMARK  Name = 
REMARK  7 active torsions:
REMARK  status: ('A' for Active; 'I' for Inactive)
REMARK    1  A    between atoms: C_1  and  C_2
REMARK    2  A    between atoms: C_5  and  N_6
REMARK    3  A    between atoms: C_7  and  C_9
REMARK    4  A    between atoms: C_9  and  N_10
REMARK    5  A    between atoms: C_9  and  C_23
REMARK    6  A    between atoms: C_11  and  C_13
REMARK    7  A    between atoms: C_29  and  C_30
REMARK                            x       y       z     vdW  Elec       q    Type
REMARK                         _______ _______ _______ _____ _____    ______ ____
ROOT
ATOM      1  C   UNL     1       0.661  10.452  18.199  0.00  0.00    +0.000 C 
ENDROOT
BRANCH   1   2
ATOM      2  C   UNL     1       1.466  11.575  18.853  0.00  0.00    +0.000 A 
ATOM      3  C   UNL     1       1.257  11.912  20.201  0.00  0.00    +0.000 A 
ATOM      4  C   UNL     1       1.955  12.969  20.796  0.00  0.00    +0.000 A 
ATOM      5  C   UNL     1       2.859  13.720  20.048  0.00  0.00    +0.000 A 
ATOM      6  C   UNL     1       3.079  13.406  18.711  0.00  0.00    +0.000 A 
ATOM      7  C   UNL     1       2.402  12.334  18.124  0.00  0.00    +0.000 A 
ENDBRANCH   1   2
BRANCH   1   9
ATOM      8  N   UNL     1      -1.600  11.457  17.869  0.00  0.00    +0.000 N 
ATOM      9  C   UNL     1      -0.862  10.483  18.536  0.00  0.00    +0.000 C 
ATOM     10  O   UNL     1      -1.329   9.648  19.314  0.00  0.00    +0.000 OA
ATOM     11  H   UNL     1      -1.063  12.144  17.362  0.00  0.00    +0.000 HD
BRANCH   8  16
ATOM     12  C   UNL     1      -7.278  12.492  17.934  0.00  0.00    +0.000 C 
ATOM     13  C   UNL     1      -5.812  12.174  17.940  0.00  0.00    +0.000 A 
ATOM     14  C   UNL     1      -5.041  12.359  19.082  0.00  0.00    +0.000 A 
ATOM     15  C   UNL     1      -3.664  12.103  19.061  0.00  0.00    +0.000 A 
ATOM     16  C   UNL     1      -3.009  11.655  17.904  0.00  0.00    +0.000 A 
ATOM     17  C   UNL     1      -3.798  11.400  16.759  0.00  0.00    +0.000 A 
ATOM     18  C   UNL     1      -3.282  10.839  15.461  0.00  0.00    +0.000 C 
ATOM     19  C   UNL     1      -5.185  11.683  16.792  0.00  0.00    +0.000 A 
ENDBRANCH   8  16
ENDBRANCH   1   9
BRANCH   1  20
ATOM     20  N   UNL     1       1.149   9.143  18.633  0.00  0.00    +0.000 N 
ATOM     21  C   UNL     1       2.169   8.442  18.048  0.00  0.00    +0.000 C 
ATOM     22  O   UNL     1       2.774   8.840  17.058  0.00  0.00    +0.000 OA
ATOM     23  H   UNL     1       0.538   8.599  19.244  0.00  0.00    +0.000 HD
BRANCH  21  24
ATOM     24  C   UNL     1       2.578   7.175  18.838  0.00  0.00    +0.000 C 
ATOM     25  C   UNL     1       2.318   5.896  18.029  0.00  0.00    +0.000 C 
ATOM     26  C   UNL     1       2.804   4.723  18.843  0.00  0.00    +0.000 A 
ATOM     27  C   UNL     1       3.522   3.662  18.289  0.00  0.00    +0.000 A 
ATOM     28  C   UNL     1       3.968   2.625  19.110  0.00  0.00    +0.000 A 
ATOM     29  C   UNL     1       3.688   2.641  20.477  0.00  0.00    +0.000 A 
ATOM     30  C   UNL     1       2.955   3.693  21.031  0.00  0.00    +0.000 A 
ATOM     31  C   UNL     1       2.515   4.743  20.219  0.00  0.00    +0.000 A 
ATOM     32  C   UNL     1       1.657   5.866  20.746  0.00  0.00    +0.000 C 
ATOM     33  N   UNL     1       2.001   7.198  20.222  0.00  0.00    +0.000 NA
ATOM     34  H   UNL     1       2.710   7.600  20.835  0.00  0.00    +0.000 HD
ENDBRANCH  21  24
ENDBRANCH   1  20
TORSDOF 5
ENDMDL
