MODEL 1
REMARK VINA RESULT:      -7.0      0.000      0.000
REMARK  Name = 
REMARK  7 active torsions:
REMARK  status: ('A' for Active; 'I' for Inactive)
REMARK    1  A    between atoms: C_1  and  C_2
REMARK    2  A    between atoms: C_2  and  C_3
REMARK    3  A    between atoms: C_2  and  C_4
REMARK    4  A    between atoms: C_10  and  C_11
REMARK    5  A    between atoms: C_14  and  C_15
REMARK    6  A    between atoms: C_19  and  C_20
REMARK    7  A    between atoms: C_30  and  O_31
REMARK                            x       y       z     vdW  Elec       q    Type
REMARK                         _______ _______ _______ _____ _____    ______ ____
ROOT
ATOM      1  C   UNL     1      -0.575  15.201  23.055  0.00  0.00    +0.000 A 
ATOM      2  N   UNL     1       0.150  16.164  22.344  0.00  0.00    +0.000 NA
ATOM      3  C   UNL     1       0.633  15.856  21.072  0.00  0.00    +0.000 A 
ATOM      4  C   UNL     1       0.343  14.579  20.534  0.00  0.00    +0.000 A 
ATOM      5  C   UNL     1      -0.248  13.595  21.314  0.00  0.00    +0.000 A 
ATOM      6  C   UNL     1      -0.742  13.912  22.553  0.00  0.00    +0.000 A 
ATOM      7  C   UNL     1      -1.471  12.717  23.075  0.00  0.00    +0.000 C 
ATOM      8  O   UNL     1      -1.141  11.627  22.174  0.00  0.00    +0.000 OA
ATOM      9  C   UNL     1      -0.395  12.118  21.029  0.00  0.00    +0.000 C 
ATOM     10  C   UNL     1      -1.193  11.769  19.759  0.00  0.00    +0.000 C 
ATOM     11  C   UNL     1      -1.114  10.302  19.401  0.00  0.00    +0.000 C 
ATOM     12  O   UNL     1       0.254   9.905  19.310  0.00  0.00    +0.000 OA
ATOM     13  C   UNL     1       0.906   9.979  20.573  0.00  0.00    +0.000 C 
ATOM     14  C   UNL     1       0.981  11.414  21.072  0.00  0.00    +0.000 C 
ATOM     15  C   UNL     1       0.665  14.159  19.153  0.00  0.00    +0.000 C 
ATOM     16  C   UNL     1       1.844  14.903  18.673  0.00  0.00    +0.000 C 
ATOM     17  C   UNL     1       2.309  16.285  18.973  0.00  0.00    +0.000 C 
ATOM     18  C   UNL     1       3.749  16.515  18.502  0.00  0.00    +0.000 C 
ATOM     19  C   UNL     1       2.631  16.890  17.583  0.00  0.00    +0.000 C 
ATOM     20  C   UNL     1       1.582  16.909  20.243  0.00  0.00    +0.000 C 
ENDROOT
BRANCH   7  21
ATOM     21  C   UNL     1      -2.993  12.812  23.057  0.00  0.00    +0.000 A 
ATOM     22  C   UNL     1      -3.711  12.556  24.230  0.00  0.00    +0.000 A 
ATOM     23  C   UNL     1      -5.108  12.613  24.224  0.00  0.00    +0.000 A 
ATOM     24  C   UNL     1      -5.824  12.941  23.054  0.00  0.00    +0.000 A 
ATOM     25  C   UNL     1      -5.093  13.205  21.896  0.00  0.00    +0.000 A 
ATOM     26  C   UNL     1      -3.713  13.120  21.879  0.00  0.00    +0.000 A 
BRANCH  24  27
ATOM     27  C   UNL     1      -7.316  13.038  23.081  0.00  0.00    +0.000 C 
ATOM     28  F   UNL     1      -7.916  12.139  22.258  0.00  0.00    +0.000 F 
ATOM     29  F   UNL     1      -7.814  12.799  24.321  0.00  0.00    +0.000 F 
ATOM     30  F   UNL     1      -7.765  14.261  22.698  0.00  0.00    +0.000 F 
ENDBRANCH  24  27
BRANCH  25  31
ATOM     31  C   UNL     1      -5.750  13.535  20.659  0.00  0.00    +0.000 C 
ATOM     32  N   UNL     1      -6.305  13.785  19.674  0.00  0.00    +0.000 NA
ENDBRANCH  25  31
ENDBRANCH   7  21
BRANCH   1  34
ATOM     33  C   UNL     1      -0.254  16.261  25.364  0.00  0.00    +0.000 C 
ATOM     34  C   UNL     1      -1.189  15.471  24.443  0.00  0.00    +0.000 C 
ATOM     35  C   UNL     1      -2.601  16.047  24.466  0.00  0.00    +0.000 C 
ENDBRANCH   1  34
BRANCH  15  36
ATOM     36  O   UNL     1      -0.457  14.295  18.263  0.00  0.00    +0.000 OA
ATOM     37  H   UNL     1      -0.424  13.586  17.602  0.00  0.00    +0.000 HD
ENDBRANCH  15  36
TORSDOF 5
ENDMDL
MODEL 2
REMARK VINA RESULT:      -6.6      4.684      8.044
REMARK  Name = 
REMARK  7 active torsions:
REMARK  status: ('A' for Active; 'I' for Inactive)
REMARK    1  A    between atoms: C_1  and  C_2
REMARK    2  A    between atoms: C_2  and  C_3
REMARK    3  A    between atoms: C_2  and  C_4
REMARK    4  A    between atoms: C_10  and  C_11
REMARK    5  A    between atoms: C_14  and  C_15
REMARK    6  A    between atoms: C_19  and  C_20
REMARK    7  A    between atoms: C_30  and  O_31
REMARK                            x       y       z     vdW  Elec       q    Type
REMARK                         _______ _______ _______ _____ _____    ______ ____
ROOT
ATOM      1  C   UNL     1      -0.782  15.957  20.363  0.00  0.00    +0.000 A 
ATOM      2  N   UNL     1      -1.698  15.990  21.420  0.00  0.00    +0.000 NA
ATOM      3  C   UNL     1      -2.093  14.796  22.023  0.00  0.00    +0.000 A 
ATOM      4  C   UNL     1      -1.523  13.587  21.555  0.00  0.00    +0.000 A 
ATOM      5  C   UNL     1      -0.732  13.567  20.415  0.00  0.00    +0.000 A 
ATOM      6  C   UNL     1      -0.329  14.746  19.844  0.00  0.00    +0.000 A 
ATOM      7  C   UNL     1       0.645  14.420  18.758  0.00  0.00    +0.000 C 
ATOM      8  O   UNL     1       0.572  12.980  18.581  0.00  0.00    +0.000 OA
ATOM      9  C   UNL     1      -0.258  12.379  19.610  0.00  0.00    +0.000 C 
ATOM     10  C   UNL     1       0.605  11.364  20.380  0.00  0.00    +0.000 C 
ATOM     11  C   UNL     1       0.857  10.094  19.597  0.00  0.00    +0.000 C 
ATOM     12  O   UNL     1      -0.388   9.539  19.173  0.00  0.00    +0.000 OA
ATOM     13  C   UNL     1      -1.048  10.386  18.239  0.00  0.00    +0.000 C 
ATOM     14  C   UNL     1      -1.443  11.709  18.876  0.00  0.00    +0.000 C 
ATOM     15  C   UNL     1      -1.735  12.264  22.181  0.00  0.00    +0.000 C 
ATOM     16  C   UNL     1      -3.047  12.241  22.853  0.00  0.00    +0.000 C 
ATOM     17  C   UNL     1      -3.811  13.323  23.532  0.00  0.00    +0.000 C 
ATOM     18  C   UNL     1      -5.263  12.914  23.800  0.00  0.00    +0.000 C 
ATOM     19  C   UNL     1      -4.251  12.693  24.878  0.00  0.00    +0.000 C 
ATOM     20  C   UNL     1      -3.249  14.771  23.190  0.00  0.00    +0.000 C 
ENDROOT
BRANCH   7  21
ATOM     21  C   UNL     1       2.108  14.715  19.073  0.00  0.00    +0.000 A 
ATOM     22  C   UNL     1       2.908  15.330  18.104  0.00  0.00    +0.000 A 
ATOM     23  C   UNL     1       4.258  15.584  18.367  0.00  0.00    +0.000 A 
ATOM     24  C   UNL     1       4.840  15.247  19.606  0.00  0.00    +0.000 A 
ATOM     25  C   UNL     1       4.026  14.645  20.567  0.00  0.00    +0.000 A 
ATOM     26  C   UNL     1       2.698  14.358  20.308  0.00  0.00    +0.000 A 
BRANCH  24  27
ATOM     27  C   UNL     1       6.275  15.566  19.881  0.00  0.00    +0.000 C 
ATOM     28  F   UNL     1       7.012  14.464  20.178  0.00  0.00    +0.000 F 
ATOM     29  F   UNL     1       6.877  16.141  18.809  0.00  0.00    +0.000 F 
ATOM     30  F   UNL     1       6.427  16.416  20.929  0.00  0.00    +0.000 F 
ENDBRANCH  24  27
BRANCH  25  31
ATOM     31  C   UNL     1       4.549  14.260  21.851  0.00  0.00    +0.000 C 
ATOM     32  N   UNL     1       4.958  13.922  22.879  0.00  0.00    +0.000 NA
ENDBRANCH  25  31
ENDBRANCH   7  21
BRANCH   1  34
ATOM     33  C   UNL     1      -1.123  17.676  18.497  0.00  0.00    +0.000 C 
ATOM     34  C   UNL     1      -0.251  17.230  19.674  0.00  0.00    +0.000 C 
ATOM     35  C   UNL     1       0.096  18.405  20.581  0.00  0.00    +0.000 C 
ENDBRANCH   1  34
BRANCH  15  36
ATOM     36  O   UNL     1      -0.667  11.902  23.074  0.00  0.00    +0.000 OA
ATOM     37  H   UNL     1      -0.606  10.935  23.118  0.00  0.00    +0.000 HD
ENDBRANCH  15  36
TORSDOF 5
ENDMDL
MODEL 3
REMARK VINA RESULT:      -6.5      4.394      8.097
REMARK  Name = 
REMARK  7 active torsions:
REMARK  status: ('A' for Active; 'I' for Inactive)
REMARK    1  A    between atoms: C_1  and  C_2
REMARK    2  A    between atoms: C_2  and  C_3
REMARK    3  A    between atoms: C_2  and  C_4
REMARK    4  A    between atoms: C_10  and  C_11
REMARK    5  A    between atoms: C_14  and  C_15
REMARK    6  A    between atoms: C_19  and  C_20
REMARK    7  A    between atoms: C_30  and  O_31
REMARK                            x       y       z     vdW  Elec       q    Type
REMARK                         _______ _______ _______ _____ _____    ______ ____
ROOT
ATOM      1  C   UNL     1      -1.583  11.862  19.923  0.00  0.00    +0.000 A 
ATOM      2  N   UNL     1      -2.917  11.727  19.521  0.00  0.00    +0.000 NA
ATOM      3  C   UNL     1      -3.860  12.659  19.953  0.00  0.00    +0.000 A 
ATOM      4  C   UNL     1      -3.422  13.732  20.766  0.00  0.00    +0.000 A 
ATOM      5  C   UNL     1      -2.129  13.761  21.269  0.00  0.00    +0.000 A 
ATOM      6  C   UNL     1      -1.201  12.857  20.821  0.00  0.00    +0.000 A 
ATOM      7  C   UNL     1       0.125  13.240  21.392  0.00  0.00    +0.000 C 
ATOM      8  O   UNL     1      -0.152  14.256  22.391  0.00  0.00    +0.000 OA
ATOM      9  C   UNL     1      -1.550  14.649  22.347  0.00  0.00    +0.000 C 
ATOM     10  C   UNL     1      -1.607  16.160  22.056  0.00  0.00    +0.000 C 
ATOM     11  C   UNL     1      -1.229  17.003  23.254  0.00  0.00    +0.000 C 
ATOM     12  O   UNL     1      -2.034  16.633  24.372  0.00  0.00    +0.000 OA
ATOM     13  C   UNL     1      -1.761  15.302  24.797  0.00  0.00    +0.000 C 
ATOM     14  C   UNL     1      -2.146  14.291  23.728  0.00  0.00    +0.000 C 
ATOM     15  C   UNL     1      -4.272  14.868  21.184  0.00  0.00    +0.000 C 
ATOM     16  C   UNL     1      -5.679  14.434  21.244  0.00  0.00    +0.000 C 
ATOM     17  C   UNL     1      -6.424  13.433  20.432  0.00  0.00    +0.000 C 
ATOM     18  C   UNL     1      -7.777  13.084  21.059  0.00  0.00    +0.000 C 
ATOM     19  C   UNL     1      -7.728  14.164  20.026  0.00  0.00    +0.000 C 
ATOM     20  C   UNL     1      -5.455  12.483  19.601  0.00  0.00    +0.000 C 
ENDROOT
BRANCH   7  21
ATOM     21  C   UNL     1       1.103  13.886  20.416  0.00  0.00    +0.000 A 
ATOM     22  C   UNL     1       2.215  13.160  19.976  0.00  0.00    +0.000 A 
ATOM     23  C   UNL     1       3.135  13.748  19.102  0.00  0.00    +0.000 A 
ATOM     24  C   UNL     1       2.963  15.066  18.633  0.00  0.00    +0.000 A 
ATOM     25  C   UNL     1       1.842  15.773  19.072  0.00  0.00    +0.000 A 
ATOM     26  C   UNL     1       0.942  15.216  19.962  0.00  0.00    +0.000 A 
BRANCH  24  27
ATOM     27  C   UNL     1       3.937  15.660  17.665  0.00  0.00    +0.000 C 
ATOM     28  F   UNL     1       4.983  14.835  17.401  0.00  0.00    +0.000 F 
ATOM     29  F   UNL     1       3.357  15.925  16.467  0.00  0.00    +0.000 F 
ATOM     30  F   UNL     1       4.475  16.822  18.117  0.00  0.00    +0.000 F 
ENDBRANCH  24  27
BRANCH  25  31
ATOM     31  C   UNL     1       1.602  17.127  18.648  0.00  0.00    +0.000 C 
ATOM     32  N   UNL     1       1.437  18.224  18.318  0.00  0.00    +0.000 NA
ENDBRANCH  25  31
ENDBRANCH   7  21
BRANCH   1  34
ATOM     33  C   UNL     1      -0.168   9.798  20.463  0.00  0.00    +0.000 C 
ATOM     34  C   UNL     1      -0.465  10.910  19.453  0.00  0.00    +0.000 C 
ATOM     35  C   UNL     1      -0.591  10.353  18.039  0.00  0.00    +0.000 C 
ENDBRANCH   1  34
BRANCH  15  36
ATOM     36  O   UNL     1      -4.099  16.021  20.343  0.00  0.00    +0.000 OA
ATOM     37  H   UNL     1      -3.227  16.410  20.514  0.00  0.00    +0.000 HD
ENDBRANCH  15  36
TORSDOF 5
ENDMDL
MODEL 4
REMARK VINA RESULT:      -6.5      4.809      8.080
REMARK  Name = 
REMARK  7 active torsions:
REMARK  status: ('A' for Active; 'I' for Inactive)
REMARK    1  A    between atoms: C_1  and  C_2
REMARK    2  A    between atoms: C_2  and  C_3
REMARK    3  A    between atoms: C_2  and  C_4
REMARK    4  A    between atoms: C_10  and  C_11
REMARK    5  A    between atoms: C_14  and  C_15
REMARK    6  A    between atoms: C_19  and  C_20
REMARK    7  A    between atoms: C_30  and  O_31
REMARK                            x       y       z     vdW  Elec       q    Type
REMARK                         _______ _______ _______ _____ _____    ______ ____
ROOT
ATOM      1  C   UNL     1      -0.423  16.053  19.315  0.00  0.00    +0.000 A 
ATOM      2  N   UNL     1      -1.512  16.463  20.093  0.00  0.00    +0.000 NA
ATOM      3  C   UNL     1      -2.131  15.546  20.942  0.00  0.00    +0.000 A 
ATOM      4  C   UNL     1      -1.610  14.231  21.006  0.00  0.00    +0.000 A 
ATOM      5  C   UNL     1      -0.628  13.811  20.121  0.00  0.00    +0.000 A 
ATOM      6  C   UNL     1      -0.007  14.723  19.307  0.00  0.00    +0.000 A 
ATOM      7  C   UNL     1       1.113  14.025  18.606  0.00  0.00    +0.000 C 
ATOM      8  O   UNL     1       0.928  12.610  18.877  0.00  0.00    +0.000 OA
ATOM      9  C   UNL     1      -0.136  12.409  19.845  0.00  0.00    +0.000 C 
ATOM     10  C   UNL     1       0.462  11.671  21.057  0.00  0.00    +0.000 C 
ATOM     11  C   UNL     1       0.724  10.206  20.782  0.00  0.00    +0.000 C 
ATOM     12  O   UNL     1      -0.470   9.589  20.303  0.00  0.00    +0.000 OA
ATOM     13  C   UNL     1      -0.856  10.107  19.034  0.00  0.00    +0.000 C 
ATOM     14  C   UNL     1      -1.226  11.579  19.128  0.00  0.00    +0.000 C 
ATOM     15  C   UNL     1      -2.068  13.195  21.956  0.00  0.00    +0.000 C 
ATOM     16  C   UNL     1      -3.478  13.440  22.312  0.00  0.00    +0.000 C 
ATOM     17  C   UNL     1      -4.240  14.712  22.444  0.00  0.00    +0.000 C 
ATOM     18  C   UNL     1      -5.750  14.465  22.517  0.00  0.00    +0.000 C 
ATOM     19  C   UNL     1      -4.984  14.573  23.796  0.00  0.00    +0.000 C 
ATOM     20  C   UNL     1      -3.480  15.947  21.791  0.00  0.00    +0.000 C 
ENDROOT
BRANCH   7  21
ATOM     21  C   UNL     1       2.514  14.354  19.111  0.00  0.00    +0.000 A 
ATOM     22  C   UNL     1       3.522  14.654  18.188  0.00  0.00    +0.000 A 
ATOM     23  C   UNL     1       4.819  14.933  18.633  0.00  0.00    +0.000 A 
ATOM     24  C   UNL     1       5.140  14.934  20.006  0.00  0.00    +0.000 A 
ATOM     25  C   UNL     1       4.120  14.645  20.913  0.00  0.00    +0.000 A 
ATOM     26  C   UNL     1       2.842  14.335  20.487  0.00  0.00    +0.000 A 
BRANCH  24  27
ATOM     27  C   UNL     1       6.523  15.276  20.461  0.00  0.00    +0.000 C 
ATOM     28  F   UNL     1       7.104  14.276  21.174  0.00  0.00    +0.000 F 
ATOM     29  F   UNL     1       7.351  15.519  19.413  0.00  0.00    +0.000 F 
ATOM     30  F   UNL     1       6.551  16.376  21.257  0.00  0.00    +0.000 F 
ENDBRANCH  24  27
BRANCH  25  31
ATOM     31  C   UNL     1       4.370  14.615  22.330  0.00  0.00    +0.000 C 
ATOM     32  N   UNL     1       4.564  14.560  23.470  0.00  0.00    +0.000 NA
ENDBRANCH  25  31
ENDBRANCH   7  21
BRANCH   1  34
ATOM     33  C   UNL     1      -0.566  17.834  17.482  0.00  0.00    +0.000 C 
ATOM     34  C   UNL     1       0.353  17.010  18.389  0.00  0.00    +0.000 C 
ATOM     35  C   UNL     1       1.413  17.888  19.045  0.00  0.00    +0.000 C 
ENDBRANCH   1  34
BRANCH  15  36
ATOM     36  O   UNL     1      -1.227  13.106  23.119  0.00  0.00    +0.000 OA
ATOM     37  H   UNL     1      -0.757  13.947  23.235  0.00  0.00    +0.000 HD
ENDBRANCH  15  36
TORSDOF 5
ENDMDL
MODEL 5
REMARK VINA RESULT:      -6.3      4.327      7.815
REMARK  Name = 
REMARK  7 active torsions:
REMARK  status: ('A' for Active; 'I' for Inactive)
REMARK    1  A    between atoms: C_1  and  C_2
REMARK    2  A    between atoms: C_2  and  C_3
REMARK    3  A    between atoms: C_2  and  C_4
REMARK    4  A    between atoms: C_10  and  C_11
REMARK    5  A    between atoms: C_14  and  C_15
REMARK    6  A    between atoms: C_19  and  C_20
REMARK    7  A    between atoms: C_30  and  O_31
REMARK                            x       y       z     vdW  Elec       q    Type
REMARK                         _______ _______ _______ _____ _____    ______ ____
ROOT
ATOM      1  C   UNL     1      -0.546  11.400  19.216  0.00  0.00    +0.000 A 
ATOM      2  N   UNL     1      -1.624  11.070  18.387  0.00  0.00    +0.000 NA
ATOM      3  C   UNL     1      -2.901  11.530  18.708  0.00  0.00    +0.000 A 
ATOM      4  C   UNL     1      -3.053  12.344  19.856  0.00  0.00    +0.000 A 
ATOM      5  C   UNL     1      -1.999  12.535  20.738  0.00  0.00    +0.000 A 
ATOM      6  C   UNL     1      -0.743  12.101  20.404  0.00  0.00    +0.000 A 
ATOM      7  C   UNL     1       0.206  12.597  21.447  0.00  0.00    +0.000 C 
ATOM      8  O   UNL     1      -0.623  13.116  22.521  0.00  0.00    +0.000 OA
ATOM      9  C   UNL     1      -2.021  13.129  22.128  0.00  0.00    +0.000 C 
ATOM     10  C   UNL     1      -2.522  14.583  22.214  0.00  0.00    +0.000 C 
ATOM     11  C   UNL     1      -2.739  15.045  23.638  0.00  0.00    +0.000 C 
ATOM     12  O   UNL     1      -3.602  14.130  24.312  0.00  0.00    +0.000 OA
ATOM     13  C   UNL     1      -2.997  12.850  24.461  0.00  0.00    +0.000 C 
ATOM     14  C   UNL     1      -2.758  12.191  23.112  0.00  0.00    +0.000 C 
ATOM     15  C   UNL     1      -4.311  13.018  20.244  0.00  0.00    +0.000 C 
ATOM     16  C   UNL     1      -5.460  12.244  19.740  0.00  0.00    +0.000 C 
ATOM     17  C   UNL     1      -5.611  11.415  18.513  0.00  0.00    +0.000 C 
ATOM     18  C   UNL     1      -6.870  10.543  18.566  0.00  0.00    +0.000 C 
ATOM     19  C   UNL     1      -6.958  11.879  17.901  0.00  0.00    +0.000 C 
ATOM     20  C   UNL     1      -4.215  11.078  17.831  0.00  0.00    +0.000 C 
ENDROOT
BRANCH   7  21
ATOM     21  C   UNL     1       1.099  13.760  21.027  0.00  0.00    +0.000 A 
ATOM     22  C   UNL     1       2.440  13.775  21.426  0.00  0.00    +0.000 A 
ATOM     23  C   UNL     1       3.266  14.847  21.072  0.00  0.00    +0.000 A 
ATOM     24  C   UNL     1       2.781  15.922  20.299  0.00  0.00    +0.000 A 
ATOM     25  C   UNL     1       1.445  15.886  19.898  0.00  0.00    +0.000 A 
ATOM     26  C   UNL     1       0.609  14.849  20.269  0.00  0.00    +0.000 A 
BRANCH  24  27
ATOM     27  C   UNL     1       3.694  17.036  19.896  0.00  0.00    +0.000 C 
ATOM     28  F   UNL     1       4.965  16.863  20.343  0.00  0.00    +0.000 F 
ATOM     29  F   UNL     1       3.784  17.150  18.546  0.00  0.00    +0.000 F 
ATOM     30  F   UNL     1       3.285  18.240  20.373  0.00  0.00    +0.000 F 
ENDBRANCH  24  27
BRANCH  25  31
ATOM     31  C   UNL     1       0.873  16.951  19.118  0.00  0.00    +0.000 C 
ATOM     32  N   UNL     1       0.430  17.829  18.507  0.00  0.00    +0.000 NA
ENDBRANCH  25  31
ENDBRANCH   7  21
BRANCH   1  34
ATOM     33  C   UNL     1       0.998   9.607  18.239  0.00  0.00    +0.000 C 
ATOM     34  C   UNL     1       0.906  10.979  18.911  0.00  0.00    +0.000 C 
ATOM     35  C   UNL     1       1.779  12.004  18.196  0.00  0.00    +0.000 C 
ENDBRANCH   1  34
BRANCH  15  36
ATOM     36  O   UNL     1      -4.355  14.389  19.813  0.00  0.00    +0.000 OA
ATOM     37  H   UNL     1      -3.668  14.890  20.280  0.00  0.00    +0.000 HD
ENDBRANCH  15  36
TORSDOF 5
ENDMDL
MODEL 6
REMARK VINA RESULT:      -6.3      4.515      8.306
REMARK  Name = 
REMARK  7 active torsions:
REMARK  status: ('A' for Active; 'I' for Inactive)
REMARK    1  A    between atoms: C_1  and  C_2
REMARK    2  A    between atoms: C_2  and  C_3
REMARK    3  A    between atoms: C_2  and  C_4
REMARK    4  A    between atoms: C_10  and  C_11
REMARK    5  A    between atoms: C_14  and  C_15
REMARK    6  A    between atoms: C_19  and  C_20
REMARK    7  A    between atoms: C_30  and  O_31
REMARK                            x       y       z     vdW  Elec       q    Type
REMARK                         _______ _______ _______ _____ _____    ______ ____
ROOT
ATOM      1  C   UNL     1      -1.267  11.606  19.854  0.00  0.00    +0.000 A 
ATOM      2  N   UNL     1      -2.578  11.454  19.388  0.00  0.00    +0.000 NA
ATOM      3  C   UNL     1      -3.555  12.370  19.779  0.00  0.00    +0.000 A 
ATOM      4  C   UNL     1      -3.170  13.445  20.616  0.00  0.00    +0.000 A 
ATOM      5  C   UNL     1      -1.903  13.491  21.180  0.00  0.00    +0.000 A 
ATOM      6  C   UNL     1      -0.943  12.603  20.772  0.00  0.00    +0.000 A 
ATOM      7  C   UNL     1       0.350  13.001  21.407  0.00  0.00    +0.000 C 
ATOM      8  O   UNL     1       0.011  14.009  22.396  0.00  0.00    +0.000 OA
ATOM      9  C   UNL     1      -1.388  14.382  22.287  0.00  0.00    +0.000 C 
ATOM     10  C   UNL     1      -1.453  15.894  22.000  0.00  0.00    +0.000 C 
ATOM     11  C   UNL     1      -1.144  16.736  23.218  0.00  0.00    +0.000 C 
ATOM     12  O   UNL     1      -1.996  16.349  24.295  0.00  0.00    +0.000 OA
ATOM     13  C   UNL     1      -1.725  15.021  24.727  0.00  0.00    +0.000 C 
ATOM     14  C   UNL     1      -2.044  14.009  23.637  0.00  0.00    +0.000 C 
ATOM     15  C   UNL     1      -4.055  14.567  20.998  0.00  0.00    +0.000 C 
ATOM     16  C   UNL     1      -5.458  14.113  20.990  0.00  0.00    +0.000 C 
ATOM     17  C   UNL     1      -6.148  13.105  20.140  0.00  0.00    +0.000 C 
ATOM     18  C   UNL     1      -7.525  12.735  20.701  0.00  0.00    +0.000 C 
ATOM     19  C   UNL     1      -7.443  13.819  19.675  0.00  0.00    +0.000 C 
ATOM     20  C   UNL     1      -5.128  12.173  19.352  0.00  0.00    +0.000 C 
ENDROOT
BRANCH   7  21
ATOM     21  C   UNL     1       1.363  13.666  20.481  0.00  0.00    +0.000 A 
ATOM     22  C   UNL     1       0.987  13.992  19.174  0.00  0.00    +0.000 A 
ATOM     23  C   UNL     1       1.911  14.579  18.303  0.00  0.00    +0.000 A 
ATOM     24  C   UNL     1       3.228  14.868  18.717  0.00  0.00    +0.000 A 
ATOM     25  C   UNL     1       3.584  14.547  20.028  0.00  0.00    +0.000 A 
ATOM     26  C   UNL     1       2.690  13.937  20.889  0.00  0.00    +0.000 A 
BRANCH  24  27
ATOM     27  C   UNL     1       4.187  15.534  17.783  0.00  0.00    +0.000 C 
ATOM     28  F   UNL     1       5.292  14.782  17.540  0.00  0.00    +0.000 F 
ATOM     29  F   UNL     1       3.624  15.774  16.571  0.00  0.00    +0.000 F 
ATOM     30  F   UNL     1       4.636  16.724  18.259  0.00  0.00    +0.000 F 
ENDBRANCH  24  27
BRANCH  25  31
ATOM     31  C   UNL     1       4.911  14.800  20.522  0.00  0.00    +0.000 C 
ATOM     32  N   UNL     1       5.967  15.011  20.948  0.00  0.00    +0.000 NA
ENDBRANCH  25  31
ENDBRANCH   7  21
BRANCH   1  34
ATOM     33  C   UNL     1       0.187   9.593  20.476  0.00  0.00    +0.000 C 
ATOM     34  C   UNL     1      -0.115  10.672  19.433  0.00  0.00    +0.000 C 
ATOM     35  C   UNL     1      -0.193  10.078  18.031  0.00  0.00    +0.000 C 
ENDBRANCH   1  34
BRANCH  15  36
ATOM     36  O   UNL     1      -3.859  15.727  20.171  0.00  0.00    +0.000 OA
ATOM     37  H   UNL     1      -4.624  16.316  20.266  0.00  0.00    +0.000 HD
ENDBRANCH  15  36
TORSDOF 5
ENDMDL
MODEL 7
REMARK VINA RESULT:      -6.3      6.766     10.244
REMARK  Name = 
REMARK  7 active torsions:
REMARK  status: ('A' for Active; 'I' for Inactive)
REMARK    1  A    between atoms: C_1  and  C_2
REMARK    2  A    between atoms: C_2  and  C_3
REMARK    3  A    between atoms: C_2  and  C_4
REMARK    4  A    between atoms: C_10  and  C_11
REMARK    5  A    between atoms: C_14  and  C_15
REMARK    6  A    between atoms: C_19  and  C_20
REMARK    7  A    between atoms: C_30  and  O_31
REMARK                            x       y       z     vdW  Elec       q    Type
REMARK                         _______ _______ _______ _____ _____    ______ ____
ROOT
ATOM      1  C   UNL     1       4.016  14.527  21.584  0.00  0.00    +0.000 A 
ATOM      2  N   UNL     1       3.205  13.387  21.636  0.00  0.00    +0.000 NA
ATOM      3  C   UNL     1       2.265  13.169  20.628  0.00  0.00    +0.000 A 
ATOM      4  C   UNL     1       2.187  14.104  19.568  0.00  0.00    +0.000 A 
ATOM      5  C   UNL     1       2.897  15.296  19.616  0.00  0.00    +0.000 A 
ATOM      6  C   UNL     1       3.836  15.492  20.594  0.00  0.00    +0.000 A 
ATOM      7  C   UNL     1       4.556  16.766  20.291  0.00  0.00    +0.000 C 
ATOM      8  O   UNL     1       3.797  17.406  19.231  0.00  0.00    +0.000 OA
ATOM      9  C   UNL     1       2.754  16.521  18.742  0.00  0.00    +0.000 C 
ATOM     10  C   UNL     1       2.997  16.290  17.239  0.00  0.00    +0.000 C 
ATOM     11  C   UNL     1       2.619  17.486  16.393  0.00  0.00    +0.000 C 
ATOM     12  O   UNL     1       1.273  17.865  16.676  0.00  0.00    +0.000 OA
ATOM     13  C   UNL     1       1.131  18.339  18.011  0.00  0.00    +0.000 C 
ATOM     14  C   UNL     1       1.412  17.236  19.020  0.00  0.00    +0.000 C 
ATOM     15  C   UNL     1       1.344  13.937  18.364  0.00  0.00    +0.000 C 
ATOM     16  C   UNL     1       0.170  13.110  18.696  0.00  0.00    +0.000 C 
ATOM     17  C   UNL     1       0.012  11.990  19.664  0.00  0.00    +0.000 C 
ATOM     18  C   UNL     1      -1.462  11.646  19.900  0.00  0.00    +0.000 C 
ATOM     19  C   UNL     1      -0.712  10.885  18.854  0.00  0.00    +0.000 C 
ATOM     20  C   UNL     1       1.214  11.909  20.701  0.00  0.00    +0.000 C 
ENDROOT
BRANCH   7  21
ATOM     21  C   UNL     1       5.970  16.610  19.741  0.00  0.00    +0.000 A 
ATOM     22  C   UNL     1       6.851  17.696  19.795  0.00  0.00    +0.000 A 
ATOM     23  C   UNL     1       8.142  17.578  19.271  0.00  0.00    +0.000 A 
ATOM     24  C   UNL     1       8.593  16.373  18.694  0.00  0.00    +0.000 A 
ATOM     25  C   UNL     1       7.706  15.296  18.658  0.00  0.00    +0.000 A 
ATOM     26  C   UNL     1       6.416  15.409  19.143  0.00  0.00    +0.000 A 
BRANCH  24  27
ATOM     27  C   UNL     1       9.992  16.257  18.178  0.00  0.00    +0.000 C 
ATOM     28  F   UNL     1      10.754  17.341  18.479  0.00  0.00    +0.000 F 
ATOM     29  F   UNL     1      10.637  15.187  18.709  0.00  0.00    +0.000 F 
ATOM     30  F   UNL     1      10.038  16.124  16.828  0.00  0.00    +0.000 F 
ENDBRANCH  24  27
BRANCH  25  31
ATOM     31  C   UNL     1       8.087  14.037  18.076  0.00  0.00    +0.000 C 
ATOM     32  N   UNL     1       8.373  13.029  17.584  0.00  0.00    +0.000 NA
ENDBRANCH  25  31
ENDBRANCH   7  21
BRANCH   1  34
ATOM     33  C   UNL     1       4.618  15.688  23.785  0.00  0.00    +0.000 C 
ATOM     34  C   UNL     1       5.115  14.821  22.624  0.00  0.00    +0.000 C 
ATOM     35  C   UNL     1       5.915  13.626  23.131  0.00  0.00    +0.000 C 
ENDBRANCH   1  34
BRANCH  15  36
ATOM     36  O   UNL     1       2.080  13.405  17.249  0.00  0.00    +0.000 OA
ATOM     37  H   UNL     1       1.551  13.510  16.442  0.00  0.00    +0.000 HD
ENDBRANCH  15  36
TORSDOF 5
ENDMDL
MODEL 8
REMARK VINA RESULT:      -6.3      2.438      3.142
REMARK  Name = 
REMARK  7 active torsions:
REMARK  status: ('A' for Active; 'I' for Inactive)
REMARK    1  A    between atoms: C_1  and  C_2
REMARK    2  A    between atoms: C_2  and  C_3
REMARK    3  A    between atoms: C_2  and  C_4
REMARK    4  A    between atoms: C_10  and  C_11
REMARK    5  A    between atoms: C_14  and  C_15
REMARK    6  A    between atoms: C_19  and  C_20
REMARK    7  A    between atoms: C_30  and  O_31
REMARK                            x       y       z     vdW  Elec       q    Type
REMARK                         _______ _______ _______ _____ _____    ______ ____
ROOT
ATOM      1  C   UNL     1      -1.076  15.117  20.875  0.00  0.00    +0.000 A 
ATOM      2  N   UNL     1      -0.010  15.872  20.373  0.00  0.00    +0.000 NA
ATOM      3  C   UNL     1       1.073  15.219  19.784  0.00  0.00    +0.000 A 
ATOM      4  C   UNL     1       1.038  13.807  19.692  0.00  0.00    +0.000 A 
ATOM      5  C   UNL     1       0.043  13.077  20.326  0.00  0.00    +0.000 A 
ATOM      6  C   UNL     1      -1.031  13.724  20.879  0.00  0.00    +0.000 A 
ATOM      7  C   UNL     1      -2.013  12.688  21.322  0.00  0.00    +0.000 C 
ATOM      8  O   UNL     1      -1.320  11.416  21.220  0.00  0.00    +0.000 OA
ATOM      9  C   UNL     1      -0.029  11.588  20.575  0.00  0.00    +0.000 C 
ATOM     10  C   UNL     1      -0.011  10.707  19.312  0.00  0.00    +0.000 C 
ATOM     11  C   UNL     1       0.146   9.235  19.624  0.00  0.00    +0.000 C 
ATOM     12  O   UNL     1       1.300   9.041  20.440  0.00  0.00    +0.000 OA
ATOM     13  C   UNL     1       1.145   9.642  21.721  0.00  0.00    +0.000 C 
ATOM     14  C   UNL     1       1.035  11.155  21.610  0.00  0.00    +0.000 C 
ATOM     15  C   UNL     1       2.041  12.989  18.975  0.00  0.00    +0.000 C 
ATOM     16  C   UNL     1       3.338  13.689  18.975  0.00  0.00    +0.000 C 
ATOM     17  C   UNL     1       3.659  15.142  18.944  0.00  0.00    +0.000 C 
ATOM     18  C   UNL     1       5.130  15.408  19.279  0.00  0.00    +0.000 C 
ATOM     19  C   UNL     1       4.742  15.271  17.842  0.00  0.00    +0.000 C 
ATOM     20  C   UNL     1       2.398  16.051  19.281  0.00  0.00    +0.000 C 
ENDROOT
BRANCH   7  21
ATOM     21  C   UNL     1      -3.257  12.543  20.451  0.00  0.00    +0.000 A 
ATOM     22  C   UNL     1      -4.502  12.921  20.965  0.00  0.00    +0.000 A 
ATOM     23  C   UNL     1      -5.656  12.770  20.189  0.00  0.00    +0.000 A 
ATOM     24  C   UNL     1      -5.596  12.253  18.878  0.00  0.00    +0.000 A 
ATOM     25  C   UNL     1      -4.345  11.892  18.376  0.00  0.00    +0.000 A 
ATOM     26  C   UNL     1      -3.201  12.006  19.144  0.00  0.00    +0.000 A 
BRANCH  24  27
ATOM     27  C   UNL     1      -6.837  12.140  18.051  0.00  0.00    +0.000 C 
ATOM     28  F   UNL     1      -7.916  12.717  18.642  0.00  0.00    +0.000 F 
ATOM     29  F   UNL     1      -6.698  12.752  16.847  0.00  0.00    +0.000 F 
ATOM     30  F   UNL     1      -7.184  10.850  17.808  0.00  0.00    +0.000 F 
ENDBRANCH  24  27
BRANCH  25  31
ATOM     31  C   UNL     1      -4.203  11.347  17.052  0.00  0.00    +0.000 C 
ATOM     32  N   UNL     1      -4.063  10.892  15.997  0.00  0.00    +0.000 NA
ENDBRANCH  25  31
ENDBRANCH   7  21
BRANCH   1  34
ATOM     33  C   UNL     1      -2.064  16.416  22.848  0.00  0.00    +0.000 C 
ATOM     34  C   UNL     1      -2.336  15.755  21.493  0.00  0.00    +0.000 C 
ATOM     35  C   UNL     1      -3.156  16.668  20.588  0.00  0.00    +0.000 C 
ENDBRANCH   1  34
BRANCH  15  36
ATOM     36  O   UNL     1       1.616  12.641  17.646  0.00  0.00    +0.000 OA
ATOM     37  H   UNL     1       0.921  11.966  17.702  0.00  0.00    +0.000 HD
ENDBRANCH  15  36
TORSDOF 5
ENDMDL
MODEL 9
REMARK VINA RESULT:      -6.2      1.508      1.979
REMARK  Name = 
REMARK  7 active torsions:
REMARK  status: ('A' for Active; 'I' for Inactive)
REMARK    1  A    between atoms: C_1  and  C_2
REMARK    2  A    between atoms: C_2  and  C_3
REMARK    3  A    between atoms: C_2  and  C_4
REMARK    4  A    between atoms: C_10  and  C_11
REMARK    5  A    between atoms: C_14  and  C_15
REMARK    6  A    between atoms: C_19  and  C_20
REMARK    7  A    between atoms: C_30  and  O_31
REMARK                            x       y       z     vdW  Elec       q    Type
REMARK                         _______ _______ _______ _____ _____    ______ ____
ROOT
ATOM      1  C   UNL     1      -0.668  14.981  22.077  0.00  0.00    +0.000 A 
ATOM      2  N   UNL     1       0.282  15.746  21.391  0.00  0.00    +0.000 NA
ATOM      3  C   UNL     1       1.074  15.141  20.415  0.00  0.00    +0.000 A 
ATOM      4  C   UNL     1       0.864  13.769  20.135  0.00  0.00    +0.000 A 
ATOM      5  C   UNL     1       0.022  13.001  20.927  0.00  0.00    +0.000 A 
ATOM      6  C   UNL     1      -0.770  13.607  21.867  0.00  0.00    +0.000 A 
ATOM      7  C   UNL     1      -1.687  12.570  22.430  0.00  0.00    +0.000 C 
ATOM      8  O   UNL     1      -1.192  11.296  21.941  0.00  0.00    +0.000 OA
ATOM      9  C   UNL     1      -0.132  11.498  20.969  0.00  0.00    +0.000 C 
ATOM     10  C   UNL     1      -0.573  10.845  19.646  0.00  0.00    +0.000 C 
ATOM     11  C   UNL     1      -0.489   9.335  19.681  0.00  0.00    +0.000 C 
ATOM     12  O   UNL     1       0.824   8.938  20.073  0.00  0.00    +0.000 OA
ATOM     13  C   UNL     1       1.109   9.322  21.413  0.00  0.00    +0.000 C 
ATOM     14  C   UNL     1       1.133  10.835  21.561  0.00  0.00    +0.000 C 
ATOM     15  C   UNL     1       1.525  13.028  19.039  0.00  0.00    +0.000 C 
ATOM     16  C   UNL     1       2.833  13.640  18.748  0.00  0.00    +0.000 C 
ATOM     17  C   UNL     1       3.284  15.057  18.831  0.00  0.00    +0.000 C 
ATOM     18  C   UNL     1       4.809  15.175  18.742  0.00  0.00    +0.000 C 
ATOM     19  C   UNL     1       4.010  15.307  17.485  0.00  0.00    +0.000 C 
ATOM     20  C   UNL     1       2.278  15.967  19.661  0.00  0.00    +0.000 C 
ENDROOT
BRANCH   7  21
ATOM     21  C   UNL     1      -3.137  12.648  21.964  0.00  0.00    +0.000 A 
ATOM     22  C   UNL     1      -3.415  12.715  20.595  0.00  0.00    +0.000 A 
ATOM     23  C   UNL     1      -4.738  12.814  20.152  0.00  0.00    +0.000 A 
ATOM     24  C   UNL     1      -5.817  12.831  21.060  0.00  0.00    +0.000 A 
ATOM     25  C   UNL     1      -5.523  12.751  22.422  0.00  0.00    +0.000 A 
ATOM     26  C   UNL     1      -4.219  12.687  22.875  0.00  0.00    +0.000 A 
BRANCH  24  27
ATOM     27  C   UNL     1      -7.226  12.894  20.562  0.00  0.00    +0.000 C 
ATOM     28  F   UNL     1      -7.300  13.031  19.212  0.00  0.00    +0.000 F 
ATOM     29  F   UNL     1      -7.917  11.765  20.862  0.00  0.00    +0.000 F 
ATOM     30  F   UNL     1      -7.917  13.939  21.087  0.00  0.00    +0.000 F 
ENDBRANCH  24  27
BRANCH  25  31
ATOM     31  C   UNL     1      -6.568  12.775  23.411  0.00  0.00    +0.000 C 
ATOM     32  N   UNL     1      -7.426  12.777  24.188  0.00  0.00    +0.000 NA
ENDBRANCH  25  31
ENDBRANCH   7  21
BRANCH   1  34
ATOM     33  C   UNL     1      -0.879  16.279  24.274  0.00  0.00    +0.000 C 
ATOM     34  C   UNL     1      -1.620  15.577  23.132  0.00  0.00    +0.000 C 
ATOM     35  C   UNL     1      -2.769  16.433  22.611  0.00  0.00    +0.000 C 
ENDBRANCH   1  34
BRANCH  15  36
ATOM     36  O   UNL     1       0.700  12.935  17.864  0.00  0.00    +0.000 OA
ATOM     37  H   UNL     1       1.062  13.515  17.176  0.00  0.00    +0.000 HD
ENDBRANCH  15  36
TORSDOF 5
ENDMDL
