MODEL 1
REMARK VINA RESULT:      -7.3      0.000      0.000
REMARK  Name = 
REMARK  7 active torsions:
REMARK  status: ('A' for Active; 'I' for Inactive)
REMARK    1  A    between atoms: C_2  and  C_3
REMARK    2  A    between atoms: C_3  and  C_4
REMARK    3  A    between atoms: N_10  and  C_11
REMARK    4  A    between atoms: C_11  and  C_12
REMARK    5  A    between atoms: C_12  and  C_13
REMARK    6  A    between atoms: C_15  and  C_16
REMARK    7  A    between atoms: C_16  and  C_17
REMARK                            x       y       z     vdW  Elec       q    Type
REMARK                         _______ _______ _______ _____ _____    ______ ____
ROOT
ATOM      1  C   UNL     1       6.873   5.312  18.578  0.00  0.00    +0.000 C 
ENDROOT
BRANCH   1   4
ATOM      2  O   UNL     1       5.067   7.142  17.369  0.00  0.00    +0.000 OA
ATOM      3  C   UNL     1       4.631   6.128  17.900  0.00  0.00    +0.000 C 
ATOM      4  N   UNL     1       5.436   5.170  18.463  0.00  0.00    +0.000 N 
ATOM      5  H   UNL     1       4.986   4.321  18.810  0.00  0.00    +0.000 HD
BRANCH   3   6
ATOM      6  C   UNL     1       3.147   5.811  17.916  0.00  0.00    +0.000 C 
BRANCH   6   7
ATOM      7  C   UNL     1       2.756   4.443  18.494  0.00  0.00    +0.000 C 
ATOM      8  C   UNL     1       2.418   3.416  17.385  0.00  0.00    +0.000 C 
ATOM      9  O   UNL     1       2.064   2.143  17.947  0.00  0.00    +0.000 OA
ATOM     10  C   UNL     1       0.950   2.283  18.838  0.00  0.00    +0.000 C 
ATOM     11  C   UNL     1       1.302   3.234  19.987  0.00  0.00    +0.000 C 
ATOM     12  N   UNL     1       1.649   4.579  19.484  0.00  0.00    +0.000 NA
ATOM     13  H   UNL     1       1.974   5.144  20.272  0.00  0.00    +0.000 HD
ENDBRANCH   6   7
ENDBRANCH   3   6
ENDBRANCH   1   4
BRANCH   1  14
ATOM     14  C   UNL     1       7.604   4.389  17.614  0.00  0.00    +0.000 C 
BRANCH  14  15
ATOM     15  C   UNL     1       7.099   4.577  16.237  0.00  0.00    +0.000 A 
ATOM     16  N   UNL     1       6.165   3.914  15.596  0.00  0.00    +0.000 NA
ATOM     17  C   UNL     1       6.154   4.543  14.373  0.00  0.00    +0.000 A 
ATOM     18  N   UNL     1       7.008   5.573  14.268  0.00  0.00    +0.000 NA
ATOM     19  O   UNL     1       7.652   5.586  15.505  0.00  0.00    +0.000 OA
BRANCH  17  20
ATOM     20  C   UNL     1       5.177   4.199  13.313  0.00  0.00    +0.000 C 
BRANCH  20  21
ATOM     21  C   UNL     1       5.860   3.255  12.353  0.00  0.00    +0.000 A 
ATOM     22  C   UNL     1       7.208   3.436  12.004  0.00  0.00    +0.000 A 
ATOM     23  C   UNL     1       7.851   2.530  11.158  0.00  0.00    +0.000 A 
ATOM     24  C   UNL     1       7.155   1.437  10.646  0.00  0.00    +0.000 A 
ATOM     25  C   UNL     1       5.813   1.253  10.973  0.00  0.00    +0.000 A 
ATOM     26  C   UNL     1       5.167   2.158  11.817  0.00  0.00    +0.000 A 
ENDBRANCH  20  21
ENDBRANCH  17  20
ENDBRANCH  14  15
ENDBRANCH   1  14
TORSDOF 7
ENDMDL
MODEL 2
REMARK VINA RESULT:      -7.3      4.574      7.294
REMARK  Name = 
REMARK  7 active torsions:
REMARK  status: ('A' for Active; 'I' for Inactive)
REMARK    1  A    between atoms: C_2  and  C_3
REMARK    2  A    between atoms: C_3  and  C_4
REMARK    3  A    between atoms: N_10  and  C_11
REMARK    4  A    between atoms: C_11  and  C_12
REMARK    5  A    between atoms: C_12  and  C_13
REMARK    6  A    between atoms: C_15  and  C_16
REMARK    7  A    between atoms: C_16  and  C_17
REMARK                            x       y       z     vdW  Elec       q    Type
REMARK                         _______ _______ _______ _____ _____    ______ ____
ROOT
ATOM      1  C   UNL     1       5.739   6.358  16.447  0.00  0.00    +0.000 C 
ENDROOT
BRANCH   1   4
ATOM      2  O   UNL     1       4.737   4.583  18.427  0.00  0.00    +0.000 OA
ATOM      3  C   UNL     1       4.230   5.691  18.299  0.00  0.00    +0.000 C 
ATOM      4  N   UNL     1       4.684   6.625  17.402  0.00  0.00    +0.000 N 
ATOM      5  H   UNL     1       4.250   7.550  17.425  0.00  0.00    +0.000 HD
BRANCH   3   6
ATOM      6  C   UNL     1       3.088   6.153  19.186  0.00  0.00    +0.000 C 
BRANCH   6   7
ATOM      7  C   UNL     1       2.061   5.080  19.575  0.00  0.00    +0.000 C 
ATOM      8  C   UNL     1       2.315   4.520  20.998  0.00  0.00    +0.000 C 
ATOM      9  O   UNL     1       1.340   3.525  21.344  0.00  0.00    +0.000 OA
ATOM     10  C   UNL     1       1.355   2.455  20.390  0.00  0.00    +0.000 C 
ATOM     11  C   UNL     1       1.023   2.986  18.990  0.00  0.00    +0.000 C 
ATOM     12  N   UNL     1       2.006   3.997  18.552  0.00  0.00    +0.000 NA
ATOM     13  H   UNL     1       1.686   4.394  17.665  0.00  0.00    +0.000 HD
ENDBRANCH   6   7
ENDBRANCH   3   6
ENDBRANCH   1   4
BRANCH   1  14
ATOM     14  C   UNL     1       7.074   6.124  17.139  0.00  0.00    +0.000 C 
BRANCH  14  15
ATOM     15  C   UNL     1       7.634   7.402  17.624  0.00  0.00    +0.000 A 
ATOM     16  N   UNL     1       7.460   8.617  17.158  0.00  0.00    +0.000 NA
ATOM     17  C   UNL     1       8.231   9.367  18.015  0.00  0.00    +0.000 A 
ATOM     18  N   UNL     1       8.824   8.664  18.993  0.00  0.00    +0.000 NA
ATOM     19  O   UNL     1       8.441   7.350  18.723  0.00  0.00    +0.000 OA
BRANCH  17  20
ATOM     20  C   UNL     1       8.283  10.847  17.946  0.00  0.00    +0.000 C 
BRANCH  20  21
ATOM     21  C   UNL     1       9.568  11.287  18.603  0.00  0.00    +0.000 A 
ATOM     22  C   UNL     1       9.627  11.514  19.987  0.00  0.00    +0.000 A 
ATOM     23  C   UNL     1      10.831  11.869  20.599  0.00  0.00    +0.000 A 
ATOM     24  C   UNL     1      11.989  12.010  19.835  0.00  0.00    +0.000 A 
ATOM     25  C   UNL     1      11.941  11.802  18.458  0.00  0.00    +0.000 A 
ATOM     26  C   UNL     1      10.739  11.447  17.844  0.00  0.00    +0.000 A 
ENDBRANCH  20  21
ENDBRANCH  17  20
ENDBRANCH  14  15
ENDBRANCH   1  14
TORSDOF 7
ENDMDL
MODEL 3
REMARK VINA RESULT:      -7.2      3.746      7.779
REMARK  Name = 
REMARK  7 active torsions:
REMARK  status: ('A' for Active; 'I' for Inactive)
REMARK    1  A    between atoms: C_2  and  C_3
REMARK    2  A    between atoms: C_3  and  C_4
REMARK    3  A    between atoms: N_10  and  C_11
REMARK    4  A    between atoms: C_11  and  C_12
REMARK    5  A    between atoms: C_12  and  C_13
REMARK    6  A    between atoms: C_15  and  C_16
REMARK    7  A    between atoms: C_16  and  C_17
REMARK                            x       y       z     vdW  Elec       q    Type
REMARK                         _______ _______ _______ _____ _____    ______ ____
ROOT
ATOM      1  C   UNL     1       7.641   5.883  19.164  0.00  0.00    +0.000 C 
ENDROOT
BRANCH   1   4
ATOM      2  O   UNL     1       6.669   7.738  17.243  0.00  0.00    +0.000 OA
ATOM      3  C   UNL     1       7.746   7.944  17.789  0.00  0.00    +0.000 C 
ATOM      4  N   UNL     1       8.264   7.127  18.761  0.00  0.00    +0.000 N 
ATOM      5  H   UNL     1       9.129   7.424  19.215  0.00  0.00    +0.000 HD
BRANCH   3   6
ATOM      6  C   UNL     1       8.573   9.180  17.481  0.00  0.00    +0.000 C 
BRANCH   6   7
ATOM      7  C   UNL     1       8.562  10.282  18.550  0.00  0.00    +0.000 C 
ATOM      8  C   UNL     1       9.017  11.650  17.982  0.00  0.00    +0.000 C 
ATOM      9  O   UNL     1       8.992  12.666  18.996  0.00  0.00    +0.000 OA
ATOM     10  C   UNL     1       9.829  12.294  20.099  0.00  0.00    +0.000 C 
ATOM     11  C   UNL     1       9.338  10.982  20.721  0.00  0.00    +0.000 C 
ATOM     12  N   UNL     1       9.365   9.878  19.741  0.00  0.00    +0.000 NA
ATOM     13  H   UNL     1       8.934   9.055  20.169  0.00  0.00    +0.000 HD
ENDBRANCH   6   7
ENDBRANCH   3   6
ENDBRANCH   1   4
BRANCH   1  14
ATOM     14  C   UNL     1       7.778   4.815  18.088  0.00  0.00    +0.000 C 
BRANCH  14  15
ATOM     15  C   UNL     1       6.455   4.482  17.520  0.00  0.00    +0.000 A 
ATOM     16  N   UNL     1       5.325   4.226  18.138  0.00  0.00    +0.000 NA
ATOM     17  C   UNL     1       4.470   3.988  17.087  0.00  0.00    +0.000 A 
ATOM     18  N   UNL     1       5.025   4.130  15.873  0.00  0.00    +0.000 NA
ATOM     19  O   UNL     1       6.354   4.443  16.161  0.00  0.00    +0.000 OA
BRANCH  17  20
ATOM     20  C   UNL     1       3.023   3.738  17.283  0.00  0.00    +0.000 C 
BRANCH  20  21
ATOM     21  C   UNL     1       2.554   4.635  18.403  0.00  0.00    +0.000 A 
ATOM     22  C   UNL     1       1.938   4.098  19.544  0.00  0.00    +0.000 A 
ATOM     23  C   UNL     1       1.555   4.926  20.601  0.00  0.00    +0.000 A 
ATOM     24  C   UNL     1       1.776   6.300  20.529  0.00  0.00    +0.000 A 
ATOM     25  C   UNL     1       2.373   6.848  19.395  0.00  0.00    +0.000 A 
ATOM     26  C   UNL     1       2.756   6.024  18.337  0.00  0.00    +0.000 A 
ENDBRANCH  20  21
ENDBRANCH  17  20
ENDBRANCH  14  15
ENDBRANCH   1  14
TORSDOF 7
ENDMDL
MODEL 4
REMARK VINA RESULT:      -7.2      5.708      9.582
REMARK  Name = 
REMARK  7 active torsions:
REMARK  status: ('A' for Active; 'I' for Inactive)
REMARK    1  A    between atoms: C_2  and  C_3
REMARK    2  A    between atoms: C_3  and  C_4
REMARK    3  A    between atoms: N_10  and  C_11
REMARK    4  A    between atoms: C_11  and  C_12
REMARK    5  A    between atoms: C_12  and  C_13
REMARK    6  A    between atoms: C_15  and  C_16
REMARK    7  A    between atoms: C_16  and  C_17
REMARK                            x       y       z     vdW  Elec       q    Type
REMARK                         _______ _______ _______ _____ _____    ______ ____
ROOT
ATOM      1  C   UNL     1       7.787   8.947  17.819  0.00  0.00    +0.000 C 
ENDROOT
BRANCH   1   4
ATOM      2  O   UNL     1       8.691  11.639  17.730  0.00  0.00    +0.000 OA
ATOM      3  C   UNL     1       9.274  10.830  18.443  0.00  0.00    +0.000 C 
ATOM      4  N   UNL     1       8.874   9.526  18.581  0.00  0.00    +0.000 N 
ATOM      5  H   UNL     1       9.373   8.949  19.260  0.00  0.00    +0.000 HD
BRANCH   3   6
ATOM      6  C   UNL     1      10.461  11.233  19.300  0.00  0.00    +0.000 C 
BRANCH   6   7
ATOM      7  C   UNL     1      11.349  12.352  18.737  0.00  0.00    +0.000 C 
ATOM      8  C   UNL     1      10.849  13.758  19.156  0.00  0.00    +0.000 C 
ATOM      9  O   UNL     1      11.698  14.788  18.627  0.00  0.00    +0.000 OA
ATOM     10  C   UNL     1      11.762  14.699  17.197  0.00  0.00    +0.000 C 
ATOM     11  C   UNL     1      12.333  13.341  16.773  0.00  0.00    +0.000 C 
ATOM     12  N   UNL     1      11.492  12.229  17.258  0.00  0.00    +0.000 NA
ATOM     13  H   UNL     1      11.965  11.348  17.042  0.00  0.00    +0.000 HD
ENDBRANCH   6   7
ENDBRANCH   3   6
ENDBRANCH   1   4
BRANCH   1  14
ATOM     14  C   UNL     1       7.886   7.429  17.768  0.00  0.00    +0.000 C 
BRANCH  14  15
ATOM     15  C   UNL     1       6.578   6.838  17.415  0.00  0.00    +0.000 A 
ATOM     16  N   UNL     1       5.590   6.476  18.199  0.00  0.00    +0.000 NA
ATOM     17  C   UNL     1       4.666   6.001  17.297  0.00  0.00    +0.000 A 
ATOM     18  N   UNL     1       5.040   6.099  16.012  0.00  0.00    +0.000 NA
ATOM     19  O   UNL     1       6.323   6.642  16.090  0.00  0.00    +0.000 OA
BRANCH  17  20
ATOM     20  C   UNL     1       3.315   5.553  17.708  0.00  0.00    +0.000 C 
BRANCH  20  21
ATOM     21  C   UNL     1       2.640   6.715  18.395  0.00  0.00    +0.000 A 
ATOM     22  C   UNL     1       2.285   6.640  19.751  0.00  0.00    +0.000 A 
ATOM     23  C   UNL     1       1.709   7.736  20.396  0.00  0.00    +0.000 A 
ATOM     24  C   UNL     1       1.475   8.917  19.694  0.00  0.00    +0.000 A 
ATOM     25  C   UNL     1       1.810   9.000  18.344  0.00  0.00    +0.000 A 
ATOM     26  C   UNL     1       2.384   7.906  17.696  0.00  0.00    +0.000 A 
ENDBRANCH  20  21
ENDBRANCH  17  20
ENDBRANCH  14  15
ENDBRANCH   1  14
TORSDOF 7
ENDMDL
MODEL 5
REMARK VINA RESULT:      -7.1      4.980      9.093
REMARK  Name = 
REMARK  7 active torsions:
REMARK  status: ('A' for Active; 'I' for Inactive)
REMARK    1  A    between atoms: C_2  and  C_3
REMARK    2  A    between atoms: C_3  and  C_4
REMARK    3  A    between atoms: N_10  and  C_11
REMARK    4  A    between atoms: C_11  and  C_12
REMARK    5  A    between atoms: C_12  and  C_13
REMARK    6  A    between atoms: C_15  and  C_16
REMARK    7  A    between atoms: C_16  and  C_17
REMARK                            x       y       z     vdW  Elec       q    Type
REMARK                         _______ _______ _______ _____ _____    ______ ____
ROOT
ATOM      1  C   UNL     1       7.779   7.095  17.979  0.00  0.00    +0.000 C 
ENDROOT
BRANCH   1   4
ATOM      2  O   UNL     1       7.961   9.906  17.606  0.00  0.00    +0.000 OA
ATOM      3  C   UNL     1       8.585   9.377  18.518  0.00  0.00    +0.000 C 
ATOM      4  N   UNL     1       8.514   8.036  18.798  0.00  0.00    +0.000 N 
ATOM      5  H   UNL     1       9.006   7.701  19.628  0.00  0.00    +0.000 HD
BRANCH   3   6
ATOM      6  C   UNL     1       9.443  10.188  19.473  0.00  0.00    +0.000 C 
BRANCH   6   7
ATOM      7  C   UNL     1      10.370  11.228  18.828  0.00  0.00    +0.000 C 
ATOM      8  C   UNL     1      11.308  11.897  19.865  0.00  0.00    +0.000 C 
ATOM      9  O   UNL     1      12.171  12.858  19.239  0.00  0.00    +0.000 OA
ATOM     10  C   UNL     1      11.398  13.859  18.563  0.00  0.00    +0.000 C 
ATOM     11  C   UNL     1      10.527  13.217  17.477  0.00  0.00    +0.000 C 
ATOM     12  N   UNL     1       9.588  12.234  18.053  0.00  0.00    +0.000 NA
ATOM     13  H   UNL     1       9.105  11.761  17.286  0.00  0.00    +0.000 HD
ENDBRANCH   6   7
ENDBRANCH   3   6
ENDBRANCH   1   4
BRANCH   1  14
ATOM     14  C   UNL     1       7.707   5.722  18.631  0.00  0.00    +0.000 C 
BRANCH  14  15
ATOM     15  C   UNL     1       6.301   5.288  18.767  0.00  0.00    +0.000 A 
ATOM     16  N   UNL     1       5.370   5.730  19.580  0.00  0.00    +0.000 NA
ATOM     17  C   UNL     1       4.294   4.942  19.239  0.00  0.00    +0.000 A 
ATOM     18  N   UNL     1       4.529   4.080  18.237  0.00  0.00    +0.000 NA
ATOM     19  O   UNL     1       5.873   4.298  17.932  0.00  0.00    +0.000 OA
BRANCH  17  20
ATOM     20  C   UNL     1       2.951   5.132  19.835  0.00  0.00    +0.000 C 
BRANCH  20  21
ATOM     21  C   UNL     1       2.491   6.526  19.481  0.00  0.00    +0.000 A 
ATOM     22  C   UNL     1       2.668   7.033  18.184  0.00  0.00    +0.000 A 
ATOM     23  C   UNL     1       2.193   8.302  17.846  0.00  0.00    +0.000 A 
ATOM     24  C   UNL     1       1.541   9.082  18.801  0.00  0.00    +0.000 A 
ATOM     25  C   UNL     1       1.371   8.595  20.096  0.00  0.00    +0.000 A 
ATOM     26  C   UNL     1       1.846   7.328  20.436  0.00  0.00    +0.000 A 
ENDBRANCH  20  21
ENDBRANCH  17  20
ENDBRANCH  14  15
ENDBRANCH   1  14
TORSDOF 7
ENDMDL
MODEL 6
REMARK VINA RESULT:      -7.1      3.421      8.104
REMARK  Name = 
REMARK  7 active torsions:
REMARK  status: ('A' for Active; 'I' for Inactive)
REMARK    1  A    between atoms: C_2  and  C_3
REMARK    2  A    between atoms: C_3  and  C_4
REMARK    3  A    between atoms: N_10  and  C_11
REMARK    4  A    between atoms: C_11  and  C_12
REMARK    5  A    between atoms: C_12  and  C_13
REMARK    6  A    between atoms: C_15  and  C_16
REMARK    7  A    between atoms: C_16  and  C_17
REMARK                            x       y       z     vdW  Elec       q    Type
REMARK                         _______ _______ _______ _____ _____    ______ ____
ROOT
ATOM      1  C   UNL     1       2.643   3.193  18.618  0.00  0.00    +0.000 C 
ENDROOT
BRANCH   1   4
ATOM      2  O   UNL     1       5.161   2.905  19.902  0.00  0.00    +0.000 OA
ATOM      3  C   UNL     1       4.990   3.824  19.110  0.00  0.00    +0.000 C 
ATOM      4  N   UNL     1       3.823   4.007  18.412  0.00  0.00    +0.000 N 
ATOM      5  H   UNL     1       3.803   4.753  17.715  0.00  0.00    +0.000 HD
BRANCH   3   6
ATOM      6  C   UNL     1       6.097   4.809  18.780  0.00  0.00    +0.000 C 
BRANCH   6   7
ATOM      7  C   UNL     1       6.731   4.668  17.389  0.00  0.00    +0.000 C 
ATOM      8  C   UNL     1       7.014   6.044  16.735  0.00  0.00    +0.000 C 
ATOM      9  O   UNL     1       7.614   5.888  15.440  0.00  0.00    +0.000 OA
ATOM     10  C   UNL     1       6.767   5.107  14.586  0.00  0.00    +0.000 C 
ATOM     11  C   UNL     1       6.548   3.713  15.184  0.00  0.00    +0.000 C 
ATOM     12  N   UNL     1       5.903   3.792  16.511  0.00  0.00    +0.000 NA
ATOM     13  H   UNL     1       5.872   2.852  16.912  0.00  0.00    +0.000 HD
ENDBRANCH   6   7
ENDBRANCH   3   6
ENDBRANCH   1   4
BRANCH   1  14
ATOM     14  C   UNL     1       1.478   4.021  19.141  0.00  0.00    +0.000 C 
BRANCH  14  15
ATOM     15  C   UNL     1       1.802   5.462  19.084  0.00  0.00    +0.000 A 
ATOM     16  N   UNL     1       1.876   6.256  18.041  0.00  0.00    +0.000 NA
ATOM     17  C   UNL     1       2.216   7.458  18.619  0.00  0.00    +0.000 A 
ATOM     18  N   UNL     1       2.309   7.426  19.958  0.00  0.00    +0.000 NA
ATOM     19  O   UNL     1       2.050   6.091  20.268  0.00  0.00    +0.000 OA
BRANCH  17  20
ATOM     20  C   UNL     1       2.327   8.711  17.836  0.00  0.00    +0.000 C 
BRANCH  20  21
ATOM     21  C   UNL     1       1.162   9.591  18.219  0.00  0.00    +0.000 A 
ATOM     22  C   UNL     1       1.333  10.663  19.108  0.00  0.00    +0.000 A 
ATOM     23  C   UNL     1       0.264  11.507  19.418  0.00  0.00    +0.000 A 
ATOM     24  C   UNL     1      -0.989  11.286  18.849  0.00  0.00    +0.000 A 
ATOM     25  C   UNL     1      -1.176  10.216  17.976  0.00  0.00    +0.000 A 
ATOM     26  C   UNL     1      -0.110   9.370  17.665  0.00  0.00    +0.000 A 
ENDBRANCH  20  21
ENDBRANCH  17  20
ENDBRANCH  14  15
ENDBRANCH   1  14
TORSDOF 7
ENDMDL
MODEL 7
REMARK VINA RESULT:      -7.1      3.542      7.593
REMARK  Name = 
REMARK  7 active torsions:
REMARK  status: ('A' for Active; 'I' for Inactive)
REMARK    1  A    between atoms: C_2  and  C_3
REMARK    2  A    between atoms: C_3  and  C_4
REMARK    3  A    between atoms: N_10  and  C_11
REMARK    4  A    between atoms: C_11  and  C_12
REMARK    5  A    between atoms: C_12  and  C_13
REMARK    6  A    between atoms: C_15  and  C_16
REMARK    7  A    between atoms: C_16  and  C_17
REMARK                            x       y       z     vdW  Elec       q    Type
REMARK                         _______ _______ _______ _____ _____    ______ ____
ROOT
ATOM      1  C   UNL     1       1.659   2.014  18.207  0.00  0.00    +0.000 C 
ENDROOT
BRANCH   1   4
ATOM      2  O   UNL     1       4.372   2.458  17.486  0.00  0.00    +0.000 OA
ATOM      3  C   UNL     1       3.558   3.365  17.360  0.00  0.00    +0.000 C 
ATOM      4  N   UNL     1       2.223   3.220  17.638  0.00  0.00    +0.000 N 
ATOM      5  H   UNL     1       1.609   4.008  17.425  0.00  0.00    +0.000 HD
BRANCH   3   6
ATOM      6  C   UNL     1       3.956   4.722  16.808  0.00  0.00    +0.000 C 
BRANCH   6   7
ATOM      7  C   UNL     1       5.188   5.376  17.451  0.00  0.00    +0.000 C 
ATOM      8  C   UNL     1       6.454   5.227  16.570  0.00  0.00    +0.000 C 
ATOM      9  O   UNL     1       7.591   5.851  17.185  0.00  0.00    +0.000 OA
ATOM     10  C   UNL     1       7.830   5.287  18.481  0.00  0.00    +0.000 C 
ATOM     11  C   UNL     1       6.614   5.502  19.389  0.00  0.00    +0.000 C 
ATOM     12  N   UNL     1       5.407   4.859  18.833  0.00  0.00    +0.000 NA
ATOM     13  H   UNL     1       4.606   5.115  19.415  0.00  0.00    +0.000 HD
ENDBRANCH   6   7
ENDBRANCH   3   6
ENDBRANCH   1   4
BRANCH   1  14
ATOM     14  C   UNL     1       1.327   2.194  19.681  0.00  0.00    +0.000 C 
BRANCH  14  15
ATOM     15  C   UNL     1       1.671   3.561  20.125  0.00  0.00    +0.000 A 
ATOM     16  N   UNL     1       0.889   4.602  20.293  0.00  0.00    +0.000 NA
ATOM     17  C   UNL     1       1.779   5.566  20.705  0.00  0.00    +0.000 A 
ATOM     18  N   UNL     1       3.046   5.140  20.829  0.00  0.00    +0.000 NA
ATOM     19  O   UNL     1       2.978   3.806  20.425  0.00  0.00    +0.000 OA
BRANCH  17  20
ATOM     20  C   UNL     1       1.345   6.923  21.117  0.00  0.00    +0.000 C 
BRANCH  20  21
ATOM     21  C   UNL     1       1.602   7.853  19.956  0.00  0.00    +0.000 A 
ATOM     22  C   UNL     1       2.363   7.434  18.854  0.00  0.00    +0.000 A 
ATOM     23  C   UNL     1       2.553   8.279  17.759  0.00  0.00    +0.000 A 
ATOM     24  C   UNL     1       1.992   9.555  17.754  0.00  0.00    +0.000 A 
ATOM     25  C   UNL     1       1.246   9.989  18.849  0.00  0.00    +0.000 A 
ATOM     26  C   UNL     1       1.055   9.147  19.945  0.00  0.00    +0.000 A 
ENDBRANCH  20  21
ENDBRANCH  17  20
ENDBRANCH  14  15
ENDBRANCH   1  14
TORSDOF 7
ENDMDL
MODEL 8
REMARK VINA RESULT:      -7.1      4.551      7.258
REMARK  Name = 
REMARK  7 active torsions:
REMARK  status: ('A' for Active; 'I' for Inactive)
REMARK    1  A    between atoms: C_2  and  C_3
REMARK    2  A    between atoms: C_3  and  C_4
REMARK    3  A    between atoms: N_10  and  C_11
REMARK    4  A    between atoms: C_11  and  C_12
REMARK    5  A    between atoms: C_12  and  C_13
REMARK    6  A    between atoms: C_15  and  C_16
REMARK    7  A    between atoms: C_16  and  C_17
REMARK                            x       y       z     vdW  Elec       q    Type
REMARK                         _______ _______ _______ _____ _____    ______ ____
ROOT
ATOM      1  C   UNL     1       6.558   5.264  18.488  0.00  0.00    +0.000 C 
ENDROOT
BRANCH   1   4
ATOM      2  O   UNL     1       4.120   6.499  17.711  0.00  0.00    +0.000 OA
ATOM      3  C   UNL     1       4.170   5.280  17.820  0.00  0.00    +0.000 C 
ATOM      4  N   UNL     1       5.318   4.601  18.143  0.00  0.00    +0.000 N 
ATOM      5  H   UNL     1       5.281   3.580  18.130  0.00  0.00    +0.000 HD
BRANCH   3   6
ATOM      6  C   UNL     1       2.964   4.403  17.532  0.00  0.00    +0.000 C 
BRANCH   6   7
ATOM      7  C   UNL     1       2.319   3.724  18.748  0.00  0.00    +0.000 C 
ATOM      8  C   UNL     1       1.538   4.729  19.631  0.00  0.00    +0.000 C 
ATOM      9  O   UNL     1       0.937   4.072  20.757  0.00  0.00    +0.000 OA
ATOM     10  C   UNL     1       1.937   3.408  21.542  0.00  0.00    +0.000 C 
ATOM     11  C   UNL     1       2.661   2.352  20.699  0.00  0.00    +0.000 C 
ATOM     12  N   UNL     1       3.332   2.961  19.534  0.00  0.00    +0.000 NA
ATOM     13  H   UNL     1       3.710   2.211  18.950  0.00  0.00    +0.000 HD
ENDBRANCH   6   7
ENDBRANCH   3   6
ENDBRANCH   1   4
BRANCH   1  14
ATOM     14  C   UNL     1       7.144   6.010  17.298  0.00  0.00    +0.000 C 
BRANCH  14  15
ATOM     15  C   UNL     1       7.701   7.310  17.727  0.00  0.00    +0.000 A 
ATOM     16  N   UNL     1       7.521   8.503  17.210  0.00  0.00    +0.000 NA
ATOM     17  C   UNL     1       8.291   9.292  18.032  0.00  0.00    +0.000 A 
ATOM     18  N   UNL     1       8.889   8.633  19.038  0.00  0.00    +0.000 NA
ATOM     19  O   UNL     1       8.509   7.308  18.826  0.00  0.00    +0.000 OA
BRANCH  17  20
ATOM     20  C   UNL     1       8.338  10.767  17.900  0.00  0.00    +0.000 C 
BRANCH  20  21
ATOM     21  C   UNL     1       9.597  11.245  18.582  0.00  0.00    +0.000 A 
ATOM     22  C   UNL     1      10.768  11.481  17.844  0.00  0.00    +0.000 A 
ATOM     23  C   UNL     1      11.915  11.974  18.470  0.00  0.00    +0.000 A 
ATOM     24  C   UNL     1      11.908  12.231  19.840  0.00  0.00    +0.000 A 
ATOM     25  C   UNL     1      10.757  11.987  20.586  0.00  0.00    +0.000 A 
ATOM     26  C   UNL     1       9.610  11.493  19.964  0.00  0.00    +0.000 A 
ENDBRANCH  20  21
ENDBRANCH  17  20
ENDBRANCH  14  15
ENDBRANCH   1  14
TORSDOF 7
ENDMDL
MODEL 9
REMARK VINA RESULT:      -7.1      3.363      7.848
REMARK  Name = 
REMARK  7 active torsions:
REMARK  status: ('A' for Active; 'I' for Inactive)
REMARK    1  A    between atoms: C_2  and  C_3
REMARK    2  A    between atoms: C_3  and  C_4
REMARK    3  A    between atoms: N_10  and  C_11
REMARK    4  A    between atoms: C_11  and  C_12
REMARK    5  A    between atoms: C_12  and  C_13
REMARK    6  A    between atoms: C_15  and  C_16
REMARK    7  A    between atoms: C_16  and  C_17
REMARK                            x       y       z     vdW  Elec       q    Type
REMARK                         _______ _______ _______ _____ _____    ______ ____
ROOT
ATOM      1  C   UNL     1       1.738   2.275  19.777  0.00  0.00    +0.000 C 
ENDROOT
BRANCH   1   4
ATOM      2  O   UNL     1       1.983   2.878  17.011  0.00  0.00    +0.000 OA
ATOM      3  C   UNL     1       2.993   2.755  17.693  0.00  0.00    +0.000 C 
ATOM      4  N   UNL     1       2.964   2.513  19.043  0.00  0.00    +0.000 N 
ATOM      5  H   UNL     1       3.856   2.507  19.540  0.00  0.00    +0.000 HD
BRANCH   3   6
ATOM      6  C   UNL     1       4.381   2.935  17.102  0.00  0.00    +0.000 C 
BRANCH   6   7
ATOM      7  C   UNL     1       5.136   4.201  17.531  0.00  0.00    +0.000 C 
ATOM      8  C   UNL     1       6.176   4.647  16.472  0.00  0.00    +0.000 C 
ATOM      9  O   UNL     1       6.864   5.835  16.889  0.00  0.00    +0.000 OA
ATOM     10  C   UNL     1       7.513   5.622  18.150  0.00  0.00    +0.000 C 
ATOM     11  C   UNL     1       6.483   5.261  19.226  0.00  0.00    +0.000 C 
ATOM     12  N   UNL     1       5.753   4.025  18.878  0.00  0.00    +0.000 NA
ATOM     13  H   UNL     1       5.011   3.883  19.567  0.00  0.00    +0.000 HD
ENDBRANCH   6   7
ENDBRANCH   3   6
ENDBRANCH   1   4
BRANCH   1  14
ATOM     14  C   UNL     1       1.262   3.531  20.491  0.00  0.00    +0.000 C 
BRANCH  14  15
ATOM     15  C   UNL     1       1.932   4.726  19.936  0.00  0.00    +0.000 A 
ATOM     16  N   UNL     1       1.514   5.559  19.011  0.00  0.00    +0.000 NA
ATOM     17  C   UNL     1       2.564   6.445  18.927  0.00  0.00    +0.000 A 
ATOM     18  N   UNL     1       3.567   6.203  19.785  0.00  0.00    +0.000 NA
ATOM     19  O   UNL     1       3.155   5.046  20.447  0.00  0.00    +0.000 OA
BRANCH  17  20
ATOM     20  C   UNL     1       2.519   7.647  18.062  0.00  0.00    +0.000 C 
BRANCH  20  21
ATOM     21  C   UNL     1       1.608   8.651  18.725  0.00  0.00    +0.000 A 
ATOM     22  C   UNL     1       0.882   9.577  17.961  0.00  0.00    +0.000 A 
ATOM     23  C   UNL     1      -0.002  10.469  18.574  0.00  0.00    +0.000 A 
ATOM     24  C   UNL     1      -0.165  10.450  19.958  0.00  0.00    +0.000 A 
ATOM     25  C   UNL     1       0.561   9.545  20.730  0.00  0.00    +0.000 A 
ATOM     26  C   UNL     1       1.445   8.654  20.121  0.00  0.00    +0.000 A 
ENDBRANCH  20  21
ENDBRANCH  17  20
ENDBRANCH  14  15
ENDBRANCH   1  14
TORSDOF 7
ENDMDL
