MODEL 1
REMARK VINA RESULT:      -7.2      0.000      0.000
REMARK  Name = 
REMARK  6 active torsions:
REMARK  status: ('A' for Active; 'I' for Inactive)
REMARK    1  A    between atoms: C_1  and  C_2
REMARK    2  A    between atoms: C_5  and  O_6
REMARK    3  A    between atoms: O_6  and  C_7
REMARK    4  A    between atoms: C_13  and  C_14
REMARK    5  A    between atoms: C_14  and  C_15
REMARK    6  A    between atoms: C_15  and  O_17
REMARK                            x       y       z     vdW  Elec       q    Type
REMARK                         _______ _______ _______ _____ _____    ______ ____
ROOT
ATOM      1  C   UNL     1       3.513   3.642  19.137  0.00  0.00    +0.000 A 
ATOM      2  C   UNL     1       3.587   2.676  20.163  0.00  0.00    +0.000 A 
ATOM      3 CL   UNL     1       4.809   1.449  20.163  0.00  0.00    +0.000 Cl
ATOM      4  C   UNL     1       2.671   2.670  21.217  0.00  0.00    +0.000 A 
ATOM      5  C   UNL     1       1.670   3.632  21.260  0.00  0.00    +0.000 A 
ATOM      6  C   UNL     1       1.556   4.567  20.231  0.00  0.00    +0.000 A 
ATOM      7  C   UNL     1       2.431   4.563  19.123  0.00  0.00    +0.000 A 
ENDROOT
BRANCH   1   8
ATOM      8  O   UNL     1       4.501   3.529  18.173  0.00  0.00    +0.000 OA
BRANCH   8  13
ATOM      9  C   UNL     1       7.997   7.929  17.635  0.00  0.00    +0.000 C 
ATOM     10  C   UNL     1       7.214   6.659  17.793  0.00  0.00    +0.000 A 
ATOM     11  C   UNL     1       6.986   6.101  19.057  0.00  0.00    +0.000 A 
ATOM     12  C   UNL     1       6.163   4.979  19.201  0.00  0.00    +0.000 A 
ATOM     13  C   UNL     1       5.511   4.455  18.082  0.00  0.00    +0.000 A 
ATOM     14  C   UNL     1       5.845   4.919  16.805  0.00  0.00    +0.000 A 
ATOM     15 CL   UNL     1       5.157   4.220  15.385  0.00  0.00    +0.000 Cl
ATOM     16  C   UNL     1       6.690   6.021  16.660  0.00  0.00    +0.000 A 
ENDBRANCH   8  13
ENDBRANCH   1   8
BRANCH   7  17
ATOM     17  C   UNL     1       2.210   5.593  18.028  0.00  0.00    +0.000 C 
BRANCH  17  18
ATOM     18  C   UNL     1       2.780   6.973  18.257  0.00  0.00    +0.000 C 
ATOM     19  O   UNL     1       3.658   7.467  17.568  0.00  0.00    +0.000 OA
BRANCH  18  20
ATOM     20  O   UNL     1       2.200   7.644  19.278  0.00  0.00    +0.000 OA
ATOM     21  H   UNL     1       2.724   7.622  20.104  0.00  0.00    +0.000 HD
ENDBRANCH  18  20
ENDBRANCH  17  18
ENDBRANCH   7  17
TORSDOF 5
ENDMDL
MODEL 2
REMARK VINA RESULT:      -7.1      0.906      1.148
REMARK  Name = 
REMARK  6 active torsions:
REMARK  status: ('A' for Active; 'I' for Inactive)
REMARK    1  A    between atoms: C_1  and  C_2
REMARK    2  A    between atoms: C_5  and  O_6
REMARK    3  A    between atoms: O_6  and  C_7
REMARK    4  A    between atoms: C_13  and  C_14
REMARK    5  A    between atoms: C_14  and  C_15
REMARK    6  A    between atoms: C_15  and  O_17
REMARK                            x       y       z     vdW  Elec       q    Type
REMARK                         _______ _______ _______ _____ _____    ______ ____
ROOT
ATOM      1  C   UNL     1       2.990   3.530  18.287  0.00  0.00    +0.000 A 
ATOM      2  C   UNL     1       2.894   2.280  18.933  0.00  0.00    +0.000 A 
ATOM      3 CL   UNL     1       3.968   0.976  18.546  0.00  0.00    +0.000 Cl
ATOM      4  C   UNL     1       1.924   2.042  19.909  0.00  0.00    +0.000 A 
ATOM      5  C   UNL     1       1.038   3.055  20.253  0.00  0.00    +0.000 A 
ATOM      6  C   UNL     1       1.090   4.283  19.592  0.00  0.00    +0.000 A 
ATOM      7  C   UNL     1       2.022   4.534  18.562  0.00  0.00    +0.000 A 
ENDROOT
BRANCH   1   8
ATOM      8  O   UNL     1       4.014   3.616  17.358  0.00  0.00    +0.000 OA
BRANCH   8  13
ATOM      9  C   UNL     1       8.094   7.427  18.201  0.00  0.00    +0.000 C 
ATOM     10  C   UNL     1       7.135   6.290  18.001  0.00  0.00    +0.000 A 
ATOM     11  C   UNL     1       6.585   5.606  19.091  0.00  0.00    +0.000 A 
ATOM     12  C   UNL     1       5.609   4.622  18.895  0.00  0.00    +0.000 A 
ATOM     13  C   UNL     1       5.135   4.371  17.606  0.00  0.00    +0.000 A 
ATOM     14  C   UNL     1       5.778   4.948  16.506  0.00  0.00    +0.000 A 
ATOM     15 CL   UNL     1       5.306   4.573  14.889  0.00  0.00    +0.000 Cl
ATOM     16  C   UNL     1       6.772   5.909  16.702  0.00  0.00    +0.000 A 
ENDBRANCH   8  13
ENDBRANCH   1   8
BRANCH   7  17
ATOM     17  C   UNL     1       1.984   5.885  17.869  0.00  0.00    +0.000 C 
BRANCH  17  18
ATOM     18  C   UNL     1       2.698   7.027  18.552  0.00  0.00    +0.000 C 
ATOM     19  O   UNL     1       2.445   7.405  19.685  0.00  0.00    +0.000 OA
BRANCH  18  20
ATOM     20  O   UNL     1       3.686   7.579  17.811  0.00  0.00    +0.000 OA
ATOM     21  H   UNL     1       4.071   6.962  17.157  0.00  0.00    +0.000 HD
ENDBRANCH  18  20
ENDBRANCH  17  18
ENDBRANCH   7  17
TORSDOF 5
ENDMDL
MODEL 3
REMARK VINA RESULT:      -7.0      1.695      2.271
REMARK  Name = 
REMARK  6 active torsions:
REMARK  status: ('A' for Active; 'I' for Inactive)
REMARK    1  A    between atoms: C_1  and  C_2
REMARK    2  A    between atoms: C_5  and  O_6
REMARK    3  A    between atoms: O_6  and  C_7
REMARK    4  A    between atoms: C_13  and  C_14
REMARK    5  A    between atoms: C_14  and  C_15
REMARK    6  A    between atoms: C_15  and  O_17
REMARK                            x       y       z     vdW  Elec       q    Type
REMARK                         _______ _______ _______ _____ _____    ______ ____
ROOT
ATOM      1  C   UNL     1       3.425   3.660  19.398  0.00  0.00    +0.000 A 
ATOM      2  C   UNL     1       2.891   2.370  19.197  0.00  0.00    +0.000 A 
ATOM      3 CL   UNL     1       3.870   1.066  18.612  0.00  0.00    +0.000 Cl
ATOM      4  C   UNL     1       1.547   2.096  19.456  0.00  0.00    +0.000 A 
ATOM      5  C   UNL     1       0.719   3.109  19.924  0.00  0.00    +0.000 A 
ATOM      6  C   UNL     1       1.221   4.401  20.086  0.00  0.00    +0.000 A 
ATOM      7  C   UNL     1       2.561   4.723  19.777  0.00  0.00    +0.000 A 
ENDROOT
BRANCH   1   8
ATOM      8  O   UNL     1       4.777   3.770  19.114  0.00  0.00    +0.000 OA
BRANCH   8  13
ATOM      9  C   UNL     1       7.209   5.068  14.187  0.00  0.00    +0.000 C 
ATOM     10  C   UNL     1       6.453   4.860  15.466  0.00  0.00    +0.000 A 
ATOM     11  C   UNL     1       5.225   4.188  15.481  0.00  0.00    +0.000 A 
ATOM     12  C   UNL     1       4.584   3.904  16.692  0.00  0.00    +0.000 A 
ATOM     13  C   UNL     1       5.210   4.235  17.896  0.00  0.00    +0.000 A 
ATOM     14  C   UNL     1       6.362   5.028  17.883  0.00  0.00    +0.000 A 
ATOM     15 CL   UNL     1       7.101   5.565  19.347  0.00  0.00    +0.000 Cl
ATOM     16  C   UNL     1       6.986   5.336  16.672  0.00  0.00    +0.000 A 
ENDBRANCH   8  13
ENDBRANCH   1   8
BRANCH   7  17
ATOM     17  C   UNL     1       3.013   6.163  19.946  0.00  0.00    +0.000 C 
BRANCH  17  18
ATOM     18  C   UNL     1       2.698   7.118  18.819  0.00  0.00    +0.000 C 
ATOM     19  O   UNL     1       3.061   6.949  17.666  0.00  0.00    +0.000 OA
BRANCH  18  20
ATOM     20  O   UNL     1       1.934   8.171  19.188  0.00  0.00    +0.000 OA
ATOM     21  H   UNL     1       1.019   7.921  19.426  0.00  0.00    +0.000 HD
ENDBRANCH  18  20
ENDBRANCH  17  18
ENDBRANCH   7  17
TORSDOF 5
ENDMDL
MODEL 4
REMARK VINA RESULT:      -7.0      2.363      5.257
REMARK  Name = 
REMARK  6 active torsions:
REMARK  status: ('A' for Active; 'I' for Inactive)
REMARK    1  A    between atoms: C_1  and  C_2
REMARK    2  A    between atoms: C_5  and  O_6
REMARK    3  A    between atoms: O_6  and  C_7
REMARK    4  A    between atoms: C_13  and  C_14
REMARK    5  A    between atoms: C_14  and  C_15
REMARK    6  A    between atoms: C_15  and  O_17
REMARK                            x       y       z     vdW  Elec       q    Type
REMARK                         _______ _______ _______ _____ _____    ______ ____
ROOT
ATOM      1  C   UNL     1       5.134   4.357  18.192  0.00  0.00    +0.000 A 
ATOM      2  C   UNL     1       6.449   4.852  18.067  0.00  0.00    +0.000 A 
ATOM      3 CL   UNL     1       7.264   5.604  19.398  0.00  0.00    +0.000 Cl
ATOM      4  C   UNL     1       7.144   4.760  16.859  0.00  0.00    +0.000 A 
ATOM      5  C   UNL     1       6.532   4.168  15.761  0.00  0.00    +0.000 A 
ATOM      6  C   UNL     1       5.217   3.713  15.856  0.00  0.00    +0.000 A 
ATOM      7  C   UNL     1       4.469   3.844  17.046  0.00  0.00    +0.000 A 
ENDROOT
BRANCH   1   8
ATOM      8  O   UNL     1       4.586   4.504  19.456  0.00  0.00    +0.000 OA
BRANCH   8  13
ATOM      9  C   UNL     1       0.509   8.032  21.131  0.00  0.00    +0.000 C 
ATOM     10  C   UNL     1       1.494   7.067  20.540  0.00  0.00    +0.000 A 
ATOM     11  C   UNL     1       2.404   7.471  19.557  0.00  0.00    +0.000 A 
ATOM     12  C   UNL     1       3.389   6.591  19.094  0.00  0.00    +0.000 A 
ATOM     13  C   UNL     1       3.504   5.324  19.668  0.00  0.00    +0.000 A 
ATOM     14  C   UNL     1       2.514   4.867  20.545  0.00  0.00    +0.000 A 
ATOM     15 CL   UNL     1       2.547   3.265  21.185  0.00  0.00    +0.000 Cl
ATOM     16  C   UNL     1       1.514   5.737  20.984  0.00  0.00    +0.000 A 
ENDBRANCH   8  13
ENDBRANCH   1   8
BRANCH   7  17
ATOM     17  C   UNL     1       3.030   3.357  17.049  0.00  0.00    +0.000 C 
BRANCH  17  18
ATOM     18  C   UNL     1       2.733   2.097  17.828  0.00  0.00    +0.000 C 
ATOM     19  O   UNL     1       3.594   1.329  18.228  0.00  0.00    +0.000 OA
BRANCH  18  20
ATOM     20  O   UNL     1       1.420   1.908  18.088  0.00  0.00    +0.000 OA
ATOM     21  H   UNL     1       1.007   1.223  17.524  0.00  0.00    +0.000 HD
ENDBRANCH  18  20
ENDBRANCH  17  18
ENDBRANCH   7  17
TORSDOF 5
ENDMDL
MODEL 5
REMARK VINA RESULT:      -6.9      1.873      2.531
REMARK  Name = 
REMARK  6 active torsions:
REMARK  status: ('A' for Active; 'I' for Inactive)
REMARK    1  A    between atoms: C_1  and  C_2
REMARK    2  A    between atoms: C_5  and  O_6
REMARK    3  A    between atoms: O_6  and  C_7
REMARK    4  A    between atoms: C_13  and  C_14
REMARK    5  A    between atoms: C_14  and  C_15
REMARK    6  A    between atoms: C_15  and  O_17
REMARK                            x       y       z     vdW  Elec       q    Type
REMARK                         _______ _______ _______ _____ _____    ______ ____
ROOT
ATOM      1  C   UNL     1       3.555   4.617  19.834  0.00  0.00    +0.000 A 
ATOM      2  C   UNL     1       3.328   3.264  20.163  0.00  0.00    +0.000 A 
ATOM      3 CL   UNL     1       4.588   2.081  20.043  0.00  0.00    +0.000 Cl
ATOM      4  C   UNL     1       2.075   2.824  20.593  0.00  0.00    +0.000 A 
ATOM      5  C   UNL     1       1.031   3.735  20.704  0.00  0.00    +0.000 A 
ATOM      6  C   UNL     1       1.226   5.068  20.341  0.00  0.00    +0.000 A 
ATOM      7  C   UNL     1       2.466   5.530  19.847  0.00  0.00    +0.000 A 
ENDROOT
BRANCH   1   8
ATOM      8  O   UNL     1       4.853   4.901  19.443  0.00  0.00    +0.000 OA
BRANCH   8  13
ATOM      9  C   UNL     1       6.690   4.154  14.157  0.00  0.00    +0.000 C 
ATOM     10  C   UNL     1       6.146   4.514  15.508  0.00  0.00    +0.000 A 
ATOM     11  C   UNL     1       4.781   4.400  15.793  0.00  0.00    +0.000 A 
ATOM     12  C   UNL     1       4.302   4.632  17.088  0.00  0.00    +0.000 A 
ATOM     13  C   UNL     1       5.206   4.913  18.115  0.00  0.00    +0.000 A 
ATOM     14  C   UNL     1       6.547   5.165  17.809  0.00  0.00    +0.000 A 
ATOM     15 CL   UNL     1       7.675   5.635  19.027  0.00  0.00    +0.000 Cl
ATOM     16  C   UNL     1       7.018   4.962  16.510  0.00  0.00    +0.000 A 
ENDBRANCH   8  13
ENDBRANCH   1   8
BRANCH   7  17
ATOM     17  C   UNL     1       2.578   6.989  19.439  0.00  0.00    +0.000 C 
BRANCH  17  18
ATOM     18  C   UNL     1       1.753   7.986  20.217  0.00  0.00    +0.000 C 
ATOM     19  O   UNL     1       1.015   8.808  19.698  0.00  0.00    +0.000 OA
BRANCH  18  20
ATOM     20  O   UNL     1       1.866   7.863  21.559  0.00  0.00    +0.000 OA
ATOM     21  H   UNL     1       2.765   8.055  21.892  0.00  0.00    +0.000 HD
ENDBRANCH  18  20
ENDBRANCH  17  18
ENDBRANCH   7  17
TORSDOF 5
ENDMDL
MODEL 6
REMARK VINA RESULT:      -6.9      2.380      3.918
REMARK  Name = 
REMARK  6 active torsions:
REMARK  status: ('A' for Active; 'I' for Inactive)
REMARK    1  A    between atoms: C_1  and  C_2
REMARK    2  A    between atoms: C_5  and  O_6
REMARK    3  A    between atoms: O_6  and  C_7
REMARK    4  A    between atoms: C_13  and  C_14
REMARK    5  A    between atoms: C_14  and  C_15
REMARK    6  A    between atoms: C_15  and  O_17
REMARK                            x       y       z     vdW  Elec       q    Type
REMARK                         _______ _______ _______ _____ _____    ______ ____
ROOT
ATOM      1  C   UNL     1       3.297   4.827  19.873  0.00  0.00    +0.000 A 
ATOM      2  C   UNL     1       2.195   5.676  20.107  0.00  0.00    +0.000 A 
ATOM      3 CL   UNL     1       2.349   7.400  20.026  0.00  0.00    +0.000 Cl
ATOM      4  C   UNL     1       0.937   5.159  20.418  0.00  0.00    +0.000 A 
ATOM      5  C   UNL     1       0.763   3.782  20.497  0.00  0.00    +0.000 A 
ATOM      6  C   UNL     1       1.852   2.930  20.313  0.00  0.00    +0.000 A 
ATOM      7  C   UNL     1       3.149   3.425  20.054  0.00  0.00    +0.000 A 
ENDROOT
BRANCH   1   8
ATOM      8  O   UNL     1       4.473   5.489  19.558  0.00  0.00    +0.000 OA
BRANCH   8  13
ATOM      9  C   UNL     1       6.863   4.371  14.566  0.00  0.00    +0.000 C 
ATOM     10  C   UNL     1       6.211   4.836  15.835  0.00  0.00    +0.000 A 
ATOM     11  C   UNL     1       4.822   4.983  15.925  0.00  0.00    +0.000 A 
ATOM     12  C   UNL     1       4.218   5.310  17.145  0.00  0.00    +0.000 A 
ATOM     13  C   UNL     1       5.005   5.424  18.293  0.00  0.00    +0.000 A 
ATOM     14  C   UNL     1       6.399   5.417  18.182  0.00  0.00    +0.000 A 
ATOM     15 CL   UNL     1       7.413   5.676  19.554  0.00  0.00    +0.000 Cl
ATOM     16  C   UNL     1       7.002   5.120  16.958  0.00  0.00    +0.000 A 
ENDBRANCH   8  13
ENDBRANCH   1   8
BRANCH   7  17
ATOM     17  C   UNL     1       4.284   2.427  19.905  0.00  0.00    +0.000 C 
BRANCH  17  18
ATOM     18  C   UNL     1       4.183   1.436  18.770  0.00  0.00    +0.000 C 
ATOM     19  O   UNL     1       3.677   1.693  17.689  0.00  0.00    +0.000 OA
BRANCH  18  20
ATOM     20  O   UNL     1       4.747   0.236  19.036  0.00  0.00    +0.000 OA
ATOM     21  H   UNL     1       5.125  -0.198  18.245  0.00  0.00    +0.000 HD
ENDBRANCH  18  20
ENDBRANCH  17  18
ENDBRANCH   7  17
TORSDOF 5
ENDMDL
MODEL 7
REMARK VINA RESULT:      -6.8      2.354      5.201
REMARK  Name = 
REMARK  6 active torsions:
REMARK  status: ('A' for Active; 'I' for Inactive)
REMARK    1  A    between atoms: C_1  and  C_2
REMARK    2  A    between atoms: C_5  and  O_6
REMARK    3  A    between atoms: O_6  and  C_7
REMARK    4  A    between atoms: C_13  and  C_14
REMARK    5  A    between atoms: C_14  and  C_15
REMARK    6  A    between atoms: C_15  and  O_17
REMARK                            x       y       z     vdW  Elec       q    Type
REMARK                         _______ _______ _______ _____ _____    ______ ____
ROOT
ATOM      1  C   UNL     1       5.283   4.793  17.690  0.00  0.00    +0.000 A 
ATOM      2  C   UNL     1       4.622   3.966  16.757  0.00  0.00    +0.000 A 
ATOM      3 CL   UNL     1       2.996   3.429  17.017  0.00  0.00    +0.000 Cl
ATOM      4  C   UNL     1       5.257   3.544  15.587  0.00  0.00    +0.000 A 
ATOM      5  C   UNL     1       6.563   3.946  15.334  0.00  0.00    +0.000 A 
ATOM      6  C   UNL     1       7.246   4.727  16.267  0.00  0.00    +0.000 A 
ATOM      7  C   UNL     1       6.651   5.121  17.485  0.00  0.00    +0.000 A 
ENDROOT
BRANCH   1   8
ATOM      8  O   UNL     1       4.516   5.142  18.789  0.00  0.00    +0.000 OA
BRANCH   8  13
ATOM      9  C   UNL     1       1.123   9.640  19.155  0.00  0.00    +0.000 C 
ATOM     10  C   UNL     1       1.913   8.384  18.933  0.00  0.00    +0.000 A 
ATOM     11  C   UNL     1       2.799   8.265  17.856  0.00  0.00    +0.000 A 
ATOM     12  C   UNL     1       3.610   7.133  17.722  0.00  0.00    +0.000 A 
ATOM     13  C   UNL     1       3.582   6.146  18.711  0.00  0.00    +0.000 A 
ATOM     14  C   UNL     1       2.603   6.193  19.709  0.00  0.00    +0.000 A 
ATOM     15 CL   UNL     1       2.451   4.934  20.880  0.00  0.00    +0.000 Cl
ATOM     16  C   UNL     1       1.773   7.310  19.824  0.00  0.00    +0.000 A 
ENDBRANCH   8  13
ENDBRANCH   1   8
BRANCH   7  17
ATOM     17  C   UNL     1       7.481   5.938  18.460  0.00  0.00    +0.000 C 
BRANCH  17  18
ATOM     18  C   UNL     1       7.804   7.359  18.065  0.00  0.00    +0.000 C 
ATOM     19  O   UNL     1       7.291   7.932  17.116  0.00  0.00    +0.000 OA
BRANCH  18  20
ATOM     20  O   UNL     1       8.688   7.970  18.885  0.00  0.00    +0.000 OA
ATOM     21  H   UNL     1       8.591   7.711  19.823  0.00  0.00    +0.000 HD
ENDBRANCH  18  20
ENDBRANCH  17  18
ENDBRANCH   7  17
TORSDOF 5
ENDMDL
MODEL 8
REMARK VINA RESULT:      -6.8      2.530      4.034
REMARK  Name = 
REMARK  6 active torsions:
REMARK  status: ('A' for Active; 'I' for Inactive)
REMARK    1  A    between atoms: C_1  and  C_2
REMARK    2  A    between atoms: C_5  and  O_6
REMARK    3  A    between atoms: O_6  and  C_7
REMARK    4  A    between atoms: C_13  and  C_14
REMARK    5  A    between atoms: C_14  and  C_15
REMARK    6  A    between atoms: C_15  and  O_17
REMARK                            x       y       z     vdW  Elec       q    Type
REMARK                         _______ _______ _______ _____ _____    ______ ____
ROOT
ATOM      1  C   UNL     1       3.410   5.087  19.714  0.00  0.00    +0.000 A 
ATOM      2  C   UNL     1       2.201   5.712  20.085  0.00  0.00    +0.000 A 
ATOM      3 CL   UNL     1       2.058   7.437  20.148  0.00  0.00    +0.000 Cl
ATOM      4  C   UNL     1       1.072   4.962  20.421  0.00  0.00    +0.000 A 
ATOM      5  C   UNL     1       1.138   3.575  20.388  0.00  0.00    +0.000 A 
ATOM      6  C   UNL     1       2.338   2.940  20.067  0.00  0.00    +0.000 A 
ATOM      7  C   UNL     1       3.511   3.670  19.778  0.00  0.00    +0.000 A 
ENDROOT
BRANCH   1   8
ATOM      8  O   UNL     1       4.432   5.964  19.390  0.00  0.00    +0.000 OA
BRANCH   8  13
ATOM      9  C   UNL     1       7.071   4.809  14.535  0.00  0.00    +0.000 C 
ATOM     10  C   UNL     1       6.385   5.288  15.781  0.00  0.00    +0.000 A 
ATOM     11  C   UNL     1       5.036   5.658  15.769  0.00  0.00    +0.000 A 
ATOM     12  C   UNL     1       4.380   5.997  16.958  0.00  0.00    +0.000 A 
ATOM     13  C   UNL     1       5.063   5.898  18.172  0.00  0.00    +0.000 A 
ATOM     14  C   UNL     1       6.443   5.667  18.175  0.00  0.00    +0.000 A 
ATOM     15 CL   UNL     1       7.351   5.657  19.642  0.00  0.00    +0.000 Cl
ATOM     16  C   UNL     1       7.103   5.357  16.983  0.00  0.00    +0.000 A 
ENDBRANCH   8  13
ENDBRANCH   1   8
BRANCH   7  17
ATOM     17  C   UNL     1       4.784   2.898  19.476  0.00  0.00    +0.000 C 
BRANCH  17  18
ATOM     18  C   UNL     1       4.955   1.562  20.159  0.00  0.00    +0.000 C 
ATOM     19  O   UNL     1       5.220   1.435  21.344  0.00  0.00    +0.000 OA
BRANCH  18  20
ATOM     20  O   UNL     1       4.743   0.500  19.350  0.00  0.00    +0.000 OA
ATOM     21  H   UNL     1       4.411   0.748  18.464  0.00  0.00    +0.000 HD
ENDBRANCH  18  20
ENDBRANCH  17  18
ENDBRANCH   7  17
TORSDOF 5
ENDMDL
MODEL 9
REMARK VINA RESULT:      -6.6      2.445      5.306
REMARK  Name = 
REMARK  6 active torsions:
REMARK  status: ('A' for Active; 'I' for Inactive)
REMARK    1  A    between atoms: C_1  and  C_2
REMARK    2  A    between atoms: C_5  and  O_6
REMARK    3  A    between atoms: O_6  and  C_7
REMARK    4  A    between atoms: C_13  and  C_14
REMARK    5  A    between atoms: C_14  and  C_15
REMARK    6  A    between atoms: C_15  and  O_17
REMARK                            x       y       z     vdW  Elec       q    Type
REMARK                         _______ _______ _______ _____ _____    ______ ____
ROOT
ATOM      1  C   UNL     1       5.160   4.881  17.544  0.00  0.00    +0.000 A 
ATOM      2  C   UNL     1       6.419   5.398  17.174  0.00  0.00    +0.000 A 
ATOM      3 CL   UNL     1       7.206   6.623  18.113  0.00  0.00    +0.000 Cl
ATOM      4  C   UNL     1       7.079   4.945  16.030  0.00  0.00    +0.000 A 
ATOM      5  C   UNL     1       6.488   3.965  15.242  0.00  0.00    +0.000 A 
ATOM      6  C   UNL     1       5.223   3.475  15.569  0.00  0.00    +0.000 A 
ATOM      7  C   UNL     1       4.506   3.955  16.687  0.00  0.00    +0.000 A 
ENDROOT
BRANCH   1   8
ATOM      8  O   UNL     1       4.643   5.417  18.712  0.00  0.00    +0.000 OA
BRANCH   8  13
ATOM      9  C   UNL     1       0.909   9.614  19.273  0.00  0.00    +0.000 C 
ATOM     10  C   UNL     1       1.793   8.433  18.998  0.00  0.00    +0.000 A 
ATOM     11  C   UNL     1       2.673   8.425  17.909  0.00  0.00    +0.000 A 
ATOM     12  C   UNL     1       3.570   7.366  17.727  0.00  0.00    +0.000 A 
ATOM     13  C   UNL     1       3.632   6.346  18.679  0.00  0.00    +0.000 A 
ATOM     14  C   UNL     1       2.664   6.278  19.687  0.00  0.00    +0.000 A 
ATOM     15 CL   UNL     1       2.625   4.970  20.812  0.00  0.00    +0.000 Cl
ATOM     16  C   UNL     1       1.749   7.321  19.850  0.00  0.00    +0.000 A 
ENDBRANCH   8  13
ENDBRANCH   1   8
BRANCH   7  17
ATOM     17  C   UNL     1       3.119   3.394  16.947  0.00  0.00    +0.000 C 
BRANCH  17  18
ATOM     18  C   UNL     1       2.997   2.329  18.012  0.00  0.00    +0.000 C 
ATOM     19  O   UNL     1       2.037   2.224  18.759  0.00  0.00    +0.000 OA
BRANCH  18  20
ATOM     20  O   UNL     1       4.035   1.463  18.044  0.00  0.00    +0.000 OA
ATOM     21  H   UNL     1       4.854   1.852  18.411  0.00  0.00    +0.000 HD
ENDBRANCH  18  20
ENDBRANCH  17  18
ENDBRANCH   7  17
TORSDOF 5
ENDMDL
