MODEL 1
REMARK VINA RESULT:      -9.2      0.000      0.000
REMARK  Name = 
REMARK  4 active torsions:
REMARK  status: ('A' for Active; 'I' for Inactive)
REMARK    1  A    between atoms: C_1  and  C_2
REMARK    2  A    between atoms: C_8  and  C_9
REMARK    3  A    between atoms: C_13  and  N_14
REMARK    4  A    between atoms: C_15  and  C_17
REMARK                            x       y       z     vdW  Elec       q    Type
REMARK                         _______ _______ _______ _____ _____    ______ ____
ROOT
ATOM      1  C   UNL     1       3.627   4.465  19.223  0.00  0.00    +0.000 A 
ATOM      2  C   UNL     1       3.340   3.224  19.804  0.00  0.00    +0.000 A 
ATOM      3  C   UNL     1       2.348   3.127  20.773  0.00  0.00    +0.000 A 
ATOM      4  C   UNL     1       1.661   4.268  21.185  0.00  0.00    +0.000 A 
ATOM      5  C   UNL     1       1.969   5.527  20.661  0.00  0.00    +0.000 A 
ATOM      6  C   UNL     1       2.953   5.617  19.667  0.00  0.00    +0.000 A 
ENDROOT
BRANCH   1  14
ATOM      7  C   UNL     1       7.665   7.621  17.650  0.00  0.00    +0.000 C 
ATOM      8  C   UNL     1       7.313   6.492  16.766  0.00  0.00    +0.000 A 
ATOM      9  N   UNL     1       7.870   6.187  15.609  0.00  0.00    +0.000 NA
ATOM     10  N   UNL     1       7.241   5.069  15.112  0.00  0.00    +0.000 NA
ATOM     11  C   UNL     1       6.314   4.719  15.977  0.00  0.00    +0.000 A 
ATOM     12  C   UNL     1       5.365   3.681  15.981  0.00  0.00    +0.000 A 
ATOM     13  C   UNL     1       4.515   3.581  17.011  0.00  0.00    +0.000 A 
ATOM     14  C   UNL     1       4.624   4.592  18.116  0.00  0.00    +0.000 A 
ATOM     15  N   UNL     1       5.483   5.572  18.137  0.00  0.00    +0.000 NA
ATOM     16  N   UNL     1       6.315   5.590  17.045  0.00  0.00    +0.000 N 
ENDBRANCH   1  14
BRANCH   5  17
ATOM     17  N   UNL     1       1.313   6.713  21.078  0.00  0.00    +0.000 N 
ATOM     18  C   UNL     1       1.440   7.947  20.458  0.00  0.00    +0.000 C 
ATOM     19  O   UNL     1       2.060   8.176  19.426  0.00  0.00    +0.000 OA
ATOM     20  H   UNL     1       0.612   6.608  21.801  0.00  0.00    +0.000 HD
BRANCH  18  21
ATOM     21  C   UNL     1       0.722   9.091  21.066  0.00  0.00    +0.000 A 
ATOM     22  C   UNL     1      -0.051  10.008  20.350  0.00  0.00    +0.000 A 
ATOM     23  C   UNL     1      -0.754  10.992  21.052  0.00  0.00    +0.000 A 
ATOM     24  C   UNL     1      -0.651  11.020  22.435  0.00  0.00    +0.000 A 
ATOM     25 CL   UNL     1      -1.502  12.181  23.364  0.00  0.00    +0.000 Cl
ATOM     26  N   UNL     1       0.087  10.156  23.156  0.00  0.00    +0.000 NA
ATOM     27  C   UNL     1       0.748   9.203  22.455  0.00  0.00    +0.000 A 
ENDBRANCH  18  21
ENDBRANCH   5  17
TORSDOF 3
ENDMDL
MODEL 2
REMARK VINA RESULT:      -9.0      3.892      7.276
REMARK  Name = 
REMARK  4 active torsions:
REMARK  status: ('A' for Active; 'I' for Inactive)
REMARK    1  A    between atoms: C_1  and  C_2
REMARK    2  A    between atoms: C_8  and  C_9
REMARK    3  A    between atoms: C_13  and  N_14
REMARK    4  A    between atoms: C_15  and  C_17
REMARK                            x       y       z     vdW  Elec       q    Type
REMARK                         _______ _______ _______ _____ _____    ______ ____
ROOT
ATOM      1  C   UNL     1       5.128   4.635  16.915  0.00  0.00    +0.000 A 
ATOM      2  C   UNL     1       5.644   3.935  15.818  0.00  0.00    +0.000 A 
ATOM      3  C   UNL     1       6.721   4.454  15.109  0.00  0.00    +0.000 A 
ATOM      4  C   UNL     1       7.266   5.685  15.472  0.00  0.00    +0.000 A 
ATOM      5  C   UNL     1       6.732   6.430  16.528  0.00  0.00    +0.000 A 
ATOM      6  C   UNL     1       5.662   5.891  17.255  0.00  0.00    +0.000 A 
ENDROOT
BRANCH   1  14
ATOM      7  C   UNL     1       1.666   6.106  20.735  0.00  0.00    +0.000 C 
ATOM      8  C   UNL     1       1.638   4.692  20.314  0.00  0.00    +0.000 A 
ATOM      9  N   UNL     1       0.866   3.736  20.795  0.00  0.00    +0.000 NA
ATOM     10  N   UNL     1       1.164   2.569  20.130  0.00  0.00    +0.000 NA
ATOM     11  C   UNL     1       2.111   2.839  19.260  0.00  0.00    +0.000 A 
ATOM     12  C   UNL     1       2.809   2.039  18.338  0.00  0.00    +0.000 A 
ATOM     13  C   UNL     1       3.759   2.599  17.578  0.00  0.00    +0.000 A 
ATOM     14  C   UNL     1       4.030   4.065  17.754  0.00  0.00    +0.000 A 
ATOM     15  N   UNL     1       3.411   4.832  18.606  0.00  0.00    +0.000 NA
ATOM     16  N   UNL     1       2.451   4.173  19.335  0.00  0.00    +0.000 N 
ENDBRANCH   1  14
BRANCH   5  17
ATOM     17  N   UNL     1       7.241   7.698  16.906  0.00  0.00    +0.000 N 
ATOM     18  C   UNL     1       8.019   7.936  18.029  0.00  0.00    +0.000 C 
ATOM     19  O   UNL     1       8.447   7.088  18.803  0.00  0.00    +0.000 OA
ATOM     20  H   UNL     1       7.125   8.448  16.234  0.00  0.00    +0.000 HD
BRANCH  18  21
ATOM     21  C   UNL     1       8.418   9.337  18.297  0.00  0.00    +0.000 A 
ATOM     22  C   UNL     1       9.304   9.727  19.303  0.00  0.00    +0.000 A 
ATOM     23  C   UNL     1       9.671  11.073  19.397  0.00  0.00    +0.000 A 
ATOM     24  C   UNL     1       9.133  11.970  18.486  0.00  0.00    +0.000 A 
ATOM     25 CL   UNL     1       9.554  13.630  18.523  0.00  0.00    +0.000 Cl
ATOM     26  N   UNL     1       8.274  11.631  17.507  0.00  0.00    +0.000 NA
ATOM     27  C   UNL     1       7.945  10.319  17.428  0.00  0.00    +0.000 A 
ENDBRANCH  18  21
ENDBRANCH   5  17
TORSDOF 3
ENDMDL
MODEL 3
REMARK VINA RESULT:      -9.0      1.023      1.945
REMARK  Name = 
REMARK  4 active torsions:
REMARK  status: ('A' for Active; 'I' for Inactive)
REMARK    1  A    between atoms: C_1  and  C_2
REMARK    2  A    between atoms: C_8  and  C_9
REMARK    3  A    between atoms: C_13  and  N_14
REMARK    4  A    between atoms: C_15  and  C_17
REMARK                            x       y       z     vdW  Elec       q    Type
REMARK                         _______ _______ _______ _____ _____    ______ ____
ROOT
ATOM      1  C   UNL     1       3.895   4.831  19.077  0.00  0.00    +0.000 A 
ATOM      2  C   UNL     1       3.592   3.515  19.444  0.00  0.00    +0.000 A 
ATOM      3  C   UNL     1       2.530   3.264  20.306  0.00  0.00    +0.000 A 
ATOM      4  C   UNL     1       1.788   4.324  20.825  0.00  0.00    +0.000 A 
ATOM      5  C   UNL     1       2.107   5.650  20.518  0.00  0.00    +0.000 A 
ATOM      6  C   UNL     1       3.163   5.897  19.630  0.00  0.00    +0.000 A 
ENDROOT
BRANCH   1  14
ATOM      7  C   UNL     1       5.134   3.941  13.938  0.00  0.00    +0.000 C 
ATOM      8  C   UNL     1       6.116   4.694  14.743  0.00  0.00    +0.000 A 
ATOM      9  N   UNL     1       7.286   5.154  14.341  0.00  0.00    +0.000 NA
ATOM     10  N   UNL     1       7.885   5.788  15.405  0.00  0.00    +0.000 NA
ATOM     11  C   UNL     1       7.068   5.701  16.430  0.00  0.00    +0.000 A 
ATOM     12  C   UNL     1       7.165   6.143  17.762  0.00  0.00    +0.000 A 
ATOM     13  C   UNL     1       6.160   5.885  18.608  0.00  0.00    +0.000 A 
ATOM     14  C   UNL     1       4.972   5.132  18.084  0.00  0.00    +0.000 A 
ATOM     15  N   UNL     1       4.855   4.698  16.861  0.00  0.00    +0.000 NA
ATOM     16  N   UNL     1       5.929   5.013  16.066  0.00  0.00    +0.000 N 
ENDBRANCH   1  14
BRANCH   5  17
ATOM     17  N   UNL     1       1.394   6.754  21.051  0.00  0.00    +0.000 N 
ATOM     18  C   UNL     1       1.375   8.025  20.498  0.00  0.00    +0.000 C 
ATOM     19  O   UNL     1       1.894   8.359  19.439  0.00  0.00    +0.000 OA
ATOM     20  H   UNL     1       0.761   6.553  21.816  0.00  0.00    +0.000 HD
BRANCH  18  21
ATOM     21  C   UNL     1       0.619   9.072  21.223  0.00  0.00    +0.000 A 
ATOM     22  C   UNL     1       0.029   8.895  22.476  0.00  0.00    +0.000 A 
ATOM     23  C   UNL     1      -0.581   9.989  23.097  0.00  0.00    +0.000 A 
ATOM     24  C   UNL     1      -0.578  11.210  22.438  0.00  0.00    +0.000 A 
ATOM     25 CL   UNL     1      -1.285  12.601  23.146  0.00  0.00    +0.000 Cl
ATOM     26  N   UNL     1      -0.023  11.416  21.229  0.00  0.00    +0.000 NA
ATOM     27  C   UNL     1       0.573  10.344  20.654  0.00  0.00    +0.000 A 
ENDBRANCH  18  21
ENDBRANCH   5  17
TORSDOF 3
ENDMDL
MODEL 4
REMARK VINA RESULT:      -8.8      3.785      8.752
REMARK  Name = 
REMARK  4 active torsions:
REMARK  status: ('A' for Active; 'I' for Inactive)
REMARK    1  A    between atoms: C_1  and  C_2
REMARK    2  A    between atoms: C_8  and  C_9
REMARK    3  A    between atoms: C_13  and  N_14
REMARK    4  A    between atoms: C_15  and  C_17
REMARK                            x       y       z     vdW  Elec       q    Type
REMARK                         _______ _______ _______ _____ _____    ______ ____
ROOT
ATOM      1  C   UNL     1       1.868   7.184  19.812  0.00  0.00    +0.000 A 
ATOM      2  C   UNL     1       1.668   6.256  20.840  0.00  0.00    +0.000 A 
ATOM      3  C   UNL     1       2.219   4.983  20.741  0.00  0.00    +0.000 A 
ATOM      4  C   UNL     1       2.943   4.624  19.605  0.00  0.00    +0.000 A 
ATOM      5  C   UNL     1       3.109   5.515  18.540  0.00  0.00    +0.000 A 
ATOM      6  C   UNL     1       2.573   6.805  18.656  0.00  0.00    +0.000 A 
ENDROOT
BRANCH   1  14
ATOM      7  C   UNL     1      -0.843  10.336  23.197  0.00  0.00    +0.000 C 
ATOM      8  C   UNL     1      -0.430  10.933  21.911  0.00  0.00    +0.000 A 
ATOM      9  N   UNL     1      -0.679  12.158  21.489  0.00  0.00    +0.000 NA
ATOM     10  N   UNL     1      -0.123  12.300  20.238  0.00  0.00    +0.000 NA
ATOM     11  C   UNL     1       0.451  11.160  19.927  0.00  0.00    +0.000 A 
ATOM     12  C   UNL     1       1.143  10.728  18.782  0.00  0.00    +0.000 A 
ATOM     13  C   UNL     1       1.610   9.473  18.738  0.00  0.00    +0.000 A 
ATOM     14  C   UNL     1       1.366   8.588  19.925  0.00  0.00    +0.000 A 
ATOM     15  N   UNL     1       0.719   8.953  20.996  0.00  0.00    +0.000 NA
ATOM     16  N   UNL     1       0.285  10.254  20.953  0.00  0.00    +0.000 N 
ENDBRANCH   1  14
BRANCH   5  17
ATOM     17  N   UNL     1       3.813   5.175  17.358  0.00  0.00    +0.000 N 
ATOM     18  C   UNL     1       5.193   5.207  17.222  0.00  0.00    +0.000 C 
ATOM     19  O   UNL     1       6.000   5.449  18.112  0.00  0.00    +0.000 OA
ATOM     20  H   UNL     1       3.266   4.763  16.611  0.00  0.00    +0.000 HD
BRANCH  18  21
ATOM     21  C   UNL     1       5.754   4.871  15.893  0.00  0.00    +0.000 A 
ATOM     22  C   UNL     1       5.134   4.035  14.962  0.00  0.00    +0.000 A 
ATOM     23  C   UNL     1       5.723   3.869  13.705  0.00  0.00    +0.000 A 
ATOM     24  C   UNL     1       6.906   4.540  13.435  0.00  0.00    +0.000 A 
ATOM     25 CL   UNL     1       7.673   4.404  11.909  0.00  0.00    +0.000 Cl
ATOM     26  N   UNL     1       7.534   5.350  14.308  0.00  0.00    +0.000 NA
ATOM     27  C   UNL     1       6.936   5.506  15.514  0.00  0.00    +0.000 A 
ENDBRANCH  18  21
ENDBRANCH   5  17
TORSDOF 3
ENDMDL
MODEL 5
REMARK VINA RESULT:      -8.6      3.786      8.382
REMARK  Name = 
REMARK  4 active torsions:
REMARK  status: ('A' for Active; 'I' for Inactive)
REMARK    1  A    between atoms: C_1  and  C_2
REMARK    2  A    between atoms: C_8  and  C_9
REMARK    3  A    between atoms: C_13  and  N_14
REMARK    4  A    between atoms: C_15  and  C_17
REMARK                            x       y       z     vdW  Elec       q    Type
REMARK                         _______ _______ _______ _____ _____    ______ ____
ROOT
ATOM      1  C   UNL     1       1.730   6.814  20.226  0.00  0.00    +0.000 A 
ATOM      2  C   UNL     1       1.483   5.781  21.138  0.00  0.00    +0.000 A 
ATOM      3  C   UNL     1       2.035   4.523  20.926  0.00  0.00    +0.000 A 
ATOM      4  C   UNL     1       2.809   4.284  19.791  0.00  0.00    +0.000 A 
ATOM      5  C   UNL     1       3.024   5.284  18.837  0.00  0.00    +0.000 A 
ATOM      6  C   UNL     1       2.486   6.557  19.067  0.00  0.00    +0.000 A 
ENDROOT
BRANCH   1  14
ATOM      7  C   UNL     1       2.078  11.748  18.159  0.00  0.00    +0.000 C 
ATOM      8  C   UNL     1       1.272  11.591  19.386  0.00  0.00    +0.000 A 
ATOM      9  N   UNL     1       0.643  12.542  20.050  0.00  0.00    +0.000 NA
ATOM     10  N   UNL     1       0.020  11.968  21.134  0.00  0.00    +0.000 NA
ATOM     11  C   UNL     1       0.283  10.681  21.107  0.00  0.00    +0.000 A 
ATOM     12  C   UNL     1      -0.068   9.623  21.963  0.00  0.00    +0.000 A 
ATOM     13  C   UNL     1       0.373   8.389  21.688  0.00  0.00    +0.000 A 
ATOM     14  C   UNL     1       1.227   8.201  20.468  0.00  0.00    +0.000 A 
ATOM     15  N   UNL     1       1.580   9.161  19.660  0.00  0.00    +0.000 NA
ATOM     16  N   UNL     1       1.077  10.386  20.018  0.00  0.00    +0.000 N 
ENDBRANCH   1  14
BRANCH   5  17
ATOM     17  N   UNL     1       3.781   5.068  17.658  0.00  0.00    +0.000 N 
ATOM     18  C   UNL     1       5.166   5.091  17.591  0.00  0.00    +0.000 C 
ATOM     19  O   UNL     1       5.932   5.215  18.539  0.00  0.00    +0.000 OA
ATOM     20  H   UNL     1       3.265   4.753  16.844  0.00  0.00    +0.000 HD
BRANCH  18  21
ATOM     21  C   UNL     1       5.786   4.899  16.259  0.00  0.00    +0.000 A 
ATOM     22  C   UNL     1       5.221   4.149  15.226  0.00  0.00    +0.000 A 
ATOM     23  C   UNL     1       5.863   4.119  13.984  0.00  0.00    +0.000 A 
ATOM     24  C   UNL     1       7.041   4.835  13.830  0.00  0.00    +0.000 A 
ATOM     25 CL   UNL     1       7.871   4.865  12.332  0.00  0.00    +0.000 Cl
ATOM     26  N   UNL     1       7.616   5.564  14.805  0.00  0.00    +0.000 NA
ATOM     27  C   UNL     1       6.969   5.589  15.994  0.00  0.00    +0.000 A 
ENDBRANCH  18  21
ENDBRANCH   5  17
TORSDOF 3
ENDMDL
MODEL 6
REMARK VINA RESULT:      -8.6      2.657      4.646
REMARK  Name = 
REMARK  4 active torsions:
REMARK  status: ('A' for Active; 'I' for Inactive)
REMARK    1  A    between atoms: C_1  and  C_2
REMARK    2  A    between atoms: C_8  and  C_9
REMARK    3  A    between atoms: C_13  and  N_14
REMARK    4  A    between atoms: C_15  and  C_17
REMARK                            x       y       z     vdW  Elec       q    Type
REMARK                         _______ _______ _______ _____ _____    ______ ____
ROOT
ATOM      1  C   UNL     1       2.067   7.820  19.159  0.00  0.00    +0.000 A 
ATOM      2  C   UNL     1       2.509   8.378  17.953  0.00  0.00    +0.000 A 
ATOM      3  C   UNL     1       2.165   9.685  17.628  0.00  0.00    +0.000 A 
ATOM      4  C   UNL     1       1.357  10.428  18.486  0.00  0.00    +0.000 A 
ATOM      5  C   UNL     1       0.856   9.874  19.669  0.00  0.00    +0.000 A 
ATOM      6  C   UNL     1       1.225   8.565  20.005  0.00  0.00    +0.000 A 
ENDROOT
BRANCH   1  14
ATOM      7  C   UNL     1       5.924   4.218  18.217  0.00  0.00    +0.000 C 
ATOM      8  C   UNL     1       4.861   3.829  19.165  0.00  0.00    +0.000 A 
ATOM      9  N   UNL     1       4.741   2.675  19.793  0.00  0.00    +0.000 NA
ATOM     10  N   UNL     1       3.610   2.728  20.574  0.00  0.00    +0.000 NA
ATOM     11  C   UNL     1       3.066   3.912  20.405  0.00  0.00    +0.000 A 
ATOM     12  C   UNL     1       1.904   4.506  20.928  0.00  0.00    +0.000 A 
ATOM     13  C   UNL     1       1.582   5.750  20.551  0.00  0.00    +0.000 A 
ATOM     14  C   UNL     1       2.490   6.450  19.582  0.00  0.00    +0.000 A 
ATOM     15  N   UNL     1       3.568   5.925  19.070  0.00  0.00    +0.000 NA
ATOM     16  N   UNL     1       3.819   4.653  19.519  0.00  0.00    +0.000 N 
ENDBRANCH   1  14
BRANCH   5  17
ATOM     17  N   UNL     1       0.007  10.589  20.551  0.00  0.00    +0.000 N 
ATOM     18  C   UNL     1       0.400  11.673  21.322  0.00  0.00    +0.000 C 
ATOM     19  O   UNL     1       1.497  12.219  21.293  0.00  0.00    +0.000 OA
ATOM     20  H   UNL     1      -0.979  10.360  20.511  0.00  0.00    +0.000 HD
BRANCH  18  21
ATOM     21  C   UNL     1      -0.609  12.264  22.230  0.00  0.00    +0.000 A 
ATOM     22  C   UNL     1      -0.670  13.618  22.568  0.00  0.00    +0.000 A 
ATOM     23  C   UNL     1      -1.728  14.068  23.365  0.00  0.00    +0.000 A 
ATOM     24  C   UNL     1      -2.674  13.148  23.791  0.00  0.00    +0.000 A 
ATOM     25 CL   UNL     1      -4.010  13.630  24.750  0.00  0.00    +0.000 Cl
ATOM     26  N   UNL     1      -2.644  11.837  23.489  0.00  0.00    +0.000 NA
ATOM     27  C   UNL     1      -1.618  11.427  22.704  0.00  0.00    +0.000 A 
ENDBRANCH  18  21
ENDBRANCH   5  17
TORSDOF 3
ENDMDL
MODEL 7
REMARK VINA RESULT:      -8.5      4.769     10.059
REMARK  Name = 
REMARK  4 active torsions:
REMARK  status: ('A' for Active; 'I' for Inactive)
REMARK    1  A    between atoms: C_1  and  C_2
REMARK    2  A    between atoms: C_8  and  C_9
REMARK    3  A    between atoms: C_13  and  N_14
REMARK    4  A    between atoms: C_15  and  C_17
REMARK                            x       y       z     vdW  Elec       q    Type
REMARK                         _______ _______ _______ _____ _____    ______ ____
ROOT
ATOM      1  C   UNL     1      -1.317  11.712  18.555  0.00  0.00    +0.000 A 
ATOM      2  C   UNL     1      -0.574  12.895  18.475  0.00  0.00    +0.000 A 
ATOM      3  C   UNL     1       0.809  12.855  18.607  0.00  0.00    +0.000 A 
ATOM      4  C   UNL     1       1.451  11.641  18.848  0.00  0.00    +0.000 A 
ATOM      5  C   UNL     1       0.726  10.454  18.989  0.00  0.00    +0.000 A 
ATOM      6  C   UNL     1      -0.666  10.496  18.831  0.00  0.00    +0.000 A 
ENDROOT
BRANCH   1  14
ATOM      7  C   UNL     1      -5.897  12.604  21.195  0.00  0.00    +0.000 C 
ATOM      8  C   UNL     1      -6.008  12.180  19.785  0.00  0.00    +0.000 A 
ATOM      9  N   UNL     1      -7.119  11.970  19.105  0.00  0.00    +0.000 NA
ATOM     10  N   UNL     1      -6.774  11.580  17.831  0.00  0.00    +0.000 NA
ATOM     11  C   UNL     1      -5.461  11.562  17.764  0.00  0.00    +0.000 A 
ATOM     12  C   UNL     1      -4.569  11.225  16.731  0.00  0.00    +0.000 A 
ATOM     13  C   UNL     1      -3.252  11.281  16.964  0.00  0.00    +0.000 A 
ATOM     14  C   UNL     1      -2.795  11.706  18.330  0.00  0.00    +0.000 A 
ATOM     15  N   UNL     1      -3.594  12.013  19.312  0.00  0.00    +0.000 NA
ATOM     16  N   UNL     1      -4.923  11.932  18.978  0.00  0.00    +0.000 N 
ENDBRANCH   1  14
BRANCH   5  17
ATOM     17  N   UNL     1       1.342   9.207  19.265  0.00  0.00    +0.000 N 
ATOM     18  C   UNL     1       2.054   8.455  18.342  0.00  0.00    +0.000 C 
ATOM     19  O   UNL     1       2.324   8.789  17.195  0.00  0.00    +0.000 OA
ATOM     20  H   UNL     1       1.361   8.920  20.237  0.00  0.00    +0.000 HD
BRANCH  18  21
ATOM     21  C   UNL     1       2.583   7.147  18.793  0.00  0.00    +0.000 A 
ATOM     22  C   UNL     1       2.172   6.487  19.953  0.00  0.00    +0.000 A 
ATOM     23  C   UNL     1       2.682   5.212  20.221  0.00  0.00    +0.000 A 
ATOM     24  C   UNL     1       3.581   4.657  19.323  0.00  0.00    +0.000 A 
ATOM     25 CL   UNL     1       4.230   3.091  19.573  0.00  0.00    +0.000 Cl
ATOM     26  N   UNL     1       4.002   5.265  18.199  0.00  0.00    +0.000 NA
ATOM     27  C   UNL     1       3.484   6.493  17.953  0.00  0.00    +0.000 A 
ENDBRANCH  18  21
ENDBRANCH   5  17
TORSDOF 3
ENDMDL
MODEL 8
REMARK VINA RESULT:      -8.4      4.863     10.070
REMARK  Name = 
REMARK  4 active torsions:
REMARK  status: ('A' for Active; 'I' for Inactive)
REMARK    1  A    between atoms: C_1  and  C_2
REMARK    2  A    between atoms: C_8  and  C_9
REMARK    3  A    between atoms: C_13  and  N_14
REMARK    4  A    between atoms: C_15  and  C_17
REMARK                            x       y       z     vdW  Elec       q    Type
REMARK                         _______ _______ _______ _____ _____    ______ ____
ROOT
ATOM      1  C   UNL     1      -0.982  11.512  18.379  0.00  0.00    +0.000 A 
ATOM      2  C   UNL     1      -0.279  12.627  18.851  0.00  0.00    +0.000 A 
ATOM      3  C   UNL     1       1.108  12.585  18.937  0.00  0.00    +0.000 A 
ATOM      4  C   UNL     1       1.794  11.424  18.582  0.00  0.00    +0.000 A 
ATOM      5  C   UNL     1       1.110  10.279  18.162  0.00  0.00    +0.000 A 
ATOM      6  C   UNL     1      -0.286  10.334  18.053  0.00  0.00    +0.000 A 
ENDROOT
BRANCH   1  14
ATOM      7  C   UNL     1      -5.455  12.727  21.073  0.00  0.00    +0.000 C 
ATOM      8  C   UNL     1      -5.618  12.231  19.692  0.00  0.00    +0.000 A 
ATOM      9  N   UNL     1      -6.754  12.029  19.051  0.00  0.00    +0.000 NA
ATOM     10  N   UNL     1      -6.457  11.558  17.793  0.00  0.00    +0.000 NA
ATOM     11  C   UNL     1      -5.148  11.484  17.695  0.00  0.00    +0.000 A 
ATOM     12  C   UNL     1      -4.296  11.057  16.661  0.00  0.00    +0.000 A 
ATOM     13  C   UNL     1      -2.972  11.073  16.860  0.00  0.00    +0.000 A 
ATOM     14  C   UNL     1      -2.464  11.552  18.189  0.00  0.00    +0.000 A 
ATOM     15  N   UNL     1      -3.226  11.944  19.172  0.00  0.00    +0.000 NA
ATOM     16  N   UNL     1      -4.565  11.898  18.874  0.00  0.00    +0.000 N 
ENDBRANCH   1  14
BRANCH   5  17
ATOM     17  N   UNL     1       1.772   9.072  17.821  0.00  0.00    +0.000 N 
ATOM     18  C   UNL     1       2.111   8.075  18.723  0.00  0.00    +0.000 C 
ATOM     19  O   UNL     1       1.820   8.049  19.913  0.00  0.00    +0.000 OA
ATOM     20  H   UNL     1       1.886   8.885  16.832  0.00  0.00    +0.000 HD
BRANCH  18  21
ATOM     21  C   UNL     1       2.851   6.904  18.197  0.00  0.00    +0.000 A 
ATOM     22  C   UNL     1       2.409   5.583  18.292  0.00  0.00    +0.000 A 
ATOM     23  C   UNL     1       3.155   4.575  17.675  0.00  0.00    +0.000 A 
ATOM     24  C   UNL     1       4.310   4.929  16.994  0.00  0.00    +0.000 A 
ATOM     25 CL   UNL     1       5.263   3.752  16.193  0.00  0.00    +0.000 Cl
ATOM     26  N   UNL     1       4.768   6.190  16.885  0.00  0.00    +0.000 NA
ATOM     27  C   UNL     1       4.021   7.151  17.480  0.00  0.00    +0.000 A 
ENDBRANCH  18  21
ENDBRANCH   5  17
TORSDOF 3
ENDMDL
MODEL 9
REMARK VINA RESULT:      -8.3      2.703      4.771
REMARK  Name = 
REMARK  4 active torsions:
REMARK  status: ('A' for Active; 'I' for Inactive)
REMARK    1  A    between atoms: C_1  and  C_2
REMARK    2  A    between atoms: C_8  and  C_9
REMARK    3  A    between atoms: C_13  and  N_14
REMARK    4  A    between atoms: C_15  and  C_17
REMARK                            x       y       z     vdW  Elec       q    Type
REMARK                         _______ _______ _______ _____ _____    ______ ____
ROOT
ATOM      1  C   UNL     1       2.032   7.883  19.106  0.00  0.00    +0.000 A 
ATOM      2  C   UNL     1       2.667   8.556  18.055  0.00  0.00    +0.000 A 
ATOM      3  C   UNL     1       2.289   9.855  17.737  0.00  0.00    +0.000 A 
ATOM      4  C   UNL     1       1.260  10.475  18.444  0.00  0.00    +0.000 A 
ATOM      5  C   UNL     1       0.573   9.803  19.461  0.00  0.00    +0.000 A 
ATOM      6  C   UNL     1       0.974   8.503  19.794  0.00  0.00    +0.000 A 
ENDROOT
BRANCH   1  14
ATOM      7  C   UNL     1       5.944   4.335  18.187  0.00  0.00    +0.000 C 
ATOM      8  C   UNL     1       4.883   3.932  19.130  0.00  0.00    +0.000 A 
ATOM      9  N   UNL     1       4.775   2.776  19.758  0.00  0.00    +0.000 NA
ATOM     10  N   UNL     1       3.640   2.814  20.533  0.00  0.00    +0.000 NA
ATOM     11  C   UNL     1       3.080   3.991  20.361  0.00  0.00    +0.000 A 
ATOM     12  C   UNL     1       1.907   4.568  20.877  0.00  0.00    +0.000 A 
ATOM     13  C   UNL     1       1.570   5.807  20.497  0.00  0.00    +0.000 A 
ATOM     14  C   UNL     1       2.472   6.519  19.533  0.00  0.00    +0.000 A 
ATOM     15  N   UNL     1       3.560   6.009  19.027  0.00  0.00    +0.000 NA
ATOM     16  N   UNL     1       3.827   4.741  19.478  0.00  0.00    +0.000 N 
ENDBRANCH   1  14
BRANCH   5  17
ATOM     17  N   UNL     1      -0.497  10.391  20.181  0.00  0.00    +0.000 N 
ATOM     18  C   UNL     1      -0.351  11.342  21.180  0.00  0.00    +0.000 C 
ATOM     19  O   UNL     1       0.699  11.869  21.526  0.00  0.00    +0.000 OA
ATOM     20  H   UNL     1      -1.431  10.185  19.845  0.00  0.00    +0.000 HD
BRANCH  18  21
ATOM     21  C   UNL     1      -1.581  11.805  21.864  0.00  0.00    +0.000 A 
ATOM     22  C   UNL     1      -1.873  11.568  23.208  0.00  0.00    +0.000 A 
ATOM     23  C   UNL     1      -3.025  12.137  23.760  0.00  0.00    +0.000 A 
ATOM     24  C   UNL     1      -3.834  12.915  22.945  0.00  0.00    +0.000 A 
ATOM     25 CL   UNL     1      -5.249  13.664  23.556  0.00  0.00    +0.000 Cl
ATOM     26  N   UNL     1      -3.586  13.161  21.645  0.00  0.00    +0.000 NA
ATOM     27  C   UNL     1      -2.457  12.610  21.137  0.00  0.00    +0.000 A 
ENDBRANCH  18  21
ENDBRANCH   5  17
TORSDOF 3
ENDMDL
