MODEL 1
REMARK VINA RESULT:      -5.3      0.000      0.000
REMARK  Name = 
REMARK  11 active torsions:
REMARK  status: ('A' for Active; 'I' for Inactive)
REMARK    1  A    between atoms: C_1  and  C_2
REMARK    2  A    between atoms: C_2  and  C_3
REMARK    3  A    between atoms: C_3  and  C_4
REMARK    4  A    between atoms: C_4  and  C_5
REMARK    5  A    between atoms: C_5  and  N_6
REMARK    6  A    between atoms: N_6  and  C_7
REMARK    7  A    between atoms: N_6  and  N_12
REMARK    8  A    between atoms: C_7  and  C_8
REMARK    9  A    between atoms: C_8  and  C_9
REMARK   10  A    between atoms: C_9  and  C_10
REMARK   11  A    between atoms: C_10  and  C_11
REMARK                            x       y       z     vdW  Elec       q    Type
REMARK                         _______ _______ _______ _____ _____    ______ ____
ROOT
ATOM      1  N   UNL     1       6.396   4.726  14.848  0.00  0.00    +0.000 N 
ENDROOT
BRANCH   1   2
ATOM      2  N   UNL     1       7.536   5.370  14.952  0.00  0.00    +0.000 NA
ATOM      3  O   UNL     1       7.985   5.646  13.832  0.00  0.00    +0.000 OA
ENDBRANCH   1   2
BRANCH   1   4
ATOM      4  C   UNL     1       6.331   3.829  13.684  0.00  0.00    +0.000 C 
BRANCH   4   5
ATOM      5  C   UNL     1       4.966   3.735  12.982  0.00  0.00    +0.000 C 
BRANCH   5   6
ATOM      6  C   UNL     1       5.003   3.246  11.525  0.00  0.00    +0.000 C 
BRANCH   6   8
ATOM      7  C   UNL     1       3.197   4.010   9.886  0.00  0.00    +0.000 C 
ATOM      8  C   UNL     1       3.575   3.042  11.000  0.00  0.00    +0.000 C 
ENDBRANCH   6   8
ENDBRANCH   5   6
ENDBRANCH   4   5
ENDBRANCH   1   4
BRANCH   1   9
ATOM      9  C   UNL     1       5.877   4.179  16.114  0.00  0.00    +0.000 C 
BRANCH   9  10
ATOM     10  C   UNL     1       4.572   4.702  16.745  0.00  0.00    +0.000 C 
BRANCH  10  11
ATOM     11  C   UNL     1       4.506   6.179  17.160  0.00  0.00    +0.000 C 
BRANCH  11  12
ATOM     12  C   UNL     1       3.238   6.407  18.005  0.00  0.00    +0.000 C 
ATOM     13  C   UNL     1       2.301   5.211  18.059  0.00  0.00    +0.000 C 
ENDBRANCH  11  12
ENDBRANCH  10  11
ENDBRANCH   9  10
ENDBRANCH   1   9
TORSDOF 9
ENDMDL
MODEL 2
REMARK VINA RESULT:      -5.1      5.376      6.273
REMARK  Name = 
REMARK  11 active torsions:
REMARK  status: ('A' for Active; 'I' for Inactive)
REMARK    1  A    between atoms: C_1  and  C_2
REMARK    2  A    between atoms: C_2  and  C_3
REMARK    3  A    between atoms: C_3  and  C_4
REMARK    4  A    between atoms: C_4  and  C_5
REMARK    5  A    between atoms: C_5  and  N_6
REMARK    6  A    between atoms: N_6  and  C_7
REMARK    7  A    between atoms: N_6  and  N_12
REMARK    8  A    between atoms: C_7  and  C_8
REMARK    9  A    between atoms: C_8  and  C_9
REMARK   10  A    between atoms: C_9  and  C_10
REMARK   11  A    between atoms: C_10  and  C_11
REMARK                            x       y       z     vdW  Elec       q    Type
REMARK                         _______ _______ _______ _____ _____    ______ ____
ROOT
ATOM      1  N   UNL     1       4.405   3.042  19.281  0.00  0.00    +0.000 N 
ENDROOT
BRANCH   1   2
ATOM      2  N   UNL     1       4.957   2.157  20.080  0.00  0.00    +0.000 NA
ATOM      3  O   UNL     1       4.322   2.070  21.139  0.00  0.00    +0.000 OA
ENDBRANCH   1   2
BRANCH   1   4
ATOM      4  C   UNL     1       5.211   4.260  19.107  0.00  0.00    +0.000 C 
BRANCH   4   5
ATOM      5  C   UNL     1       4.443   5.591  19.176  0.00  0.00    +0.000 C 
BRANCH   5   6
ATOM      6  C   UNL     1       4.015   6.179  17.821  0.00  0.00    +0.000 C 
BRANCH   6   8
ATOM      7  C   UNL     1       2.387   7.303  19.439  0.00  0.00    +0.000 C 
ATOM      8  C   UNL     1       2.971   7.285  18.032  0.00  0.00    +0.000 C 
ENDBRANCH   6   8
ENDBRANCH   5   6
ENDBRANCH   4   5
ENDBRANCH   1   4
BRANCH   1   9
ATOM      9  C   UNL     1       3.809   2.482  18.055  0.00  0.00    +0.000 C 
BRANCH   9  10
ATOM     10  C   UNL     1       2.283   2.354  17.884  0.00  0.00    +0.000 C 
BRANCH  10  11
ATOM     11  C   UNL     1       1.403   3.542  18.300  0.00  0.00    +0.000 C 
BRANCH  11  12
ATOM     12  C   UNL     1       0.773   3.242  19.674  0.00  0.00    +0.000 C 
ATOM     13  C   UNL     1       1.346   4.065  20.816  0.00  0.00    +0.000 C 
ENDBRANCH  11  12
ENDBRANCH  10  11
ENDBRANCH   9  10
ENDBRANCH   1   9
TORSDOF 9
ENDMDL
MODEL 3
REMARK VINA RESULT:      -5.1      4.787      6.428
REMARK  Name = 
REMARK  11 active torsions:
REMARK  status: ('A' for Active; 'I' for Inactive)
REMARK    1  A    between atoms: C_1  and  C_2
REMARK    2  A    between atoms: C_2  and  C_3
REMARK    3  A    between atoms: C_3  and  C_4
REMARK    4  A    between atoms: C_4  and  C_5
REMARK    5  A    between atoms: C_5  and  N_6
REMARK    6  A    between atoms: N_6  and  C_7
REMARK    7  A    between atoms: N_6  and  N_12
REMARK    8  A    between atoms: C_7  and  C_8
REMARK    9  A    between atoms: C_8  and  C_9
REMARK   10  A    between atoms: C_9  and  C_10
REMARK   11  A    between atoms: C_10  and  C_11
REMARK                            x       y       z     vdW  Elec       q    Type
REMARK                         _______ _______ _______ _____ _____    ______ ____
ROOT
ATOM      1  N   UNL     1       4.394   3.426  18.459  0.00  0.00    +0.000 N 
ENDROOT
BRANCH   1   2
ATOM      2  N   UNL     1       5.027   3.392  19.610  0.00  0.00    +0.000 NA
ATOM      3  O   UNL     1       4.991   2.252  20.093  0.00  0.00    +0.000 OA
ENDBRANCH   1   2
BRANCH   1   4
ATOM      4  C   UNL     1       3.455   2.310  18.271  0.00  0.00    +0.000 C 
BRANCH   4   5
ATOM      5  C   UNL     1       2.013   2.699  17.902  0.00  0.00    +0.000 C 
BRANCH   5   6
ATOM      6  C   UNL     1       0.962   2.459  18.997  0.00  0.00    +0.000 C 
BRANCH   6   8
ATOM      7  C   UNL     1       1.554   2.860  21.451  0.00  0.00    +0.000 C 
ATOM      8  C   UNL     1       1.134   3.485  20.127  0.00  0.00    +0.000 C 
ENDBRANCH   6   8
ENDBRANCH   5   6
ENDBRANCH   4   5
ENDBRANCH   1   4
BRANCH   1   9
ATOM      9  C   UNL     1       3.903   4.757  18.063  0.00  0.00    +0.000 C 
BRANCH   9  10
ATOM     10  C   UNL     1       4.870   5.897  17.689  0.00  0.00    +0.000 C 
BRANCH  10  11
ATOM     11  C   UNL     1       6.192   5.531  17.000  0.00  0.00    +0.000 C 
BRANCH  11  12
ATOM     12  C   UNL     1       7.338   6.321  17.662  0.00  0.00    +0.000 C 
ATOM     13  C   UNL     1       7.692   5.849  19.063  0.00  0.00    +0.000 C 
ENDBRANCH  11  12
ENDBRANCH  10  11
ENDBRANCH   9  10
ENDBRANCH   1   9
TORSDOF 9
ENDMDL
MODEL 4
REMARK VINA RESULT:      -5.0      4.866      6.121
REMARK  Name = 
REMARK  11 active torsions:
REMARK  status: ('A' for Active; 'I' for Inactive)
REMARK    1  A    between atoms: C_1  and  C_2
REMARK    2  A    between atoms: C_2  and  C_3
REMARK    3  A    between atoms: C_3  and  C_4
REMARK    4  A    between atoms: C_4  and  C_5
REMARK    5  A    between atoms: C_5  and  N_6
REMARK    6  A    between atoms: N_6  and  C_7
REMARK    7  A    between atoms: N_6  and  N_12
REMARK    8  A    between atoms: C_7  and  C_8
REMARK    9  A    between atoms: C_8  and  C_9
REMARK   10  A    between atoms: C_9  and  C_10
REMARK   11  A    between atoms: C_10  and  C_11
REMARK                            x       y       z     vdW  Elec       q    Type
REMARK                         _______ _______ _______ _____ _____    ______ ____
ROOT
ATOM      1  N   UNL     1       4.260   2.702  19.622  0.00  0.00    +0.000 N 
ENDROOT
BRANCH   1   2
ATOM      2  N   UNL     1       5.060   1.922  20.314  0.00  0.00    +0.000 NA
ATOM      3  O   UNL     1       4.590   1.702  21.438  0.00  0.00    +0.000 OA
ENDBRANCH   1   2
BRANCH   1   4
ATOM      4  C   UNL     1       4.936   3.872  19.043  0.00  0.00    +0.000 C 
BRANCH   4   5
ATOM      5  C   UNL     1       4.308   5.240  19.363  0.00  0.00    +0.000 C 
BRANCH   5   6
ATOM      6  C   UNL     1       3.957   6.108  18.144  0.00  0.00    +0.000 C 
BRANCH   6   8
ATOM      7  C   UNL     1       5.117   6.327  15.877  0.00  0.00    +0.000 C 
ATOM      8  C   UNL     1       5.235   6.495  17.386  0.00  0.00    +0.000 C 
ENDBRANCH   6   8
ENDBRANCH   5   6
ENDBRANCH   4   5
ENDBRANCH   1   4
BRANCH   1   9
ATOM      9  C   UNL     1       3.321   1.993  18.735  0.00  0.00    +0.000 C 
BRANCH   9  10
ATOM     10  C   UNL     1       1.800   2.019  18.981  0.00  0.00    +0.000 C 
BRANCH  10  11
ATOM     11  C   UNL     1       1.088   3.380  18.987  0.00  0.00    +0.000 C 
BRANCH  11  12
ATOM     12  C   UNL     1       1.037   3.913  20.431  0.00  0.00    +0.000 C 
ATOM     13  C   UNL     1       1.283   2.857  21.496  0.00  0.00    +0.000 C 
ENDBRANCH  11  12
ENDBRANCH  10  11
ENDBRANCH   9  10
ENDBRANCH   1   9
TORSDOF 9
ENDMDL
MODEL 5
REMARK VINA RESULT:      -5.0      3.071      5.681
REMARK  Name = 
REMARK  11 active torsions:
REMARK  status: ('A' for Active; 'I' for Inactive)
REMARK    1  A    between atoms: C_1  and  C_2
REMARK    2  A    between atoms: C_2  and  C_3
REMARK    3  A    between atoms: C_3  and  C_4
REMARK    4  A    between atoms: C_4  and  C_5
REMARK    5  A    between atoms: C_5  and  N_6
REMARK    6  A    between atoms: N_6  and  C_7
REMARK    7  A    between atoms: N_6  and  N_12
REMARK    8  A    between atoms: C_7  and  C_8
REMARK    9  A    between atoms: C_8  and  C_9
REMARK   10  A    between atoms: C_9  and  C_10
REMARK   11  A    between atoms: C_10  and  C_11
REMARK                            x       y       z     vdW  Elec       q    Type
REMARK                         _______ _______ _______ _____ _____    ______ ____
ROOT
ATOM      1  N   UNL     1       6.179   4.845  18.949  0.00  0.00    +0.000 N 
ENDROOT
BRANCH   1   2
ATOM      2  N   UNL     1       6.994   5.377  19.832  0.00  0.00    +0.000 NA
ATOM      3  O   UNL     1       8.169   5.089  19.568  0.00  0.00    +0.000 OA
ENDBRANCH   1   2
BRANCH   1   4
ATOM      4  C   UNL     1       4.779   5.262  19.117  0.00  0.00    +0.000 C 
BRANCH   4   5
ATOM      5  C   UNL     1       3.746   4.126  19.220  0.00  0.00    +0.000 C 
BRANCH   5   6
ATOM      6  C   UNL     1       2.897   3.887  17.960  0.00  0.00    +0.000 C 
BRANCH   6   8
ATOM      7  C   UNL     1       0.899   2.497  18.739  0.00  0.00    +0.000 C 
ATOM      8  C   UNL     1       1.405   3.872  18.325  0.00  0.00    +0.000 C 
ENDBRANCH   6   8
ENDBRANCH   5   6
ENDBRANCH   4   5
ENDBRANCH   1   4
BRANCH   1   9
ATOM      9  C   UNL     1       6.688   4.832  17.566  0.00  0.00    +0.000 C 
BRANCH   9  10
ATOM     10  C   UNL     1       6.200   5.849  16.516  0.00  0.00    +0.000 C 
BRANCH  10  11
ATOM     11  C   UNL     1       5.588   5.312  15.214  0.00  0.00    +0.000 C 
BRANCH  11  12
ATOM     12  C   UNL     1       6.516   4.226  14.635  0.00  0.00    +0.000 C 
ATOM     13  C   UNL     1       6.114   3.735  13.254  0.00  0.00    +0.000 C 
ENDBRANCH  11  12
ENDBRANCH  10  11
ENDBRANCH   9  10
ENDBRANCH   1   9
TORSDOF 9
ENDMDL
MODEL 6
REMARK VINA RESULT:      -5.0      4.381      5.667
REMARK  Name = 
REMARK  11 active torsions:
REMARK  status: ('A' for Active; 'I' for Inactive)
REMARK    1  A    between atoms: C_1  and  C_2
REMARK    2  A    between atoms: C_2  and  C_3
REMARK    3  A    between atoms: C_3  and  C_4
REMARK    4  A    between atoms: C_4  and  C_5
REMARK    5  A    between atoms: C_5  and  N_6
REMARK    6  A    between atoms: N_6  and  C_7
REMARK    7  A    between atoms: N_6  and  N_12
REMARK    8  A    between atoms: C_7  and  C_8
REMARK    9  A    between atoms: C_8  and  C_9
REMARK   10  A    between atoms: C_9  and  C_10
REMARK   11  A    between atoms: C_10  and  C_11
REMARK                            x       y       z     vdW  Elec       q    Type
REMARK                         _______ _______ _______ _____ _____    ______ ____
ROOT
ATOM      1  N   UNL     1       4.931   4.491  17.981  0.00  0.00    +0.000 N 
ENDROOT
BRANCH   1   2
ATOM      2  N   UNL     1       4.573   3.338  18.500  0.00  0.00    +0.000 NA
ATOM      3  O   UNL     1       5.094   3.180  19.612  0.00  0.00    +0.000 OA
ENDBRANCH   1   2
BRANCH   1   4
ATOM      4  C   UNL     1       6.064   4.390  17.050  0.00  0.00    +0.000 C 
BRANCH   4   5
ATOM      5  C   UNL     1       7.437   4.795  17.614  0.00  0.00    +0.000 C 
BRANCH   5   6
ATOM      6  C   UNL     1       7.464   6.113  18.406  0.00  0.00    +0.000 C 
BRANCH   6   8
ATOM      7  C   UNL     1       8.179   8.526  17.960  0.00  0.00    +0.000 C 
ATOM      8  C   UNL     1       7.425   7.308  17.442  0.00  0.00    +0.000 C 
ENDBRANCH   6   8
ENDBRANCH   5   6
ENDBRANCH   4   5
ENDBRANCH   1   4
BRANCH   1   9
ATOM      9  C   UNL     1       3.812   5.347  17.546  0.00  0.00    +0.000 C 
BRANCH   9  10
ATOM     10  C   UNL     1       2.498   5.426  18.346  0.00  0.00    +0.000 C 
BRANCH  10  11
ATOM     11  C   UNL     1       2.552   5.969  19.781  0.00  0.00    +0.000 C 
BRANCH  11  12
ATOM     12  C   UNL     1       2.143   4.849  20.757  0.00  0.00    +0.000 C 
ATOM     13  C   UNL     1       0.987   3.990  20.272  0.00  0.00    +0.000 C 
ENDBRANCH  11  12
ENDBRANCH  10  11
ENDBRANCH   9  10
ENDBRANCH   1   9
TORSDOF 9
ENDMDL
MODEL 7
REMARK VINA RESULT:      -4.9      1.342      5.196
REMARK  Name = 
REMARK  11 active torsions:
REMARK  status: ('A' for Active; 'I' for Inactive)
REMARK    1  A    between atoms: C_1  and  C_2
REMARK    2  A    between atoms: C_2  and  C_3
REMARK    3  A    between atoms: C_3  and  C_4
REMARK    4  A    between atoms: C_4  and  C_5
REMARK    5  A    between atoms: C_5  and  N_6
REMARK    6  A    between atoms: N_6  and  C_7
REMARK    7  A    between atoms: N_6  and  N_12
REMARK    8  A    between atoms: C_7  and  C_8
REMARK    9  A    between atoms: C_8  and  C_9
REMARK   10  A    between atoms: C_9  and  C_10
REMARK   11  A    between atoms: C_10  and  C_11
REMARK                            x       y       z     vdW  Elec       q    Type
REMARK                         _______ _______ _______ _____ _____    ______ ____
ROOT
ATOM      1  N   UNL     1       6.636   4.828  15.670  0.00  0.00    +0.000 N 
ENDROOT
BRANCH   1   2
ATOM      2  N   UNL     1       7.585   5.723  15.505  0.00  0.00    +0.000 NA
ATOM      3  O   UNL     1       8.049   5.659  14.359  0.00  0.00    +0.000 OA
ENDBRANCH   1   2
BRANCH   1   4
ATOM      4  C   UNL     1       6.049   4.836  17.017  0.00  0.00    +0.000 C 
BRANCH   4   5
ATOM      5  C   UNL     1       4.651   5.467  17.139  0.00  0.00    +0.000 C 
BRANCH   5   6
ATOM      6  C   UNL     1       3.628   4.658  17.953  0.00  0.00    +0.000 C 
BRANCH   6   8
ATOM      7  C   UNL     1       2.833   2.229  17.909  0.00  0.00    +0.000 C 
ATOM      8  C   UNL     1       3.076   3.501  17.107  0.00  0.00    +0.000 C 
ENDBRANCH   6   8
ENDBRANCH   5   6
ENDBRANCH   4   5
ENDBRANCH   1   4
BRANCH   1   9
ATOM      9  C   UNL     1       5.683   4.725  14.550  0.00  0.00    +0.000 C 
BRANCH   9  10
ATOM     10  C   UNL     1       5.534   3.427  13.734  0.00  0.00    +0.000 C 
BRANCH  10  11
ATOM     11  C   UNL     1       6.036   3.419  12.283  0.00  0.00    +0.000 C 
BRANCH  11  12
ATOM     12  C   UNL     1       5.074   2.576  11.423  0.00  0.00    +0.000 C 
ATOM     13  C   UNL     1       3.851   3.332  10.932  0.00  0.00    +0.000 C 
ENDBRANCH  11  12
ENDBRANCH  10  11
ENDBRANCH   9  10
ENDBRANCH   1   9
TORSDOF 9
ENDMDL
MODEL 8
REMARK VINA RESULT:      -4.9      1.510      1.903
REMARK  Name = 
REMARK  11 active torsions:
REMARK  status: ('A' for Active; 'I' for Inactive)
REMARK    1  A    between atoms: C_1  and  C_2
REMARK    2  A    between atoms: C_2  and  C_3
REMARK    3  A    between atoms: C_3  and  C_4
REMARK    4  A    between atoms: C_4  and  C_5
REMARK    5  A    between atoms: C_5  and  N_6
REMARK    6  A    between atoms: N_6  and  C_7
REMARK    7  A    between atoms: N_6  and  N_12
REMARK    8  A    between atoms: C_7  and  C_8
REMARK    9  A    between atoms: C_8  and  C_9
REMARK   10  A    between atoms: C_9  and  C_10
REMARK   11  A    between atoms: C_10  and  C_11
REMARK                            x       y       z     vdW  Elec       q    Type
REMARK                         _______ _______ _______ _____ _____    ______ ____
ROOT
ATOM      1  N   UNL     1       6.001   4.763  15.546  0.00  0.00    +0.000 N 
ENDROOT
BRANCH   1   2
ATOM      2  N   UNL     1       7.301   4.959  15.533  0.00  0.00    +0.000 NA
ATOM      3  O   UNL     1       7.583   6.043  16.060  0.00  0.00    +0.000 OA
ENDBRANCH   1   2
BRANCH   1   4
ATOM      4  C   UNL     1       5.493   4.109  14.330  0.00  0.00    +0.000 C 
BRANCH   4   5
ATOM      5  C   UNL     1       6.510   3.923  13.191  0.00  0.00    +0.000 C 
BRANCH   5   6
ATOM      6  C   UNL     1       5.963   3.257  11.918  0.00  0.00    +0.000 C 
BRANCH   6   8
ATOM      7  C   UNL     1       3.784   3.534  10.612  0.00  0.00    +0.000 C 
ATOM      8  C   UNL     1       4.429   3.225  11.957  0.00  0.00    +0.000 C 
ENDBRANCH   6   8
ENDBRANCH   5   6
ENDBRANCH   4   5
ENDBRANCH   1   4
BRANCH   1   9
ATOM      9  C   UNL     1       5.465   4.258  16.822  0.00  0.00    +0.000 C 
BRANCH   9  10
ATOM     10  C   UNL     1       3.986   4.448  17.209  0.00  0.00    +0.000 C 
BRANCH  10  11
ATOM     11  C   UNL     1       3.068   3.217  17.201  0.00  0.00    +0.000 C 
BRANCH  11  12
ATOM     12  C   UNL     1       2.488   3.015  18.614  0.00  0.00    +0.000 C 
ATOM     13  C   UNL     1       1.009   2.663  18.637  0.00  0.00    +0.000 C 
ENDBRANCH  11  12
ENDBRANCH  10  11
ENDBRANCH   9  10
ENDBRANCH   1   9
TORSDOF 9
ENDMDL
MODEL 9
REMARK VINA RESULT:      -4.9      1.458      5.576
REMARK  Name = 
REMARK  11 active torsions:
REMARK  status: ('A' for Active; 'I' for Inactive)
REMARK    1  A    between atoms: C_1  and  C_2
REMARK    2  A    between atoms: C_2  and  C_3
REMARK    3  A    between atoms: C_3  and  C_4
REMARK    4  A    between atoms: C_4  and  C_5
REMARK    5  A    between atoms: C_5  and  N_6
REMARK    6  A    between atoms: N_6  and  C_7
REMARK    7  A    between atoms: N_6  and  N_12
REMARK    8  A    between atoms: C_7  and  C_8
REMARK    9  A    between atoms: C_8  and  C_9
REMARK   10  A    between atoms: C_9  and  C_10
REMARK   11  A    between atoms: C_10  and  C_11
REMARK                            x       y       z     vdW  Elec       q    Type
REMARK                         _______ _______ _______ _____ _____    ______ ____
ROOT
ATOM      1  N   UNL     1       6.419   4.393  15.491  0.00  0.00    +0.000 N 
ENDROOT
BRANCH   1   2
ATOM      2  N   UNL     1       7.553   4.864  15.961  0.00  0.00    +0.000 NA
ATOM      3  O   UNL     1       7.496   6.094  16.085  0.00  0.00    +0.000 OA
ENDBRANCH   1   2
BRANCH   1   4
ATOM      4  C   UNL     1       5.231   5.064  16.041  0.00  0.00    +0.000 C 
BRANCH   4   5
ATOM      5  C   UNL     1       4.310   4.193  16.913  0.00  0.00    +0.000 C 
BRANCH   5   6
ATOM      6  C   UNL     1       3.362   4.963  17.847  0.00  0.00    +0.000 C 
BRANCH   6   8
ATOM      7  C   UNL     1       1.789   2.981  18.205  0.00  0.00    +0.000 C 
ATOM      8  C   UNL     1       1.933   4.415  17.715  0.00  0.00    +0.000 C 
ENDBRANCH   6   8
ENDBRANCH   5   6
ENDBRANCH   4   5
ENDBRANCH   1   4
BRANCH   1   9
ATOM      9  C   UNL     1       6.407   4.148  14.038  0.00  0.00    +0.000 C 
BRANCH   9  10
ATOM     10  C   UNL     1       5.134   3.679  13.308  0.00  0.00    +0.000 C 
BRANCH  10  11
ATOM     11  C   UNL     1       5.254   3.249  11.839  0.00  0.00    +0.000 C 
BRANCH  11  12
ATOM     12  C   UNL     1       6.571   2.472  11.650  0.00  0.00    +0.000 C 
ATOM     13  C   UNL     1       6.396   1.080  11.065  0.00  0.00    +0.000 C 
ENDBRANCH  11  12
ENDBRANCH  10  11
ENDBRANCH   9  10
ENDBRANCH   1   9
TORSDOF 9
ENDMDL
