MODEL 1
REMARK VINA RESULT:      -7.6      0.000      0.000
REMARK  Name = 
REMARK  9 active torsions:
REMARK  status: ('A' for Active; 'I' for Inactive)
REMARK    1  A    between atoms: C_1  and  O_2
REMARK    2  A    between atoms: O_2  and  C_3
REMARK    3  A    between atoms: N_11  and  S_12
REMARK    4  A    between atoms: S_12  and  C_15
REMARK    5  A    between atoms: C_17  and  N_18
REMARK    6  A    between atoms: C_19  and  C_21
REMARK    7  A    between atoms: C_21  and  C_22
REMARK    8  A    between atoms: C_21  and  C_23
REMARK    9  A    between atoms: C_21  and  C_24
REMARK                            x       y       z     vdW  Elec       q    Type
REMARK                         _______ _______ _______ _____ _____    ______ ____
ROOT
ATOM      1  S   UNL     1       5.956   6.172  16.313  0.00  0.00    +0.000 S 
ATOM      2  O   UNL     1       5.535   6.912  15.139  0.00  0.00    +0.000 OA
ATOM      3  O   UNL     1       6.677   4.927  16.165  0.00  0.00    +0.000 OA
ENDROOT
BRANCH   1  12
ATOM      4  C   UNL     1       9.767  11.006  18.734  0.00  0.00    +0.000 A 
ATOM      5  C   UNL     1       8.894  11.694  17.928  0.00  0.00    +0.000 A 
ATOM      6  C   UNL     1       7.825  10.968  17.469  0.00  0.00    +0.000 A 
ATOM      7  N   UNL     1       7.644   9.665  17.753  0.00  0.00    +0.000 NA
ATOM      8  C   UNL     1       8.554   9.094  18.559  0.00  0.00    +0.000 A 
ATOM      9  N   UNL     1       8.458   7.757  18.880  0.00  0.00    +0.000 N 
ATOM     10  C   UNL     1       7.693   6.807  18.287  0.00  0.00    +0.000 C 
ATOM     11  O   UNL     1       7.734   5.656  18.706  0.00  0.00    +0.000 OA
ATOM     12  N   UNL     1       6.899   7.184  17.214  0.00  0.00    +0.000 N 
ATOM     13  N   UNL     1       9.604   9.722  19.092  0.00  0.00    +0.000 NA
ATOM     14  H   UNL     1       9.118   7.426  19.564  0.00  0.00    +0.000 HD
ATOM     15  H   UNL     1       6.779   8.178  17.018  0.00  0.00    +0.000 HD
BRANCH   4  17
ATOM     16  C   UNL     1      11.721  12.129  18.110  0.00  0.00    +0.000 C 
ATOM     17  O   UNL     1      10.875  11.701  19.174  0.00  0.00    +0.000 OA
ENDBRANCH   4  17
ENDBRANCH   1  12
BRANCH   1  18
ATOM     18  C   UNL     1       4.530   5.914  17.321  0.00  0.00    +0.000 A 
ATOM     19  C   UNL     1       3.908   7.043  17.882  0.00  0.00    +0.000 A 
ATOM     20  C   UNL     1       2.730   6.912  18.618  0.00  0.00    +0.000 A 
ATOM     21  C   UNL     1       2.172   5.641  18.774  0.00  0.00    +0.000 A 
ATOM     22  C   UNL     1       2.802   4.513  18.237  0.00  0.00    +0.000 A 
ATOM     23  C   UNL     1       3.988   4.643  17.506  0.00  0.00    +0.000 A 
ATOM     24 CL   UNL     1       4.664   3.191  16.859  0.00  0.00    +0.000 Cl
BRANCH  20  25
ATOM     25  N   UNL     1       2.048   8.008  19.189  0.00  0.00    +0.000 N 
ATOM     26  C   UNL     1       1.554   9.111  18.509  0.00  0.00    +0.000 C 
ATOM     27  O   UNL     1       1.740   9.329  17.314  0.00  0.00    +0.000 OA
ATOM     28  H   UNL     1       2.001   8.027  20.200  0.00  0.00    +0.000 HD
BRANCH  26  29
ATOM     29  C   UNL     1       0.768  10.116  19.380  0.00  0.00    +0.000 C 
ATOM     30  C   UNL     1      -0.688  10.215  18.902  0.00  0.00    +0.000 C 
ATOM     31  C   UNL     1       0.769   9.622  20.841  0.00  0.00    +0.000 C 
ATOM     32  C   UNL     1       1.434  11.498  19.336  0.00  0.00    +0.000 C 
ENDBRANCH  26  29
ENDBRANCH  20  25
ENDBRANCH   1  18
TORSDOF 5
ENDMDL
MODEL 2
REMARK VINA RESULT:      -7.6      8.327     11.931
REMARK  Name = 
REMARK  9 active torsions:
REMARK  status: ('A' for Active; 'I' for Inactive)
REMARK    1  A    between atoms: C_1  and  O_2
REMARK    2  A    between atoms: O_2  and  C_3
REMARK    3  A    between atoms: N_11  and  S_12
REMARK    4  A    between atoms: S_12  and  C_15
REMARK    5  A    between atoms: C_17  and  N_18
REMARK    6  A    between atoms: C_19  and  C_21
REMARK    7  A    between atoms: C_21  and  C_22
REMARK    8  A    between atoms: C_21  and  C_23
REMARK    9  A    between atoms: C_21  and  C_24
REMARK                            x       y       z     vdW  Elec       q    Type
REMARK                         _______ _______ _______ _____ _____    ______ ____
ROOT
ATOM      1  S   UNL     1      -6.135  12.518  21.014  0.00  0.00    +0.000 S 
ATOM      2  O   UNL     1      -6.716  13.834  20.834  0.00  0.00    +0.000 OA
ATOM      3  O   UNL     1      -6.894  11.472  21.665  0.00  0.00    +0.000 OA
ENDROOT
BRANCH   1  12
ATOM      4  C   UNL     1      -3.115  10.412  15.519  0.00  0.00    +0.000 A 
ATOM      5  C   UNL     1      -2.333   9.872  16.512  0.00  0.00    +0.000 A 
ATOM      6  C   UNL     1      -2.858   9.948  17.776  0.00  0.00    +0.000 A 
ATOM      7  N   UNL     1      -4.038  10.535  18.050  0.00  0.00    +0.000 NA
ATOM      8  C   UNL     1      -4.724  11.021  17.002  0.00  0.00    +0.000 A 
ATOM      9  N   UNL     1      -5.930  11.660  17.196  0.00  0.00    +0.000 N 
ATOM     10  C   UNL     1      -6.454  12.123  18.358  0.00  0.00    +0.000 C 
ATOM     11  O   UNL     1      -7.551  12.672  18.344  0.00  0.00    +0.000 OA
ATOM     12  N   UNL     1      -5.713  11.962  19.518  0.00  0.00    +0.000 N 
ATOM     13  N   UNL     1      -4.323  10.959  15.731  0.00  0.00    +0.000 NA
ATOM     14  H   UNL     1      -6.429  11.908  16.358  0.00  0.00    +0.000 HD
ATOM     15  H   UNL     1      -4.893  11.355  19.497  0.00  0.00    +0.000 HD
BRANCH   4  17
ATOM     16  C   UNL     1      -3.494   9.845  13.282  0.00  0.00    +0.000 C 
ATOM     17  O   UNL     1      -2.591  10.388  14.242  0.00  0.00    +0.000 OA
ENDBRANCH   4  17
ENDBRANCH   1  12
BRANCH   1  18
ATOM     18  C   UNL     1      -4.588  12.726  21.839  0.00  0.00    +0.000 A 
ATOM     19  C   UNL     1      -3.425  12.789  21.051  0.00  0.00    +0.000 A 
ATOM     20  C   UNL     1      -2.183  13.037  21.636  0.00  0.00    +0.000 A 
ATOM     21  C   UNL     1      -2.119  13.235  23.017  0.00  0.00    +0.000 A 
ATOM     22  C   UNL     1      -3.270  13.150  23.807  0.00  0.00    +0.000 A 
ATOM     23  C   UNL     1      -4.514  12.893  23.222  0.00  0.00    +0.000 A 
ATOM     24 CL   UNL     1      -5.875  12.841  24.283  0.00  0.00    +0.000 Cl
BRANCH  20  25
ATOM     25  N   UNL     1      -0.984  13.131  20.897  0.00  0.00    +0.000 N 
ATOM     26  C   UNL     1      -0.275  12.074  20.347  0.00  0.00    +0.000 C 
ATOM     27  O   UNL     1      -0.548  10.889  20.524  0.00  0.00    +0.000 OA
ATOM     28  H   UNL     1      -0.561  14.049  20.847  0.00  0.00    +0.000 HD
BRANCH  26  29
ATOM     29  C   UNL     1       0.957  12.482  19.509  0.00  0.00    +0.000 C 
ATOM     30  C   UNL     1       0.593  13.619  18.542  0.00  0.00    +0.000 C 
ATOM     31  C   UNL     1       2.065  12.984  20.456  0.00  0.00    +0.000 C 
ATOM     32  C   UNL     1       1.496  11.276  18.728  0.00  0.00    +0.000 C 
ENDBRANCH  26  29
ENDBRANCH  20  25
ENDBRANCH   1  18
TORSDOF 5
ENDMDL
MODEL 3
REMARK VINA RESULT:      -7.4      5.569      8.655
REMARK  Name = 
REMARK  9 active torsions:
REMARK  status: ('A' for Active; 'I' for Inactive)
REMARK    1  A    between atoms: C_1  and  O_2
REMARK    2  A    between atoms: O_2  and  C_3
REMARK    3  A    between atoms: N_11  and  S_12
REMARK    4  A    between atoms: S_12  and  C_15
REMARK    5  A    between atoms: C_17  and  N_18
REMARK    6  A    between atoms: C_19  and  C_21
REMARK    7  A    between atoms: C_21  and  C_22
REMARK    8  A    between atoms: C_21  and  C_23
REMARK    9  A    between atoms: C_21  and  C_24
REMARK                            x       y       z     vdW  Elec       q    Type
REMARK                         _______ _______ _______ _____ _____    ______ ____
ROOT
ATOM      1  S   UNL     1       0.675  11.608  20.328  0.00  0.00    +0.000 S 
ATOM      2  O   UNL     1       0.567  12.144  21.670  0.00  0.00    +0.000 OA
ATOM      3  O   UNL     1       1.569  12.222  19.371  0.00  0.00    +0.000 OA
ENDROOT
BRANCH   1  12
ATOM      4  C   UNL     1       2.068   5.192  19.523  0.00  0.00    +0.000 A 
ATOM      5  C   UNL     1       2.451   5.731  18.319  0.00  0.00    +0.000 A 
ATOM      6  C   UNL     1       2.496   7.101  18.279  0.00  0.00    +0.000 A 
ATOM      7  N   UNL     1       2.162   7.880  19.325  0.00  0.00    +0.000 NA
ATOM      8  C   UNL     1       1.811   7.246  20.457  0.00  0.00    +0.000 A 
ATOM      9  N   UNL     1       1.430   7.968  21.568  0.00  0.00    +0.000 N 
ATOM     10  C   UNL     1       1.096   9.280  21.639  0.00  0.00    +0.000 C 
ATOM     11  O   UNL     1       0.778   9.760  22.722  0.00  0.00    +0.000 OA
ATOM     12  N   UNL     1       1.117  10.024  20.469  0.00  0.00    +0.000 N 
ATOM     13  N   UNL     1       1.776   5.922  20.612  0.00  0.00    +0.000 NA
ATOM     14  H   UNL     1       1.277   7.429  22.404  0.00  0.00    +0.000 HD
ATOM     15  H   UNL     1       1.547   9.618  19.638  0.00  0.00    +0.000 HD
BRANCH   4  17
ATOM     16  C   UNL     1       1.622   3.233  18.325  0.00  0.00    +0.000 C 
ATOM     17  O   UNL     1       1.971   3.816  19.579  0.00  0.00    +0.000 OA
ENDBRANCH   4  17
ENDBRANCH   1  12
BRANCH   1  18
ATOM     18  C   UNL     1      -0.954  11.533  19.651  0.00  0.00    +0.000 A 
ATOM     19  C   UNL     1      -1.943  12.353  20.223  0.00  0.00    +0.000 A 
ATOM     20  C   UNL     1      -3.227  12.402  19.680  0.00  0.00    +0.000 A 
ATOM     21  C   UNL     1      -3.508  11.632  18.549  0.00  0.00    +0.000 A 
ATOM     22  C   UNL     1      -2.533  10.797  17.992  0.00  0.00    +0.000 A 
ATOM     23  C   UNL     1      -1.248  10.742  18.541  0.00  0.00    +0.000 A 
ATOM     24 CL   UNL     1      -0.112   9.704  17.756  0.00  0.00    +0.000 Cl
BRANCH  20  25
ATOM     25  N   UNL     1      -4.256  13.219  20.196  0.00  0.00    +0.000 N 
ATOM     26  C   UNL     1      -4.799  13.146  21.470  0.00  0.00    +0.000 C 
ATOM     27  O   UNL     1      -4.522  12.276  22.293  0.00  0.00    +0.000 OA
ATOM     28  H   UNL     1      -4.694  13.853  19.541  0.00  0.00    +0.000 HD
BRANCH  26  29
ATOM     29  C   UNL     1      -5.852  14.229  21.793  0.00  0.00    +0.000 C 
ATOM     30  C   UNL     1      -5.439  15.576  21.180  0.00  0.00    +0.000 C 
ATOM     31  C   UNL     1      -7.205  13.812  21.183  0.00  0.00    +0.000 C 
ATOM     32  C   UNL     1      -6.026  14.371  23.311  0.00  0.00    +0.000 C 
ENDBRANCH  26  29
ENDBRANCH  20  25
ENDBRANCH   1  18
TORSDOF 5
ENDMDL
MODEL 4
REMARK VINA RESULT:      -7.4      5.754      9.651
REMARK  Name = 
REMARK  9 active torsions:
REMARK  status: ('A' for Active; 'I' for Inactive)
REMARK    1  A    between atoms: C_1  and  O_2
REMARK    2  A    between atoms: O_2  and  C_3
REMARK    3  A    between atoms: N_11  and  S_12
REMARK    4  A    between atoms: S_12  and  C_15
REMARK    5  A    between atoms: C_17  and  N_18
REMARK    6  A    between atoms: C_19  and  C_21
REMARK    7  A    between atoms: C_21  and  C_22
REMARK    8  A    between atoms: C_21  and  C_23
REMARK    9  A    between atoms: C_21  and  C_24
REMARK                            x       y       z     vdW  Elec       q    Type
REMARK                         _______ _______ _______ _____ _____    ______ ____
ROOT
ATOM      1  S   UNL     1       0.724  10.157  21.184  0.00  0.00    +0.000 S 
ATOM      2  O   UNL     1       1.533  11.350  21.335  0.00  0.00    +0.000 OA
ATOM      3  O   UNL     1       0.389   9.356  22.341  0.00  0.00    +0.000 OA
ENDROOT
BRANCH   1  12
ATOM      4  C   UNL     1      -4.304  11.603  17.137  0.00  0.00    +0.000 A 
ATOM      5  C   UNL     1      -3.785  10.466  16.568  0.00  0.00    +0.000 A 
ATOM      6  C   UNL     1      -2.865   9.797  17.334  0.00  0.00    +0.000 A 
ATOM      7  N   UNL     1      -2.461  10.227  18.544  0.00  0.00    +0.000 NA
ATOM      8  C   UNL     1      -3.042  11.347  19.007  0.00  0.00    +0.000 A 
ATOM      9  N   UNL     1      -2.668  11.870  20.227  0.00  0.00    +0.000 N 
ATOM     10  C   UNL     1      -1.577  11.563  20.970  0.00  0.00    +0.000 C 
ATOM     11  O   UNL     1      -1.400  12.134  22.041  0.00  0.00    +0.000 OA
ATOM     12  N   UNL     1      -0.694  10.616  20.474  0.00  0.00    +0.000 N 
ATOM     13  N   UNL     1      -3.977  12.046  18.362  0.00  0.00    +0.000 NA
ATOM     14  H   UNL     1      -3.215  12.652  20.549  0.00  0.00    +0.000 HD
ATOM     15  H   UNL     1      -0.975  10.058  19.668  0.00  0.00    +0.000 HD
BRANCH   4  17
ATOM     16  C   UNL     1      -6.245  12.908  17.142  0.00  0.00    +0.000 C 
ATOM     17  O   UNL     1      -5.201  12.320  16.370  0.00  0.00    +0.000 OA
ENDBRANCH   4  17
ENDBRANCH   1  12
BRANCH   1  18
ATOM     18  C   UNL     1       1.496   9.140  19.965  0.00  0.00    +0.000 A 
ATOM     19  C   UNL     1       1.809   7.814  20.316  0.00  0.00    +0.000 A 
ATOM     20  C   UNL     1       2.343   6.937  19.371  0.00  0.00    +0.000 A 
ATOM     21  C   UNL     1       2.546   7.395  18.067  0.00  0.00    +0.000 A 
ATOM     22  C   UNL     1       2.258   8.720  17.721  0.00  0.00    +0.000 A 
ATOM     23  C   UNL     1       1.731   9.602  18.670  0.00  0.00    +0.000 A 
ATOM     24 CL   UNL     1       1.380  11.204  18.130  0.00  0.00    +0.000 Cl
BRANCH  20  25
ATOM     25  N   UNL     1       2.659   5.591  19.657  0.00  0.00    +0.000 N 
ATOM     26  C   UNL     1       1.775   4.618  20.099  0.00  0.00    +0.000 C 
ATOM     27  O   UNL     1       0.604   4.831  20.404  0.00  0.00    +0.000 OA
ATOM     28  H   UNL     1       3.640   5.345  19.621  0.00  0.00    +0.000 HD
BRANCH  26  29
ATOM     29  C   UNL     1       2.382   3.204  20.242  0.00  0.00    +0.000 C 
ATOM     30  C   UNL     1       1.610   2.200  19.374  0.00  0.00    +0.000 C 
ATOM     31  C   UNL     1       3.847   3.236  19.763  0.00  0.00    +0.000 C 
ATOM     32  C   UNL     1       2.362   2.759  21.711  0.00  0.00    +0.000 C 
ENDBRANCH  26  29
ENDBRANCH  20  25
ENDBRANCH   1  18
TORSDOF 5
ENDMDL
MODEL 5
REMARK VINA RESULT:      -7.3      5.634      9.790
REMARK  Name = 
REMARK  9 active torsions:
REMARK  status: ('A' for Active; 'I' for Inactive)
REMARK    1  A    between atoms: C_1  and  O_2
REMARK    2  A    between atoms: O_2  and  C_3
REMARK    3  A    between atoms: N_11  and  S_12
REMARK    4  A    between atoms: S_12  and  C_15
REMARK    5  A    between atoms: C_17  and  N_18
REMARK    6  A    between atoms: C_19  and  C_21
REMARK    7  A    between atoms: C_21  and  C_22
REMARK    8  A    between atoms: C_21  and  C_23
REMARK    9  A    between atoms: C_21  and  C_24
REMARK                            x       y       z     vdW  Elec       q    Type
REMARK                         _______ _______ _______ _____ _____    ______ ____
ROOT
ATOM      1  S   UNL     1       0.669  10.773  21.216  0.00  0.00    +0.000 S 
ATOM      2  O   UNL     1       1.459  11.986  21.136  0.00  0.00    +0.000 OA
ATOM      3  O   UNL     1       0.409  10.159  22.500  0.00  0.00    +0.000 OA
ENDROOT
BRANCH   1  12
ATOM      4  C   UNL     1      -4.515  11.721  17.218  0.00  0.00    +0.000 A 
ATOM      5  C   UNL     1      -3.905  10.626  16.656  0.00  0.00    +0.000 A 
ATOM      6  C   UNL     1      -2.920  10.051  17.417  0.00  0.00    +0.000 A 
ATOM      7  N   UNL     1      -2.541  10.530  18.617  0.00  0.00    +0.000 NA
ATOM      8  C   UNL     1      -3.212  11.600  19.074  0.00  0.00    +0.000 A 
ATOM      9  N   UNL     1      -2.872  12.170  20.283  0.00  0.00    +0.000 N 
ATOM     10  C   UNL     1      -1.749  11.970  21.016  0.00  0.00    +0.000 C 
ATOM     11  O   UNL     1      -1.611  12.568  22.077  0.00  0.00    +0.000 OA
ATOM     12  N   UNL     1      -0.792  11.097  20.520  0.00  0.00    +0.000 N 
ATOM     13  N   UNL     1      -4.213  12.207  18.433  0.00  0.00    +0.000 NA
ATOM     14  H   UNL     1      -3.481  12.905  20.603  0.00  0.00    +0.000 HD
ATOM     15  H   UNL     1      -1.033  10.506  19.724  0.00  0.00    +0.000 HD
BRANCH   4  17
ATOM     16  C   UNL     1      -6.485  12.983  17.242  0.00  0.00    +0.000 C 
ATOM     17  O   UNL     1      -5.480  12.347  16.455  0.00  0.00    +0.000 OA
ENDBRANCH   4  17
ENDBRANCH   1  12
BRANCH   1  18
ATOM     18  C   UNL     1       1.400   9.588  20.131  0.00  0.00    +0.000 A 
ATOM     19  C   UNL     1       1.571   8.276  20.609  0.00  0.00    +0.000 A 
ATOM     20  C   UNL     1       2.065   7.274  19.772  0.00  0.00    +0.000 A 
ATOM     21  C   UNL     1       2.372   7.595  18.448  0.00  0.00    +0.000 A 
ATOM     22  C   UNL     1       2.225   8.904  17.977  0.00  0.00    +0.000 A 
ATOM     23  C   UNL     1       1.738   9.911  18.817  0.00  0.00    +0.000 A 
ATOM     24 CL   UNL     1       1.564  11.483  18.126  0.00  0.00    +0.000 Cl
BRANCH  20  25
ATOM     25  N   UNL     1       2.240   5.936  20.187  0.00  0.00    +0.000 N 
ATOM     26  C   UNL     1       2.042   4.805  19.409  0.00  0.00    +0.000 C 
ATOM     27  O   UNL     1       1.581   4.818  18.271  0.00  0.00    +0.000 OA
ATOM     28  H   UNL     1       2.440   5.796  21.169  0.00  0.00    +0.000 HD
BRANCH  26  29
ATOM     29  C   UNL     1       2.401   3.470  20.100  0.00  0.00    +0.000 C 
ATOM     30  C   UNL     1       2.193   3.580  21.618  0.00  0.00    +0.000 C 
ATOM     31  C   UNL     1       1.474   2.362  19.560  0.00  0.00    +0.000 C 
ATOM     32  C   UNL     1       3.853   3.081  19.791  0.00  0.00    +0.000 C 
ENDBRANCH  26  29
ENDBRANCH  20  25
ENDBRANCH   1  18
TORSDOF 5
ENDMDL
MODEL 6
REMARK VINA RESULT:      -7.3      5.586      8.527
REMARK  Name = 
REMARK  9 active torsions:
REMARK  status: ('A' for Active; 'I' for Inactive)
REMARK    1  A    between atoms: C_1  and  O_2
REMARK    2  A    between atoms: O_2  and  C_3
REMARK    3  A    between atoms: N_11  and  S_12
REMARK    4  A    between atoms: S_12  and  C_15
REMARK    5  A    between atoms: C_17  and  N_18
REMARK    6  A    between atoms: C_19  and  C_21
REMARK    7  A    between atoms: C_21  and  C_22
REMARK    8  A    between atoms: C_21  and  C_23
REMARK    9  A    between atoms: C_21  and  C_24
REMARK                            x       y       z     vdW  Elec       q    Type
REMARK                         _______ _______ _______ _____ _____    ______ ____
ROOT
ATOM      1  S   UNL     1       0.672  11.266  20.224  0.00  0.00    +0.000 S 
ATOM      2  O   UNL     1       0.322  11.788  21.531  0.00  0.00    +0.000 OA
ATOM      3  O   UNL     1       1.694  11.915  19.433  0.00  0.00    +0.000 OA
ENDROOT
BRANCH   1  12
ATOM      4  C   UNL     1       2.133   4.836  19.707  0.00  0.00    +0.000 A 
ATOM      5  C   UNL     1       2.495   5.321  18.474  0.00  0.00    +0.000 A 
ATOM      6  C   UNL     1       2.524   6.688  18.369  0.00  0.00    +0.000 A 
ATOM      7  N   UNL     1       2.193   7.512  19.381  0.00  0.00    +0.000 NA
ATOM      8  C   UNL     1       1.863   6.929  20.546  0.00  0.00    +0.000 A 
ATOM      9  N   UNL     1       1.486   7.698  21.626  0.00  0.00    +0.000 N 
ATOM     10  C   UNL     1       1.136   9.008  21.639  0.00  0.00    +0.000 C 
ATOM     11  O   UNL     1       0.826   9.535  22.702  0.00  0.00    +0.000 OA
ATOM     12  N   UNL     1       1.135   9.696  20.435  0.00  0.00    +0.000 N 
ATOM     13  N   UNL     1       1.846   5.613  20.764  0.00  0.00    +0.000 NA
ATOM     14  H   UNL     1       1.350   7.197  22.488  0.00  0.00    +0.000 HD
ATOM     15  H   UNL     1       1.560   9.256  19.619  0.00  0.00    +0.000 HD
BRANCH   4  17
ATOM     16  C   UNL     1       1.469   3.048  21.061  0.00  0.00    +0.000 C 
ATOM     17  O   UNL     1       2.054   3.463  19.829  0.00  0.00    +0.000 OA
ENDBRANCH   4  17
ENDBRANCH   1  12
BRANCH   1  18
ATOM     18  C   UNL     1      -0.816  11.144  19.282  0.00  0.00    +0.000 A 
ATOM     19  C   UNL     1      -1.927  11.896  19.707  0.00  0.00    +0.000 A 
ATOM     20  C   UNL     1      -3.104  11.908  18.958  0.00  0.00    +0.000 A 
ATOM     21  C   UNL     1      -3.154  11.172  17.772  0.00  0.00    +0.000 A 
ATOM     22  C   UNL     1      -2.058  10.405  17.359  0.00  0.00    +0.000 A 
ATOM     23  C   UNL     1      -0.881  10.386  18.114  0.00  0.00    +0.000 A 
ATOM     24 CL   UNL     1       0.420   9.433  17.498  0.00  0.00    +0.000 Cl
BRANCH  20  25
ATOM     25  N   UNL     1      -4.245  12.656  19.321  0.00  0.00    +0.000 N 
ATOM     26  C   UNL     1      -5.537  12.170  19.450  0.00  0.00    +0.000 C 
ATOM     27  O   UNL     1      -5.880  11.026  19.159  0.00  0.00    +0.000 OA
ATOM     28  H   UNL     1      -4.115  13.656  19.402  0.00  0.00    +0.000 HD
BRANCH  26  29
ATOM     29  C   UNL     1      -6.573  13.201  19.950  0.00  0.00    +0.000 C 
ATOM     30  C   UNL     1      -5.901  14.560  20.196  0.00  0.00    +0.000 C 
ATOM     31  C   UNL     1      -7.661  13.383  18.873  0.00  0.00    +0.000 C 
ATOM     32  C   UNL     1      -7.245  12.702  21.238  0.00  0.00    +0.000 C 
ENDBRANCH  26  29
ENDBRANCH  20  25
ENDBRANCH   1  18
TORSDOF 5
ENDMDL
MODEL 7
REMARK VINA RESULT:      -7.3      4.823      9.872
REMARK  Name = 
REMARK  9 active torsions:
REMARK  status: ('A' for Active; 'I' for Inactive)
REMARK    1  A    between atoms: C_1  and  O_2
REMARK    2  A    between atoms: O_2  and  C_3
REMARK    3  A    between atoms: N_11  and  S_12
REMARK    4  A    between atoms: S_12  and  C_15
REMARK    5  A    between atoms: C_17  and  N_18
REMARK    6  A    between atoms: C_19  and  C_21
REMARK    7  A    between atoms: C_21  and  C_22
REMARK    8  A    between atoms: C_21  and  C_23
REMARK    9  A    between atoms: C_21  and  C_24
REMARK                            x       y       z     vdW  Elec       q    Type
REMARK                         _______ _______ _______ _____ _____    ______ ____
ROOT
ATOM      1  S   UNL     1       0.967  10.940  19.522  0.00  0.00    +0.000 S 
ATOM      2  O   UNL     1       1.753  11.387  18.389  0.00  0.00    +0.000 OA
ATOM      3  O   UNL     1       1.085  11.611  20.798  0.00  0.00    +0.000 OA
ENDROOT
BRANCH   1  12
ATOM      4  C   UNL     1      -5.607  11.534  19.095  0.00  0.00    +0.000 A 
ATOM      5  C   UNL     1      -5.279  12.518  19.996  0.00  0.00    +0.000 A 
ATOM      6  C   UNL     1      -3.939  12.788  20.105  0.00  0.00    +0.000 A 
ATOM      7  N   UNL     1      -2.995  12.126  19.411  0.00  0.00    +0.000 NA
ATOM      8  C   UNL     1      -3.429  11.189  18.551  0.00  0.00    +0.000 A 
ATOM      9  N   UNL     1      -2.528  10.446  17.818  0.00  0.00    +0.000 N 
ATOM     10  C   UNL     1      -1.191  10.325  18.011  0.00  0.00    +0.000 C 
ATOM     11  O   UNL     1      -0.538   9.613  17.256  0.00  0.00    +0.000 OA
ATOM     12  N   UNL     1      -0.620  11.011  19.072  0.00  0.00    +0.000 N 
ATOM     13  N   UNL     1      -4.710  10.880  18.339  0.00  0.00    +0.000 NA
ATOM     14  H   UNL     1      -2.930   9.836  17.127  0.00  0.00    +0.000 HD
ATOM     15  H   UNL     1      -1.176  11.713  19.559  0.00  0.00    +0.000 HD
BRANCH   4  17
ATOM     16  C   UNL     1      -7.599  11.163  20.263  0.00  0.00    +0.000 C 
ATOM     17  O   UNL     1      -6.945  11.210  18.997  0.00  0.00    +0.000 OA
ENDBRANCH   4  17
ENDBRANCH   1  12
BRANCH   1  18
ATOM     18  C   UNL     1       1.269   9.213  19.732  0.00  0.00    +0.000 A 
ATOM     19  C   UNL     1       2.075   8.565  18.779  0.00  0.00    +0.000 A 
ATOM     20  C   UNL     1       2.419   7.221  18.936  0.00  0.00    +0.000 A 
ATOM     21  C   UNL     1       1.961   6.537  20.064  0.00  0.00    +0.000 A 
ATOM     22  C   UNL     1       1.140   7.173  21.002  0.00  0.00    +0.000 A 
ATOM     23  C   UNL     1       0.787   8.517  20.840  0.00  0.00    +0.000 A 
ATOM     24 CL   UNL     1      -0.202   9.213  22.073  0.00  0.00    +0.000 Cl
BRANCH  20  25
ATOM     25  N   UNL     1       3.239   6.521  18.025  0.00  0.00    +0.000 N 
ATOM     26  C   UNL     1       4.367   5.779  18.341  0.00  0.00    +0.000 C 
ATOM     27  O   UNL     1       4.865   5.718  19.463  0.00  0.00    +0.000 OA
ATOM     28  H   UNL     1       3.032   6.655  17.044  0.00  0.00    +0.000 HD
BRANCH  26  29
ATOM     29  C   UNL     1       5.018   5.043  17.149  0.00  0.00    +0.000 C 
ATOM     30  C   UNL     1       5.149   5.986  15.945  0.00  0.00    +0.000 C 
ATOM     31  C   UNL     1       6.429   4.574  17.558  0.00  0.00    +0.000 C 
ATOM     32  C   UNL     1       4.189   3.809  16.766  0.00  0.00    +0.000 C 
ENDBRANCH  26  29
ENDBRANCH  20  25
ENDBRANCH   1  18
TORSDOF 5
ENDMDL
MODEL 8
REMARK VINA RESULT:      -7.3      4.427      7.649
REMARK  Name = 
REMARK  9 active torsions:
REMARK  status: ('A' for Active; 'I' for Inactive)
REMARK    1  A    between atoms: C_1  and  O_2
REMARK    2  A    between atoms: O_2  and  C_3
REMARK    3  A    between atoms: N_11  and  S_12
REMARK    4  A    between atoms: S_12  and  C_15
REMARK    5  A    between atoms: C_17  and  N_18
REMARK    6  A    between atoms: C_19  and  C_21
REMARK    7  A    between atoms: C_21  and  C_22
REMARK    8  A    between atoms: C_21  and  C_23
REMARK    9  A    between atoms: C_21  and  C_24
REMARK                            x       y       z     vdW  Elec       q    Type
REMARK                         _______ _______ _______ _____ _____    ______ ____
ROOT
ATOM      1  S   UNL     1       4.333   3.316  18.795  0.00  0.00    +0.000 S 
ATOM      2  O   UNL     1       5.028   2.917  20.003  0.00  0.00    +0.000 OA
ATOM      3  O   UNL     1       3.481   2.374  18.103  0.00  0.00    +0.000 OA
ENDROOT
BRANCH   1  12
ATOM      4  C   UNL     1       1.541   9.274  19.471  0.00  0.00    +0.000 A 
ATOM      5  C   UNL     1       1.924   9.275  18.152  0.00  0.00    +0.000 A 
ATOM      6  C   UNL     1       2.327   8.061  17.659  0.00  0.00    +0.000 A 
ATOM      7  N   UNL     1       2.381   6.943  18.407  0.00  0.00    +0.000 NA
ATOM      8  C   UNL     1       1.973   7.054  19.682  0.00  0.00    +0.000 A 
ATOM      9  N   UNL     1       2.019   5.964  20.525  0.00  0.00    +0.000 N 
ATOM     10  C   UNL     1       2.674   4.791  20.340  0.00  0.00    +0.000 C 
ATOM     11  O   UNL     1       2.605   3.923  21.204  0.00  0.00    +0.000 OA
ATOM     12  N   UNL     1       3.409   4.629  19.176  0.00  0.00    +0.000 N 
ATOM     13  N   UNL     1       1.524   8.177  20.246  0.00  0.00    +0.000 NA
ATOM     14  H   UNL     1       1.608   6.100  21.433  0.00  0.00    +0.000 HD
ATOM     15  H   UNL     1       3.295   5.311  18.425  0.00  0.00    +0.000 HD
BRANCH   4  17
ATOM     16  C   UNL     1       0.748  10.397  21.364  0.00  0.00    +0.000 C 
ATOM     17  O   UNL     1       1.172  10.491  20.006  0.00  0.00    +0.000 OA
ENDBRANCH   4  17
ENDBRANCH   1  12
BRANCH   1  18
ATOM     18  C   UNL     1       5.537   3.957  17.674  0.00  0.00    +0.000 A 
ATOM     19  C   UNL     1       5.525   3.479  16.351  0.00  0.00    +0.000 A 
ATOM     20  C   UNL     1       6.395   4.007  15.397  0.00  0.00    +0.000 A 
ATOM     21  C   UNL     1       7.268   5.030  15.777  0.00  0.00    +0.000 A 
ATOM     22  C   UNL     1       7.298   5.491  17.097  0.00  0.00    +0.000 A 
ATOM     23  C   UNL     1       6.432   4.955  18.056  0.00  0.00    +0.000 A 
ATOM     24 CL   UNL     1       6.530   5.618  19.647  0.00  0.00    +0.000 Cl
BRANCH  20  25
ATOM     25  N   UNL     1       6.417   3.584  14.050  0.00  0.00    +0.000 N 
ATOM     26  C   UNL     1       5.351   3.616  13.164  0.00  0.00    +0.000 C 
ATOM     27  O   UNL     1       4.203   3.927  13.471  0.00  0.00    +0.000 OA
ATOM     28  H   UNL     1       7.266   3.131  13.739  0.00  0.00    +0.000 HD
BRANCH  26  29
ATOM     29  C   UNL     1       5.689   3.174  11.723  0.00  0.00    +0.000 C 
ATOM     30  C   UNL     1       4.551   3.554  10.765  0.00  0.00    +0.000 C 
ATOM     31  C   UNL     1       6.973   3.895  11.264  0.00  0.00    +0.000 C 
ATOM     32  C   UNL     1       5.940   1.660  11.672  0.00  0.00    +0.000 C 
ENDBRANCH  26  29
ENDBRANCH  20  25
ENDBRANCH   1  18
TORSDOF 5
ENDMDL
MODEL 9
REMARK VINA RESULT:      -7.3      4.154      4.982
REMARK  Name = 
REMARK  9 active torsions:
REMARK  status: ('A' for Active; 'I' for Inactive)
REMARK    1  A    between atoms: C_1  and  O_2
REMARK    2  A    between atoms: O_2  and  C_3
REMARK    3  A    between atoms: N_11  and  S_12
REMARK    4  A    between atoms: S_12  and  C_15
REMARK    5  A    between atoms: C_17  and  N_18
REMARK    6  A    between atoms: C_19  and  C_21
REMARK    7  A    between atoms: C_21  and  C_22
REMARK    8  A    between atoms: C_21  and  C_23
REMARK    9  A    between atoms: C_21  and  C_24
REMARK                            x       y       z     vdW  Elec       q    Type
REMARK                         _______ _______ _______ _____ _____    ______ ____
ROOT
ATOM      1  S   UNL     1       4.285   2.748  19.051  0.00  0.00    +0.000 S 
ATOM      2  O   UNL     1       3.487   1.806  18.292  0.00  0.00    +0.000 OA
ATOM      3  O   UNL     1       5.208   2.272  20.058  0.00  0.00    +0.000 OA
ENDROOT
BRANCH   1  12
ATOM      4  C   UNL     1       7.563   5.183  13.847  0.00  0.00    +0.000 A 
ATOM      5  C   UNL     1       6.517   4.519  13.253  0.00  0.00    +0.000 A 
ATOM      6  C   UNL     1       5.526   4.106  14.107  0.00  0.00    +0.000 A 
ATOM      7  N   UNL     1       5.573   4.300  15.438  0.00  0.00    +0.000 NA
ATOM      8  C   UNL     1       6.638   4.969  15.910  0.00  0.00    +0.000 A 
ATOM      9  N   UNL     1       6.777   5.189  17.264  0.00  0.00    +0.000 N 
ATOM     10  C   UNL     1       6.105   4.596  18.282  0.00  0.00    +0.000 C 
ATOM     11  O   UNL     1       6.361   4.916  19.437  0.00  0.00    +0.000 OA
ATOM     12  N   UNL     1       5.156   3.636  17.965  0.00  0.00    +0.000 N 
ATOM     13  N   UNL     1       7.632   5.450  15.161  0.00  0.00    +0.000 NA
ATOM     14  H   UNL     1       7.547   5.780  17.531  0.00  0.00    +0.000 HD
ATOM     15  H   UNL     1       4.868   3.532  16.992  0.00  0.00    +0.000 HD
BRANCH   4  17
ATOM     16  C   UNL     1       8.141   6.222  11.833  0.00  0.00    +0.000 C 
ATOM     17  O   UNL     1       8.595   5.571  13.017  0.00  0.00    +0.000 OA
ENDBRANCH   4  17
ENDBRANCH   1  12
BRANCH   1  18
ATOM     18  C   UNL     1       3.182   3.925  19.770  0.00  0.00    +0.000 A 
ATOM     19  C   UNL     1       3.022   5.160  19.118  0.00  0.00    +0.000 A 
ATOM     20  C   UNL     1       2.102   6.098  19.590  0.00  0.00    +0.000 A 
ATOM     21  C   UNL     1       1.334   5.780  20.713  0.00  0.00    +0.000 A 
ATOM     22  C   UNL     1       1.508   4.561  21.377  0.00  0.00    +0.000 A 
ATOM     23  C   UNL     1       2.436   3.625  20.910  0.00  0.00    +0.000 A 
ATOM     24 CL   UNL     1       2.548   2.140  21.784  0.00  0.00    +0.000 Cl
BRANCH  20  25
ATOM     25  N   UNL     1       1.881   7.346  18.969  0.00  0.00    +0.000 N 
ATOM     26  C   UNL     1       1.428   8.501  19.589  0.00  0.00    +0.000 C 
ATOM     27  O   UNL     1       1.056   8.560  20.758  0.00  0.00    +0.000 OA
ATOM     28  H   UNL     1       1.976   7.366  17.962  0.00  0.00    +0.000 HD
BRANCH  26  29
ATOM     29  C   UNL     1       1.367   9.747  18.678  0.00  0.00    +0.000 C 
ATOM     30  C   UNL     1       2.499   9.708  17.641  0.00  0.00    +0.000 C 
ATOM     31  C   UNL     1       0.020   9.756  17.928  0.00  0.00    +0.000 C 
ATOM     32  C   UNL     1       1.463  11.029  19.517  0.00  0.00    +0.000 C 
ENDBRANCH  26  29
ENDBRANCH  20  25
ENDBRANCH   1  18
TORSDOF 5
ENDMDL
