MODEL 1
REMARK VINA RESULT:      -7.4      0.000      0.000
REMARK  Name = 
REMARK  11 active torsions:
REMARK  status: ('A' for Active; 'I' for Inactive)
REMARK    1  A    between atoms: C_1  and  C_2
REMARK    2  A    between atoms: C_5  and  C_6
REMARK    3  A    between atoms: C_6  and  C_7
REMARK    4  A    between atoms: C_9  and  C_10
REMARK    5  A    between atoms: C_10  and  N_11
REMARK    6  A    between atoms: N_11  and  C_12
REMARK    7  A    between atoms: C_13  and  O_15
REMARK    8  A    between atoms: O_15  and  C_16
REMARK    9  A    between atoms: C_16  and  C_17
REMARK   10  A    between atoms: C_16  and  C_18
REMARK   11  A    between atoms: C_16  and  C_19
REMARK                            x       y       z     vdW  Elec       q    Type
REMARK                         _______ _______ _______ _____ _____    ______ ____
ROOT
ATOM      1  C   UNL     1       6.808   4.678  15.025  0.00  0.00    +0.000 A 
ATOM      2  N   UNL     1       5.714   4.997  15.684  0.00  0.00    +0.000 NA
ATOM      3  C   UNL     1       6.179   5.115  16.972  0.00  0.00    +0.000 A 
ATOM      4  N   UNL     1       7.460   4.744  17.136  0.00  0.00    +0.000 NA
ATOM      5  O   UNL     1       7.886   4.466  15.838  0.00  0.00    +0.000 OA
ENDROOT
BRANCH   1   6
ATOM      6  C   UNL     1       7.077   4.770  13.568  0.00  0.00    +0.000 C 
BRANCH   6  11
ATOM      7  C   UNL     1       6.293   0.807  10.920  0.00  0.00    +0.000 C 
ATOM      8  C   UNL     1       5.878   2.084  11.534  0.00  0.00    +0.000 A 
ATOM      9  C   UNL     1       4.696   2.778  11.551  0.00  0.00    +0.000 A 
ATOM     10  C   UNL     1       4.917   3.945  12.315  0.00  0.00    +0.000 A 
ATOM     11  C   UNL     1       6.227   3.881  12.743  0.00  0.00    +0.000 A 
ATOM     12  O   UNL     1       6.822   2.753  12.253  0.00  0.00    +0.000 OA
ENDBRANCH   6  11
ENDBRANCH   1   6
BRANCH   3  13
ATOM     13  C   UNL     1       5.362   5.648  18.103  0.00  0.00    +0.000 C 
BRANCH  13  14
ATOM     14  N   UNL     1       4.090   4.938  18.317  0.00  0.00    +0.000 N 
ATOM     15  C   UNL     1       2.848   5.378  17.702  0.00  0.00    +0.000 C 
ATOM     16  C   UNL     1       4.091   3.827  19.122  0.00  0.00    +0.000 C 
ATOM     17  O   UNL     1       5.121   3.389  19.648  0.00  0.00    +0.000 OA
BRANCH  16  18
ATOM     18  O   UNL     1       2.856   3.273  19.296  0.00  0.00    +0.000 OA
BRANCH  18  19
ATOM     19  C   UNL     1       2.136   3.490  20.537  0.00  0.00    +0.000 C 
ATOM     20  C   UNL     1       2.325   4.927  21.041  0.00  0.00    +0.000 C 
ATOM     21  C   UNL     1       0.638   3.233  20.260  0.00  0.00    +0.000 C 
ATOM     22  C   UNL     1       2.598   2.470  21.580  0.00  0.00    +0.000 C 
ENDBRANCH  18  19
ENDBRANCH  16  18
ENDBRANCH  13  14
ENDBRANCH   3  13
TORSDOF 6
ENDMDL
MODEL 2
REMARK VINA RESULT:      -7.3      0.765      1.178
REMARK  Name = 
REMARK  11 active torsions:
REMARK  status: ('A' for Active; 'I' for Inactive)
REMARK    1  A    between atoms: C_1  and  C_2
REMARK    2  A    between atoms: C_5  and  C_6
REMARK    3  A    between atoms: C_6  and  C_7
REMARK    4  A    between atoms: C_9  and  C_10
REMARK    5  A    between atoms: C_10  and  N_11
REMARK    6  A    between atoms: N_11  and  C_12
REMARK    7  A    between atoms: C_13  and  O_15
REMARK    8  A    between atoms: O_15  and  C_16
REMARK    9  A    between atoms: C_16  and  C_17
REMARK   10  A    between atoms: C_16  and  C_18
REMARK   11  A    between atoms: C_16  and  C_19
REMARK                            x       y       z     vdW  Elec       q    Type
REMARK                         _______ _______ _______ _____ _____    ______ ____
ROOT
ATOM      1  C   UNL     1       6.727   4.681  14.630  0.00  0.00    +0.000 A 
ATOM      2  N   UNL     1       5.587   4.890  15.254  0.00  0.00    +0.000 NA
ATOM      3  C   UNL     1       6.009   5.224  16.519  0.00  0.00    +0.000 A 
ATOM      4  N   UNL     1       7.331   5.087  16.718  0.00  0.00    +0.000 NA
ATOM      5  O   UNL     1       7.813   4.739  15.456  0.00  0.00    +0.000 OA
ENDROOT
BRANCH   1   6
ATOM      6  C   UNL     1       6.996   4.654  13.171  0.00  0.00    +0.000 C 
BRANCH   6  11
ATOM      7  C   UNL     1       6.123   0.454  10.950  0.00  0.00    +0.000 C 
ATOM      8  C   UNL     1       5.746   1.807  11.404  0.00  0.00    +0.000 A 
ATOM      9  C   UNL     1       4.594   2.545  11.301  0.00  0.00    +0.000 A 
ATOM     10  C   UNL     1       4.843   3.781  11.939  0.00  0.00    +0.000 A 
ATOM     11  C   UNL     1       6.134   3.712  12.419  0.00  0.00    +0.000 A 
ATOM     12  O   UNL     1       6.695   2.514  12.077  0.00  0.00    +0.000 OA
ENDBRANCH   6  11
ENDBRANCH   1   6
BRANCH   3  13
ATOM     13  C   UNL     1       5.101   5.739  17.587  0.00  0.00    +0.000 C 
BRANCH  13  14
ATOM     14  N   UNL     1       4.544   4.695  18.464  0.00  0.00    +0.000 N 
ATOM     15  C   UNL     1       5.371   3.954  19.401  0.00  0.00    +0.000 C 
ATOM     16  C   UNL     1       3.201   4.426  18.385  0.00  0.00    +0.000 C 
ATOM     17  O   UNL     1       2.443   5.044  17.628  0.00  0.00    +0.000 OA
BRANCH  16  18
ATOM     18  O   UNL     1       2.795   3.411  19.200  0.00  0.00    +0.000 OA
BRANCH  18  19
ATOM     19  C   UNL     1       1.949   3.697  20.343  0.00  0.00    +0.000 C 
ATOM     20  C   UNL     1       1.951   5.197  20.670  0.00  0.00    +0.000 C 
ATOM     21  C   UNL     1       0.514   3.248  19.988  0.00  0.00    +0.000 C 
ATOM     22  C   UNL     1       2.413   2.868  21.543  0.00  0.00    +0.000 C 
ENDBRANCH  18  19
ENDBRANCH  16  18
ENDBRANCH  13  14
ENDBRANCH   3  13
TORSDOF 6
ENDMDL
MODEL 3
REMARK VINA RESULT:      -7.2      1.144      1.496
REMARK  Name = 
REMARK  11 active torsions:
REMARK  status: ('A' for Active; 'I' for Inactive)
REMARK    1  A    between atoms: C_1  and  C_2
REMARK    2  A    between atoms: C_5  and  C_6
REMARK    3  A    between atoms: C_6  and  C_7
REMARK    4  A    between atoms: C_9  and  C_10
REMARK    5  A    between atoms: C_10  and  N_11
REMARK    6  A    between atoms: N_11  and  C_12
REMARK    7  A    between atoms: C_13  and  O_15
REMARK    8  A    between atoms: O_15  and  C_16
REMARK    9  A    between atoms: C_16  and  C_17
REMARK   10  A    between atoms: C_16  and  C_18
REMARK   11  A    between atoms: C_16  and  C_19
REMARK                            x       y       z     vdW  Elec       q    Type
REMARK                         _______ _______ _______ _____ _____    ______ ____
ROOT
ATOM      1  C   UNL     1       6.825   4.847  14.380  0.00  0.00    +0.000 A 
ATOM      2  N   UNL     1       5.627   4.741  14.914  0.00  0.00    +0.000 NA
ATOM      3  C   UNL     1       5.761   5.477  16.067  0.00  0.00    +0.000 A 
ATOM      4  N   UNL     1       7.013   5.894  16.318  0.00  0.00    +0.000 NA
ATOM      5  O   UNL     1       7.721   5.489  15.187  0.00  0.00    +0.000 OA
ENDROOT
BRANCH   1   6
ATOM      6  C   UNL     1       7.242   4.607  12.976  0.00  0.00    +0.000 C 
BRANCH   6  11
ATOM      7  C   UNL     1       3.245   3.133  10.699  0.00  0.00    +0.000 C 
ATOM      8  C   UNL     1       4.600   2.928  11.245  0.00  0.00    +0.000 A 
ATOM      9  C   UNL     1       5.454   1.854  11.263  0.00  0.00    +0.000 A 
ATOM     10  C   UNL     1       6.623   2.272  11.936  0.00  0.00    +0.000 A 
ATOM     11  C   UNL     1       6.421   3.594  12.271  0.00  0.00    +0.000 A 
ATOM     12  O   UNL     1       5.179   3.994  11.866  0.00  0.00    +0.000 OA
ENDBRANCH   6  11
ENDBRANCH   1   6
BRANCH   3  13
ATOM     13  C   UNL     1       4.618   5.831  16.962  0.00  0.00    +0.000 C 
BRANCH  13  14
ATOM     14  N   UNL     1       3.978   4.676  17.613  0.00  0.00    +0.000 N 
ATOM     15  C   UNL     1       3.272   3.657  16.854  0.00  0.00    +0.000 C 
ATOM     16  C   UNL     1       4.063   4.568  18.979  0.00  0.00    +0.000 C 
ATOM     17  O   UNL     1       4.676   5.387  19.673  0.00  0.00    +0.000 OA
BRANCH  16  18
ATOM     18  O   UNL     1       3.396   3.491  19.487  0.00  0.00    +0.000 OA
BRANCH  18  19
ATOM     19  C   UNL     1       2.190   3.691  20.267  0.00  0.00    +0.000 C 
ATOM     20  C   UNL     1       1.813   5.178  20.329  0.00  0.00    +0.000 C 
ATOM     21  C   UNL     1       1.053   2.899  19.585  0.00  0.00    +0.000 C 
ATOM     22  C   UNL     1       2.386   3.110  21.669  0.00  0.00    +0.000 C 
ENDBRANCH  18  19
ENDBRANCH  16  18
ENDBRANCH  13  14
ENDBRANCH   3  13
TORSDOF 6
ENDMDL
MODEL 4
REMARK VINA RESULT:      -7.2      1.271      1.648
REMARK  Name = 
REMARK  11 active torsions:
REMARK  status: ('A' for Active; 'I' for Inactive)
REMARK    1  A    between atoms: C_1  and  C_2
REMARK    2  A    between atoms: C_5  and  C_6
REMARK    3  A    between atoms: C_6  and  C_7
REMARK    4  A    between atoms: C_9  and  C_10
REMARK    5  A    between atoms: C_10  and  N_11
REMARK    6  A    between atoms: N_11  and  C_12
REMARK    7  A    between atoms: C_13  and  O_15
REMARK    8  A    between atoms: O_15  and  C_16
REMARK    9  A    between atoms: C_16  and  C_17
REMARK   10  A    between atoms: C_16  and  C_18
REMARK   11  A    between atoms: C_16  and  C_19
REMARK                            x       y       z     vdW  Elec       q    Type
REMARK                         _______ _______ _______ _____ _____    ______ ____
ROOT
ATOM      1  C   UNL     1       6.792   5.031  14.375  0.00  0.00    +0.000 A 
ATOM      2  N   UNL     1       5.598   5.194  14.904  0.00  0.00    +0.000 NA
ATOM      3  C   UNL     1       5.884   5.904  16.046  0.00  0.00    +0.000 A 
ATOM      4  N   UNL     1       7.195   6.048  16.297  0.00  0.00    +0.000 NA
ATOM      5  O   UNL     1       7.803   5.480  15.177  0.00  0.00    +0.000 OA
ENDROOT
BRANCH   1   6
ATOM      6  C   UNL     1       7.152   4.682  12.978  0.00  0.00    +0.000 C 
BRANCH   6  11
ATOM      7  C   UNL     1       6.097   0.410  10.985  0.00  0.00    +0.000 C 
ATOM      8  C   UNL     1       5.756   1.774  11.433  0.00  0.00    +0.000 A 
ATOM      9  C   UNL     1       4.593   2.503  11.423  0.00  0.00    +0.000 A 
ATOM     10  C   UNL     1       4.893   3.760  11.995  0.00  0.00    +0.000 A 
ATOM     11  C   UNL     1       6.227   3.713  12.345  0.00  0.00    +0.000 A 
ATOM     12  O   UNL     1       6.761   2.508  11.987  0.00  0.00    +0.000 OA
ENDBRANCH   6  11
ENDBRANCH   1   6
BRANCH   3  13
ATOM     13  C   UNL     1       4.841   6.511  16.927  0.00  0.00    +0.000 C 
BRANCH  13  14
ATOM     14  N   UNL     1       4.547   5.731  18.141  0.00  0.00    +0.000 N 
ATOM     15  C   UNL     1       5.573   4.975  18.839  0.00  0.00    +0.000 C 
ATOM     16  C   UNL     1       3.260   5.730  18.619  0.00  0.00    +0.000 C 
ATOM     17  O   UNL     1       2.353   6.378  18.085  0.00  0.00    +0.000 OA
BRANCH  16  18
ATOM     18  O   UNL     1       3.083   4.939  19.716  0.00  0.00    +0.000 OA
BRANCH  18  19
ATOM     19  C   UNL     1       2.257   3.749  19.622  0.00  0.00    +0.000 C 
ATOM     20  C   UNL     1       0.891   3.972  20.285  0.00  0.00    +0.000 C 
ATOM     21  C   UNL     1       2.058   3.434  18.123  0.00  0.00    +0.000 C 
ATOM     22  C   UNL     1       2.993   2.565  20.253  0.00  0.00    +0.000 C 
ENDBRANCH  18  19
ENDBRANCH  16  18
ENDBRANCH  13  14
ENDBRANCH   3  13
TORSDOF 6
ENDMDL
MODEL 5
REMARK VINA RESULT:      -7.2      0.998      1.234
REMARK  Name = 
REMARK  11 active torsions:
REMARK  status: ('A' for Active; 'I' for Inactive)
REMARK    1  A    between atoms: C_1  and  C_2
REMARK    2  A    between atoms: C_5  and  C_6
REMARK    3  A    between atoms: C_6  and  C_7
REMARK    4  A    between atoms: C_9  and  C_10
REMARK    5  A    between atoms: C_10  and  N_11
REMARK    6  A    between atoms: N_11  and  C_12
REMARK    7  A    between atoms: C_13  and  O_15
REMARK    8  A    between atoms: O_15  and  C_16
REMARK    9  A    between atoms: C_16  and  C_17
REMARK   10  A    between atoms: C_16  and  C_18
REMARK   11  A    between atoms: C_16  and  C_19
REMARK                            x       y       z     vdW  Elec       q    Type
REMARK                         _______ _______ _______ _____ _____    ______ ____
ROOT
ATOM      1  C   UNL     1       6.890   4.941  14.721  0.00  0.00    +0.000 A 
ATOM      2  N   UNL     1       6.005   5.679  15.358  0.00  0.00    +0.000 NA
ATOM      3  C   UNL     1       6.508   5.690  16.637  0.00  0.00    +0.000 A 
ATOM      4  N   UNL     1       7.564   4.882  16.826  0.00  0.00    +0.000 NA
ATOM      5  O   UNL     1       7.830   4.392  15.547  0.00  0.00    +0.000 OA
ENDROOT
BRANCH   1   6
ATOM      6  C   UNL     1       7.143   4.844  13.262  0.00  0.00    +0.000 C 
BRANCH   6  11
ATOM      7  C   UNL     1       6.290   0.736  10.869  0.00  0.00    +0.000 C 
ATOM      8  C   UNL     1       5.879   2.020  11.468  0.00  0.00    +0.000 A 
ATOM      9  C   UNL     1       4.672   2.665  11.572  0.00  0.00    +0.000 A 
ATOM     10  C   UNL     1       4.913   3.874  12.262  0.00  0.00    +0.000 A 
ATOM     11  C   UNL     1       6.259   3.884  12.562  0.00  0.00    +0.000 A 
ATOM     12  O   UNL     1       6.856   2.761  12.062  0.00  0.00    +0.000 OA
ENDBRANCH   6  11
ENDBRANCH   1   6
BRANCH   3  13
ATOM     13  C   UNL     1       5.969   6.551  17.733  0.00  0.00    +0.000 C 
BRANCH  13  14
ATOM     14  N   UNL     1       4.638   6.150  18.218  0.00  0.00    +0.000 N 
ATOM     15  C   UNL     1       3.426   6.833  17.797  0.00  0.00    +0.000 C 
ATOM     16  C   UNL     1       4.553   5.096  19.092  0.00  0.00    +0.000 C 
ATOM     17  O   UNL     1       5.546   4.458  19.463  0.00  0.00    +0.000 OA
BRANCH  16  18
ATOM     18  O   UNL     1       3.283   4.837  19.519  0.00  0.00    +0.000 OA
BRANCH  18  19
ATOM     19  C   UNL     1       2.765   3.483  19.463  0.00  0.00    +0.000 C 
ATOM     20  C   UNL     1       3.072   2.720  20.759  0.00  0.00    +0.000 C 
ATOM     21  C   UNL     1       1.235   3.576  19.270  0.00  0.00    +0.000 C 
ATOM     22  C   UNL     1       3.345   2.764  18.244  0.00  0.00    +0.000 C 
ENDBRANCH  18  19
ENDBRANCH  16  18
ENDBRANCH  13  14
ENDBRANCH   3  13
TORSDOF 6
ENDMDL
MODEL 6
REMARK VINA RESULT:      -7.1      1.317      1.892
REMARK  Name = 
REMARK  11 active torsions:
REMARK  status: ('A' for Active; 'I' for Inactive)
REMARK    1  A    between atoms: C_1  and  C_2
REMARK    2  A    between atoms: C_5  and  C_6
REMARK    3  A    between atoms: C_6  and  C_7
REMARK    4  A    between atoms: C_9  and  C_10
REMARK    5  A    between atoms: C_10  and  N_11
REMARK    6  A    between atoms: N_11  and  C_12
REMARK    7  A    between atoms: C_13  and  O_15
REMARK    8  A    between atoms: O_15  and  C_16
REMARK    9  A    between atoms: C_16  and  C_17
REMARK   10  A    between atoms: C_16  and  C_18
REMARK   11  A    between atoms: C_16  and  C_19
REMARK                            x       y       z     vdW  Elec       q    Type
REMARK                         _______ _______ _______ _____ _____    ______ ____
ROOT
ATOM      1  C   UNL     1       6.881   4.884  14.284  0.00  0.00    +0.000 A 
ATOM      2  N   UNL     1       5.679   4.795  14.814  0.00  0.00    +0.000 NA
ATOM      3  C   UNL     1       5.794   5.597  15.924  0.00  0.00    +0.000 A 
ATOM      4  N   UNL     1       7.039   6.043  16.161  0.00  0.00    +0.000 NA
ATOM      5  O   UNL     1       7.762   5.581  15.061  0.00  0.00    +0.000 OA
ENDROOT
BRANCH   1   6
ATOM      6  C   UNL     1       7.313   4.569  12.900  0.00  0.00    +0.000 C 
BRANCH   6  11
ATOM      7  C   UNL     1       3.235   3.096  10.770  0.00  0.00    +0.000 C 
ATOM      8  C   UNL     1       4.611   2.891  11.265  0.00  0.00    +0.000 A 
ATOM      9  C   UNL     1       5.466   1.818  11.247  0.00  0.00    +0.000 A 
ATOM     10  C   UNL     1       6.659   2.236  11.878  0.00  0.00    +0.000 A 
ATOM     11  C   UNL     1       6.468   3.557  12.223  0.00  0.00    +0.000 A 
ATOM     12  O   UNL     1       5.211   3.955  11.866  0.00  0.00    +0.000 OA
ENDBRANCH   6  11
ENDBRANCH   1   6
BRANCH   3  13
ATOM     13  C   UNL     1       4.640   5.989  16.788  0.00  0.00    +0.000 C 
BRANCH  13  14
ATOM     14  N   UNL     1       4.551   5.242  18.054  0.00  0.00    +0.000 N 
ATOM     15  C   UNL     1       5.663   4.462  18.569  0.00  0.00    +0.000 C 
ATOM     16  C   UNL     1       3.375   5.297  18.761  0.00  0.00    +0.000 C 
ATOM     17  O   UNL     1       2.406   5.967  18.388  0.00  0.00    +0.000 OA
BRANCH  16  18
ATOM     18  O   UNL     1       3.379   4.532  19.892  0.00  0.00    +0.000 OA
BRANCH  18  19
ATOM     19  C   UNL     1       2.353   3.526  20.085  0.00  0.00    +0.000 C 
ATOM     20  C   UNL     1       0.983   4.173  20.332  0.00  0.00    +0.000 C 
ATOM     21  C   UNL     1       2.293   2.665  18.804  0.00  0.00    +0.000 C 
ATOM     22  C   UNL     1       2.749   2.608  21.244  0.00  0.00    +0.000 C 
ENDBRANCH  18  19
ENDBRANCH  16  18
ENDBRANCH  13  14
ENDBRANCH   3  13
TORSDOF 6
ENDMDL
MODEL 7
REMARK VINA RESULT:      -7.1      1.221      1.715
REMARK  Name = 
REMARK  11 active torsions:
REMARK  status: ('A' for Active; 'I' for Inactive)
REMARK    1  A    between atoms: C_1  and  C_2
REMARK    2  A    between atoms: C_5  and  C_6
REMARK    3  A    between atoms: C_6  and  C_7
REMARK    4  A    between atoms: C_9  and  C_10
REMARK    5  A    between atoms: C_10  and  N_11
REMARK    6  A    between atoms: N_11  and  C_12
REMARK    7  A    between atoms: C_13  and  O_15
REMARK    8  A    between atoms: O_15  and  C_16
REMARK    9  A    between atoms: C_16  and  C_17
REMARK   10  A    between atoms: C_16  and  C_18
REMARK   11  A    between atoms: C_16  and  C_19
REMARK                            x       y       z     vdW  Elec       q    Type
REMARK                         _______ _______ _______ _____ _____    ______ ____
ROOT
ATOM      1  C   UNL     1       6.917   4.938  14.572  0.00  0.00    +0.000 A 
ATOM      2  N   UNL     1       6.090   5.755  15.191  0.00  0.00    +0.000 NA
ATOM      3  C   UNL     1       6.523   5.670  16.492  0.00  0.00    +0.000 A 
ATOM      4  N   UNL     1       7.469   4.740  16.704  0.00  0.00    +0.000 NA
ATOM      5  O   UNL     1       7.744   4.261  15.423  0.00  0.00    +0.000 OA
ENDROOT
BRANCH   1   6
ATOM      6  C   UNL     1       7.235   4.856  13.125  0.00  0.00    +0.000 C 
BRANCH   6  11
ATOM      7  C   UNL     1       3.301   3.103  10.938  0.00  0.00    +0.000 C 
ATOM      8  C   UNL     1       4.692   3.007  11.420  0.00  0.00    +0.000 A 
ATOM      9  C   UNL     1       5.644   2.021  11.353  0.00  0.00    +0.000 A 
ATOM     10  C   UNL     1       6.796   2.520  12.000  0.00  0.00    +0.000 A 
ATOM     11  C   UNL     1       6.484   3.801  12.405  0.00  0.00    +0.000 A 
ATOM     12  O   UNL     1       5.193   4.095  12.069  0.00  0.00    +0.000 OA
ENDBRANCH   6  11
ENDBRANCH   1   6
BRANCH   3  13
ATOM     13  C   UNL     1       6.028   6.555  17.590  0.00  0.00    +0.000 C 
BRANCH  13  14
ATOM     14  N   UNL     1       4.741   6.138  18.170  0.00  0.00    +0.000 N 
ATOM     15  C   UNL     1       3.471   6.618  17.653  0.00  0.00    +0.000 C 
ATOM     16  C   UNL     1       4.756   5.265  19.230  0.00  0.00    +0.000 C 
ATOM     17  O   UNL     1       5.804   4.800  19.693  0.00  0.00    +0.000 OA
BRANCH  16  18
ATOM     18  O   UNL     1       3.517   4.981  19.725  0.00  0.00    +0.000 OA
BRANCH  18  19
ATOM     19  C   UNL     1       2.951   3.659  19.538  0.00  0.00    +0.000 C 
ATOM     20  C   UNL     1       2.848   2.908  20.873  0.00  0.00    +0.000 C 
ATOM     21  C   UNL     1       1.539   3.834  18.935  0.00  0.00    +0.000 C 
ATOM     22  C   UNL     1       3.795   2.880  18.527  0.00  0.00    +0.000 C 
ENDBRANCH  18  19
ENDBRANCH  16  18
ENDBRANCH  13  14
ENDBRANCH   3  13
TORSDOF 6
ENDMDL
MODEL 8
REMARK VINA RESULT:      -7.0      1.144      1.208
REMARK  Name = 
REMARK  11 active torsions:
REMARK  status: ('A' for Active; 'I' for Inactive)
REMARK    1  A    between atoms: C_1  and  C_2
REMARK    2  A    between atoms: C_5  and  C_6
REMARK    3  A    between atoms: C_6  and  C_7
REMARK    4  A    between atoms: C_9  and  C_10
REMARK    5  A    between atoms: C_10  and  N_11
REMARK    6  A    between atoms: N_11  and  C_12
REMARK    7  A    between atoms: C_13  and  O_15
REMARK    8  A    between atoms: O_15  and  C_16
REMARK    9  A    between atoms: C_16  and  C_17
REMARK   10  A    between atoms: C_16  and  C_18
REMARK   11  A    between atoms: C_16  and  C_19
REMARK                            x       y       z     vdW  Elec       q    Type
REMARK                         _______ _______ _______ _____ _____    ______ ____
ROOT
ATOM      1  C   UNL     1       7.122   4.746  14.526  0.00  0.00    +0.000 A 
ATOM      2  N   UNL     1       6.557   3.861  15.320  0.00  0.00    +0.000 NA
ATOM      3  C   UNL     1       6.724   4.437  16.556  0.00  0.00    +0.000 A 
ATOM      4  N   UNL     1       7.482   5.546  16.555  0.00  0.00    +0.000 NA
ATOM      5  O   UNL     1       7.737   5.762  15.201  0.00  0.00    +0.000 OA
ENDROOT
BRANCH   1   6
ATOM      6  C   UNL     1       6.961   4.918  13.060  0.00  0.00    +0.000 C 
BRANCH   6  11
ATOM      7  C   UNL     1       6.285   0.579  11.046  0.00  0.00    +0.000 C 
ATOM      8  C   UNL     1       5.825   1.906  11.501  0.00  0.00    +0.000 A 
ATOM      9  C   UNL     1       4.604   2.530  11.494  0.00  0.00    +0.000 A 
ATOM     10  C   UNL     1       4.792   3.805  12.072  0.00  0.00    +0.000 A 
ATOM     11  C   UNL     1       6.124   3.874  12.422  0.00  0.00    +0.000 A 
ATOM     12  O   UNL     1       6.763   2.722  12.058  0.00  0.00    +0.000 OA
ENDBRANCH   6  11
ENDBRANCH   1   6
BRANCH   3  13
ATOM     13  C   UNL     1       6.091   3.917  17.806  0.00  0.00    +0.000 C 
BRANCH  13  14
ATOM     14  N   UNL     1       4.704   4.366  18.014  0.00  0.00    +0.000 N 
ATOM     15  C   UNL     1       4.375   5.759  18.270  0.00  0.00    +0.000 C 
ATOM     16  C   UNL     1       3.701   3.431  17.958  0.00  0.00    +0.000 C 
ATOM     17  O   UNL     1       3.917   2.239  17.714  0.00  0.00    +0.000 OA
BRANCH  16  18
ATOM     18  O   UNL     1       2.461   3.940  18.213  0.00  0.00    +0.000 OA
BRANCH  18  19
ATOM     19  C   UNL     1       1.732   3.509  19.390  0.00  0.00    +0.000 C 
ATOM     20  C   UNL     1       1.127   4.706  20.136  0.00  0.00    +0.000 C 
ATOM     21  C   UNL     1       0.599   2.569  18.921  0.00  0.00    +0.000 C 
ATOM     22  C   UNL     1       2.661   2.701  20.299  0.00  0.00    +0.000 C 
ENDBRANCH  18  19
ENDBRANCH  16  18
ENDBRANCH  13  14
ENDBRANCH   3  13
TORSDOF 6
ENDMDL
MODEL 9
REMARK VINA RESULT:      -7.0      1.287      1.580
REMARK  Name = 
REMARK  11 active torsions:
REMARK  status: ('A' for Active; 'I' for Inactive)
REMARK    1  A    between atoms: C_1  and  C_2
REMARK    2  A    between atoms: C_5  and  C_6
REMARK    3  A    between atoms: C_6  and  C_7
REMARK    4  A    between atoms: C_9  and  C_10
REMARK    5  A    between atoms: C_10  and  N_11
REMARK    6  A    between atoms: N_11  and  C_12
REMARK    7  A    between atoms: C_13  and  O_15
REMARK    8  A    between atoms: O_15  and  C_16
REMARK    9  A    between atoms: C_16  and  C_17
REMARK   10  A    between atoms: C_16  and  C_18
REMARK   11  A    between atoms: C_16  and  C_19
REMARK                            x       y       z     vdW  Elec       q    Type
REMARK                         _______ _______ _______ _____ _____    ______ ____
ROOT
ATOM      1  C   UNL     1       6.910   5.081  14.497  0.00  0.00    +0.000 A 
ATOM      2  N   UNL     1       7.111   4.372  15.588  0.00  0.00    +0.000 NA
ATOM      3  C   UNL     1       6.224   4.943  16.469  0.00  0.00    +0.000 A 
ATOM      4  N   UNL     1       5.610   6.043  16.004  0.00  0.00    +0.000 NA
ATOM      5  O   UNL     1       6.054   6.129  14.685  0.00  0.00    +0.000 OA
ENDROOT
BRANCH   1   6
ATOM      6  C   UNL     1       7.267   4.751  13.094  0.00  0.00    +0.000 C 
BRANCH   6  11
ATOM      7  C   UNL     1       6.215   0.576  10.904  0.00  0.00    +0.000 C 
ATOM      8  C   UNL     1       5.865   1.904  11.445  0.00  0.00    +0.000 A 
ATOM      9  C   UNL     1       4.688   2.605  11.528  0.00  0.00    +0.000 A 
ATOM     10  C   UNL     1       4.987   3.833  12.158  0.00  0.00    +0.000 A 
ATOM     11  C   UNL     1       6.335   3.798  12.447  0.00  0.00    +0.000 A 
ATOM     12  O   UNL     1       6.878   2.628  11.996  0.00  0.00    +0.000 OA
ENDBRANCH   6  11
ENDBRANCH   1   6
BRANCH   3  13
ATOM     13  C   UNL     1       5.920   4.382  17.820  0.00  0.00    +0.000 C 
BRANCH  13  14
ATOM     14  N   UNL     1       4.560   4.671  18.303  0.00  0.00    +0.000 N 
ATOM     15  C   UNL     1       4.269   5.817  19.147  0.00  0.00    +0.000 C 
ATOM     16  C   UNL     1       3.543   3.825  17.933  0.00  0.00    +0.000 C 
ATOM     17  O   UNL     1       3.725   2.852  17.193  0.00  0.00    +0.000 OA
BRANCH  16  18
ATOM     18  O   UNL     1       2.334   4.153  18.473  0.00  0.00    +0.000 OA
BRANCH  18  19
ATOM     19  C   UNL     1       1.755   3.316  19.507  0.00  0.00    +0.000 C 
ATOM     20  C   UNL     1       2.847   2.611  20.323  0.00  0.00    +0.000 C 
ATOM     21  C   UNL     1       0.924   4.228  20.437  0.00  0.00    +0.000 C 
ATOM     22  C   UNL     1       0.798   2.306  18.871  0.00  0.00    +0.000 C 
ENDBRANCH  18  19
ENDBRANCH  16  18
ENDBRANCH  13  14
ENDBRANCH   3  13
TORSDOF 6
ENDMDL
