MODEL 1
REMARK VINA RESULT:      -7.5      0.000      0.000
REMARK  Name = 
REMARK  15 active torsions:
REMARK  status: ('A' for Active; 'I' for Inactive)
REMARK    1  A    between atoms: C_1  and  O_2
REMARK    2  A    between atoms: O_2  and  C_3
REMARK    3  A    between atoms: C_6  and  C_7
REMARK    4  A    between atoms: C_8  and  C_9
REMARK    5  A    between atoms: C_11  and  O_12
REMARK    6  A    between atoms: O_12  and  C_13
REMARK    7  A    between atoms: C_14  and  O_15
REMARK    8  A    between atoms: O_15  and  C_16
REMARK    9  A    between atoms: C_17  and  O_18
REMARK   10  A    between atoms: O_18  and  C_19
REMARK   11  A    between atoms: C_21  and  N_22
REMARK   12  A    between atoms: C_23  and  CA_25
REMARK   13  A    between atoms: CA_25  and  N_26
REMARK   14  A    between atoms: CA_25  and  C_27
REMARK   15  A    between atoms: C_27  and  O_28
REMARK                            x       y       z     vdW  Elec       q    Type
REMARK                         _______ _______ _______ _____ _____    ______ ____
ROOT
ATOM      1  C   UNL     1       5.375   4.645  15.677  0.00  0.00    +0.000 A 
ATOM      2  C   UNL     1       5.546   6.024  15.571  0.00  0.00    +0.000 A 
ATOM      3  C   UNL     1       4.852   6.889  16.412  0.00  0.00    +0.000 A 
ATOM      4  C   UNL     1       3.978   6.394  17.388  0.00  0.00    +0.000 A 
ATOM      5  C   UNL     1       3.824   4.987  17.544  0.00  0.00    +0.000 A 
ATOM      6  C   UNL     1       4.533   4.134  16.683  0.00  0.00    +0.000 A 
ENDROOT
BRANCH   5   7
ATOM      7  N   UNL     1       3.001   4.369  18.542  0.00  0.00    +0.000 N 
ATOM      8  C   UNL     1       1.680   4.057  18.422  0.00  0.00    +0.000 C 
ATOM      9  O   UNL     1       1.092   4.200  17.360  0.00  0.00    +0.000 OA
ATOM     10  H   UNL     1       3.484   4.059  19.398  0.00  0.00    +0.000 HD
BRANCH   8  11
ATOM     11  CA  UNL     1       0.948   3.454  19.608  0.00  0.00    +0.000 C 
BRANCH  11  12
ATOM     12  N   UNL     1       1.164   4.245  20.819  0.00  0.00    +0.000 NA
ATOM     13  H1  UNL     1       0.494   3.965  21.571  0.00  0.00    +0.000 HD
ATOM     14  H2  UNL     1       1.013   5.259  20.597  0.00  0.00    +0.000 HD
ENDBRANCH  11  12
BRANCH  11  15
ATOM     15  C   UNL     1       1.394   1.994  19.821  0.00  0.00    +0.000 C 
BRANCH  15  16
ATOM     16  O   UNL     1       1.948   1.459  18.649  0.00  0.00    +0.000 OA
ATOM     17  H   UNL     1       2.070   2.214  18.017  0.00  0.00    +0.000 HD
ENDBRANCH  15  16
ENDBRANCH  11  15
ENDBRANCH   8  11
ENDBRANCH   5   7
BRANCH   1  19
ATOM     18  C   UNL     1       6.661   4.281  13.645  0.00  0.00    +0.000 C 
ATOM     19  O   UNL     1       6.015   3.847  14.785  0.00  0.00    +0.000 OA
ENDBRANCH   1  19
BRANCH   4  20
ATOM     20  C   UNL     1       3.282   7.399  18.200  0.00  0.00    +0.000 C 
ATOM     21  C   UNL     1       2.096   7.933  17.868  0.00  0.00    +0.000 C 
BRANCH  21  22
ATOM     22  C   UNL     1       1.418   8.958  18.710  0.00  0.00    +0.000 A 
ATOM     23  C   UNL     1       1.604   8.908  20.093  0.00  0.00    +0.000 A 
ATOM     24  C   UNL     1       0.921   9.797  20.947  0.00  0.00    +0.000 A 
ATOM     25  C   UNL     1       0.060  10.782  20.394  0.00  0.00    +0.000 A 
ATOM     26  C   UNL     1      -0.105  10.855  19.000  0.00  0.00    +0.000 A 
ATOM     27  C   UNL     1       0.573   9.944  18.173  0.00  0.00    +0.000 A 
BRANCH  24  28
ATOM     28  O   UNL     1       1.066   9.705  22.299  0.00  0.00    +0.000 OA
ATOM     29  C   UNL     1       0.085   9.367  23.201  0.00  0.00    +0.000 C 
ENDBRANCH  24  28
BRANCH  25  30
ATOM     30  O   UNL     1      -0.657  11.667  21.145  0.00  0.00    +0.000 OA
ATOM     31  C   UNL     1      -0.213  12.827  21.751  0.00  0.00    +0.000 C 
ENDBRANCH  25  30
BRANCH  26  32
ATOM     32  O   UNL     1      -0.945  11.797  18.485  0.00  0.00    +0.000 OA
ATOM     33  C   UNL     1      -0.580  13.071  18.086  0.00  0.00    +0.000 C 
ENDBRANCH  26  32
ENDBRANCH  21  22
ENDBRANCH   4  20
TORSDOF 11
ENDMDL
MODEL 2
REMARK VINA RESULT:      -7.4      1.241      2.520
REMARK  Name = 
REMARK  15 active torsions:
REMARK  status: ('A' for Active; 'I' for Inactive)
REMARK    1  A    between atoms: C_1  and  O_2
REMARK    2  A    between atoms: O_2  and  C_3
REMARK    3  A    between atoms: C_6  and  C_7
REMARK    4  A    between atoms: C_8  and  C_9
REMARK    5  A    between atoms: C_11  and  O_12
REMARK    6  A    between atoms: O_12  and  C_13
REMARK    7  A    between atoms: C_14  and  O_15
REMARK    8  A    between atoms: O_15  and  C_16
REMARK    9  A    between atoms: C_17  and  O_18
REMARK   10  A    between atoms: O_18  and  C_19
REMARK   11  A    between atoms: C_21  and  N_22
REMARK   12  A    between atoms: C_23  and  CA_25
REMARK   13  A    between atoms: CA_25  and  N_26
REMARK   14  A    between atoms: CA_25  and  C_27
REMARK   15  A    between atoms: C_27  and  O_28
REMARK                            x       y       z     vdW  Elec       q    Type
REMARK                         _______ _______ _______ _____ _____    ______ ____
ROOT
ATOM      1  C   UNL     1       5.639   5.014  16.185  0.00  0.00    +0.000 A 
ATOM      2  C   UNL     1       5.415   6.376  15.987  0.00  0.00    +0.000 A 
ATOM      3  C   UNL     1       4.426   7.042  16.706  0.00  0.00    +0.000 A 
ATOM      4  C   UNL     1       3.647   6.363  17.651  0.00  0.00    +0.000 A 
ATOM      5  C   UNL     1       3.891   4.984  17.903  0.00  0.00    +0.000 A 
ATOM      6  C   UNL     1       4.891   4.333  17.163  0.00  0.00    +0.000 A 
ENDROOT
BRANCH   5   7
ATOM      7  N   UNL     1       3.193   4.204  18.884  0.00  0.00    +0.000 N 
ATOM      8  C   UNL     1       2.052   3.487  18.684  0.00  0.00    +0.000 C 
ATOM      9  O   UNL     1       1.567   3.369  17.568  0.00  0.00    +0.000 OA
ATOM     10  H   UNL     1       3.652   4.117  19.802  0.00  0.00    +0.000 HD
BRANCH   8  11
ATOM     11  CA  UNL     1       1.415   2.762  19.857  0.00  0.00    +0.000 C 
BRANCH  11  12
ATOM     12  N   UNL     1      -0.028   2.617  19.666  0.00  0.00    +0.000 NA
ATOM     13  H1  UNL     1      -0.331   3.060  18.769  0.00  0.00    +0.000 HD
ATOM     14  H2  UNL     1      -0.528   3.089  20.458  0.00  0.00    +0.000 HD
ENDBRANCH  11  12
BRANCH  11  15
ATOM     15  C   UNL     1       1.723   3.504  21.171  0.00  0.00    +0.000 C 
BRANCH  15  16
ATOM     16  O   UNL     1       2.269   2.635  22.127  0.00  0.00    +0.000 OA
ATOM     17  H   UNL     1       2.562   1.821  21.642  0.00  0.00    +0.000 HD
ENDBRANCH  15  16
ENDBRANCH  11  15
ENDBRANCH   8  11
ENDBRANCH   5   7
BRANCH   1  19
ATOM     18  C   UNL     1       6.339   3.921  14.128  0.00  0.00    +0.000 C 
ATOM     19  O   UNL     1       6.561   4.395  15.405  0.00  0.00    +0.000 OA
ENDBRANCH   1  19
BRANCH   4  20
ATOM     20  C   UNL     1       2.619   7.160  18.331  0.00  0.00    +0.000 C 
ATOM     21  C   UNL     1       2.401   8.461  18.085  0.00  0.00    +0.000 C 
BRANCH  21  22
ATOM     22  C   UNL     1       1.355   9.246  18.798  0.00  0.00    +0.000 A 
ATOM     23  C   UNL     1       0.355   9.860  18.038  0.00  0.00    +0.000 A 
ATOM     24  C   UNL     1      -0.611  10.685  18.648  0.00  0.00    +0.000 A 
ATOM     25  C   UNL     1      -0.594  10.867  20.056  0.00  0.00    +0.000 A 
ATOM     26  C   UNL     1       0.392  10.225  20.826  0.00  0.00    +0.000 A 
ATOM     27  C   UNL     1       1.355   9.423  20.191  0.00  0.00    +0.000 A 
BRANCH  24  28
ATOM     28  O   UNL     1      -1.549  11.324  17.893  0.00  0.00    +0.000 OA
ATOM     29  C   UNL     1      -2.806  10.856  17.593  0.00  0.00    +0.000 C 
ENDBRANCH  24  28
BRANCH  25  30
ATOM     30  O   UNL     1      -1.474  11.664  20.727  0.00  0.00    +0.000 OA
ATOM     31  C   UNL     1      -1.422  13.034  20.901  0.00  0.00    +0.000 C 
ENDBRANCH  25  30
BRANCH  26  32
ATOM     32  O   UNL     1       0.404  10.420  22.175  0.00  0.00    +0.000 OA
ATOM     33  C   UNL     1      -0.035   9.515  23.125  0.00  0.00    +0.000 C 
ENDBRANCH  26  32
ENDBRANCH  21  22
ENDBRANCH   4  20
TORSDOF 11
ENDMDL
MODEL 3
REMARK VINA RESULT:      -7.4      1.138      1.285
REMARK  Name = 
REMARK  15 active torsions:
REMARK  status: ('A' for Active; 'I' for Inactive)
REMARK    1  A    between atoms: C_1  and  O_2
REMARK    2  A    between atoms: O_2  and  C_3
REMARK    3  A    between atoms: C_6  and  C_7
REMARK    4  A    between atoms: C_8  and  C_9
REMARK    5  A    between atoms: C_11  and  O_12
REMARK    6  A    between atoms: O_12  and  C_13
REMARK    7  A    between atoms: C_14  and  O_15
REMARK    8  A    between atoms: O_15  and  C_16
REMARK    9  A    between atoms: C_17  and  O_18
REMARK   10  A    between atoms: O_18  and  C_19
REMARK   11  A    between atoms: C_21  and  N_22
REMARK   12  A    between atoms: C_23  and  CA_25
REMARK   13  A    between atoms: CA_25  and  N_26
REMARK   14  A    between atoms: CA_25  and  C_27
REMARK   15  A    between atoms: C_27  and  O_28
REMARK                            x       y       z     vdW  Elec       q    Type
REMARK                         _______ _______ _______ _____ _____    ______ ____
ROOT
ATOM      1  C   UNL     1       5.334   4.478  16.006  0.00  0.00    +0.000 A 
ATOM      2  C   UNL     1       5.575   5.849  16.086  0.00  0.00    +0.000 A 
ATOM      3  C   UNL     1       4.789   6.658  16.901  0.00  0.00    +0.000 A 
ATOM      4  C   UNL     1       3.750   6.113  17.666  0.00  0.00    +0.000 A 
ATOM      5  C   UNL     1       3.517   4.709  17.635  0.00  0.00    +0.000 A 
ATOM      6  C   UNL     1       4.321   3.913  16.803  0.00  0.00    +0.000 A 
ENDROOT
BRANCH   5   7
ATOM      7  N   UNL     1       2.520   4.036  18.415  0.00  0.00    +0.000 N 
ATOM      8  C   UNL     1       2.734   3.037  19.316  0.00  0.00    +0.000 C 
ATOM      9  O   UNL     1       3.867   2.690  19.615  0.00  0.00    +0.000 OA
ATOM     10  H   UNL     1       1.561   4.408  18.341  0.00  0.00    +0.000 HD
BRANCH   8  11
ATOM     11  CA  UNL     1       1.547   2.398  20.014  0.00  0.00    +0.000 C 
BRANCH  11  12
ATOM     12  N   UNL     1       0.315   2.605  19.253  0.00  0.00    +0.000 NA
ATOM     13  H1  UNL     1      -0.465   2.905  19.881  0.00  0.00    +0.000 HD
ATOM     14  H2  UNL     1       0.043   1.704  18.789  0.00  0.00    +0.000 HD
ENDBRANCH  11  12
BRANCH  11  15
ATOM     15  C   UNL     1       1.407   2.955  21.444  0.00  0.00    +0.000 C 
BRANCH  15  16
ATOM     16  O   UNL     1       2.241   4.067  21.637  0.00  0.00    +0.000 OA
ATOM     17  H   UNL     1       1.911   4.537  22.445  0.00  0.00    +0.000 HD
ENDBRANCH  15  16
ENDBRANCH  11  15
ENDBRANCH   8  11
ENDBRANCH   5   7
BRANCH   1  19
ATOM     18  C   UNL     1       6.107   3.911  13.771  0.00  0.00    +0.000 C 
ATOM     19  O   UNL     1       6.078   3.744  15.140  0.00  0.00    +0.000 OA
ENDBRANCH   1  19
BRANCH   4  20
ATOM     20  C   UNL     1       2.972   7.064  18.468  0.00  0.00    +0.000 C 
ATOM     21  C   UNL     1       2.225   8.047  17.942  0.00  0.00    +0.000 C 
BRANCH  21  22
ATOM     22  C   UNL     1       1.453   9.003  18.783  0.00  0.00    +0.000 A 
ATOM     23  C   UNL     1       1.630   8.958  20.168  0.00  0.00    +0.000 A 
ATOM     24  C   UNL     1       0.864   9.778  21.021  0.00  0.00    +0.000 A 
ATOM     25  C   UNL     1      -0.073  10.690  20.467  0.00  0.00    +0.000 A 
ATOM     26  C   UNL     1      -0.231  10.759  19.071  0.00  0.00    +0.000 A 
ATOM     27  C   UNL     1       0.532   9.917  18.245  0.00  0.00    +0.000 A 
BRANCH  24  28
ATOM     28  O   UNL     1       1.004   9.688  22.374  0.00  0.00    +0.000 OA
ATOM     29  C   UNL     1       0.018   9.355  23.272  0.00  0.00    +0.000 C 
ENDBRANCH  24  28
BRANCH  25  30
ATOM     30  O   UNL     1      -0.871  11.503  21.216  0.00  0.00    +0.000 OA
ATOM     31  C   UNL     1      -0.544  12.708  21.809  0.00  0.00    +0.000 C 
ENDBRANCH  25  30
BRANCH  26  32
ATOM     32  O   UNL     1      -1.144  11.629  18.555  0.00  0.00    +0.000 OA
ATOM     33  C   UNL     1      -0.872  12.905  18.095  0.00  0.00    +0.000 C 
ENDBRANCH  26  32
ENDBRANCH  21  22
ENDBRANCH   4  20
TORSDOF 11
ENDMDL
MODEL 4
REMARK VINA RESULT:      -7.4      1.101      2.282
REMARK  Name = 
REMARK  15 active torsions:
REMARK  status: ('A' for Active; 'I' for Inactive)
REMARK    1  A    between atoms: C_1  and  O_2
REMARK    2  A    between atoms: O_2  and  C_3
REMARK    3  A    between atoms: C_6  and  C_7
REMARK    4  A    between atoms: C_8  and  C_9
REMARK    5  A    between atoms: C_11  and  O_12
REMARK    6  A    between atoms: O_12  and  C_13
REMARK    7  A    between atoms: C_14  and  O_15
REMARK    8  A    between atoms: O_15  and  C_16
REMARK    9  A    between atoms: C_17  and  O_18
REMARK   10  A    between atoms: O_18  and  C_19
REMARK   11  A    between atoms: C_21  and  N_22
REMARK   12  A    between atoms: C_23  and  CA_25
REMARK   13  A    between atoms: CA_25  and  N_26
REMARK   14  A    between atoms: CA_25  and  C_27
REMARK   15  A    between atoms: C_27  and  O_28
REMARK                            x       y       z     vdW  Elec       q    Type
REMARK                         _______ _______ _______ _____ _____    ______ ____
ROOT
ATOM      1  C   UNL     1       5.438   4.504  15.729  0.00  0.00    +0.000 A 
ATOM      2  C   UNL     1       5.648   5.866  15.520  0.00  0.00    +0.000 A 
ATOM      3  C   UNL     1       4.984   6.811  16.296  0.00  0.00    +0.000 A 
ATOM      4  C   UNL     1       4.102   6.415  17.310  0.00  0.00    +0.000 A 
ATOM      5  C   UNL     1       3.909   5.030  17.572  0.00  0.00    +0.000 A 
ATOM      6  C   UNL     1       4.587   4.095  16.773  0.00  0.00    +0.000 A 
ENDROOT
BRANCH   5   7
ATOM      7  N   UNL     1       3.074   4.511  18.616  0.00  0.00    +0.000 N 
ATOM      8  C   UNL     1       1.758   4.175  18.508  0.00  0.00    +0.000 C 
ATOM      9  O   UNL     1       1.187   4.198  17.428  0.00  0.00    +0.000 OA
ATOM     10  H   UNL     1       3.545   4.299  19.508  0.00  0.00    +0.000 HD
BRANCH   8  11
ATOM     11  CA  UNL     1       1.011   3.692  19.740  0.00  0.00    +0.000 C 
BRANCH  11  12
ATOM     12  N   UNL     1       1.620   4.214  20.963  0.00  0.00    +0.000 NA
ATOM     13  H1  UNL     1       2.133   5.105  20.772  0.00  0.00    +0.000 HD
ATOM     14  H2  UNL     1       2.302   3.509  21.335  0.00  0.00    +0.000 HD
ENDBRANCH  11  12
BRANCH  11  15
ATOM     15  C   UNL     1       0.966   2.152  19.764  0.00  0.00    +0.000 C 
BRANCH  15  16
ATOM     16  O   UNL     1       1.787   1.606  18.766  0.00  0.00    +0.000 OA
ATOM     17  H   UNL     1       1.381   1.849  17.895  0.00  0.00    +0.000 HD
ENDBRANCH  15  16
ENDBRANCH  11  15
ENDBRANCH   8  11
ENDBRANCH   5   7
BRANCH   1  19
ATOM     18  C   UNL     1       6.375   3.866  13.578  0.00  0.00    +0.000 C 
ATOM     19  O   UNL     1       6.050   3.624  14.897  0.00  0.00    +0.000 OA
ENDBRANCH   1  19
BRANCH   4  20
ATOM     20  C   UNL     1       3.439   7.498  18.047  0.00  0.00    +0.000 C 
ATOM     21  C   UNL     1       2.379   8.177  17.581  0.00  0.00    +0.000 C 
BRANCH  21  22
ATOM     22  C   UNL     1       1.733   9.277  18.350  0.00  0.00    +0.000 A 
ATOM     23  C   UNL     1       1.911  10.589  17.904  0.00  0.00    +0.000 A 
ATOM     24  C   UNL     1       1.396  11.677  18.638  0.00  0.00    +0.000 A 
ATOM     25  C   UNL     1       0.655  11.438  19.825  0.00  0.00    +0.000 A 
ATOM     26  C   UNL     1       0.448  10.117  20.259  0.00  0.00    +0.000 A 
ATOM     27  C   UNL     1       0.988   9.051  19.520  0.00  0.00    +0.000 A 
BRANCH  24  28
ATOM     28  O   UNL     1       1.622  12.956  18.225  0.00  0.00    +0.000 OA
ATOM     29  C   UNL     1       2.798  13.656  18.355  0.00  0.00    +0.000 C 
ENDBRANCH  24  28
BRANCH  25  30
ATOM     30  O   UNL     1       0.141  12.429  20.608  0.00  0.00    +0.000 OA
ATOM     31  C   UNL     1       0.814  13.259  21.485  0.00  0.00    +0.000 C 
ENDBRANCH  25  30
BRANCH  26  32
ATOM     32  O   UNL     1      -0.254   9.904  21.408  0.00  0.00    +0.000 OA
ATOM     33  C   UNL     1       0.284   9.515  22.622  0.00  0.00    +0.000 C 
ENDBRANCH  26  32
ENDBRANCH  21  22
ENDBRANCH   4  20
TORSDOF 11
ENDMDL
MODEL 5
REMARK VINA RESULT:      -7.3      1.168      2.627
REMARK  Name = 
REMARK  15 active torsions:
REMARK  status: ('A' for Active; 'I' for Inactive)
REMARK    1  A    between atoms: C_1  and  O_2
REMARK    2  A    between atoms: O_2  and  C_3
REMARK    3  A    between atoms: C_6  and  C_7
REMARK    4  A    between atoms: C_8  and  C_9
REMARK    5  A    between atoms: C_11  and  O_12
REMARK    6  A    between atoms: O_12  and  C_13
REMARK    7  A    between atoms: C_14  and  O_15
REMARK    8  A    between atoms: O_15  and  C_16
REMARK    9  A    between atoms: C_17  and  O_18
REMARK   10  A    between atoms: O_18  and  C_19
REMARK   11  A    between atoms: C_21  and  N_22
REMARK   12  A    between atoms: C_23  and  CA_25
REMARK   13  A    between atoms: CA_25  and  N_26
REMARK   14  A    between atoms: CA_25  and  C_27
REMARK   15  A    between atoms: C_27  and  O_28
REMARK                            x       y       z     vdW  Elec       q    Type
REMARK                         _______ _______ _______ _____ _____    ______ ____
ROOT
ATOM      1  C   UNL     1       5.384   4.577  15.983  0.00  0.00    +0.000 A 
ATOM      2  C   UNL     1       5.519   5.960  16.099  0.00  0.00    +0.000 A 
ATOM      3  C   UNL     1       4.649   6.690  16.904  0.00  0.00    +0.000 A 
ATOM      4  C   UNL     1       3.631   6.052  17.623  0.00  0.00    +0.000 A 
ATOM      5  C   UNL     1       3.505   4.636  17.556  0.00  0.00    +0.000 A 
ATOM      6  C   UNL     1       4.391   3.921  16.735  0.00  0.00    +0.000 A 
ENDROOT
BRANCH   5   7
ATOM      7  N   UNL     1       2.536   3.873  18.290  0.00  0.00    +0.000 N 
ATOM      8  C   UNL     1       2.791   3.012  19.314  0.00  0.00    +0.000 C 
ATOM      9  O   UNL     1       3.918   2.895  19.774  0.00  0.00    +0.000 OA
ATOM     10  H   UNL     1       1.548   4.065  18.067  0.00  0.00    +0.000 HD
BRANCH   8  11
ATOM     11  CA  UNL     1       1.642   2.242  19.941  0.00  0.00    +0.000 C 
BRANCH  11  12
ATOM     12  N   UNL     1       0.471   2.240  19.066  0.00  0.00    +0.000 NA
ATOM     13  H1  UNL     1       0.341   3.175  18.615  0.00  0.00    +0.000 HD
ATOM     14  H2  UNL     1      -0.383   2.022  19.635  0.00  0.00    +0.000 HD
ENDBRANCH  11  12
BRANCH  11  15
ATOM     15  C   UNL     1       1.295   2.835  21.320  0.00  0.00    +0.000 C 
BRANCH  15  16
ATOM     16  O   UNL     1       1.982   4.038  21.541  0.00  0.00    +0.000 OA
ATOM     17  H   UNL     1       2.285   4.363  20.654  0.00  0.00    +0.000 HD
ENDBRANCH  15  16
ENDBRANCH  11  15
ENDBRANCH   8  11
ENDBRANCH   5   7
BRANCH   1  19
ATOM     18  C   UNL     1       6.184   4.033  13.752  0.00  0.00    +0.000 C 
ATOM     19  O   UNL     1       6.207   3.921  15.127  0.00  0.00    +0.000 OA
ENDBRANCH   1  19
BRANCH   4  20
ATOM     20  C   UNL     1       2.759   6.924  18.419  0.00  0.00    +0.000 C 
ATOM     21  C   UNL     1       2.404   8.164  18.046  0.00  0.00    +0.000 C 
BRANCH  21  22
ATOM     22  C   UNL     1       1.524   9.029  18.880  0.00  0.00    +0.000 A 
ATOM     23  C   UNL     1       0.638   9.893  18.231  0.00  0.00    +0.000 A 
ATOM     24  C   UNL     1      -0.157  10.796  18.964  0.00  0.00    +0.000 A 
ATOM     25  C   UNL     1      -0.088  10.804  20.382  0.00  0.00    +0.000 A 
ATOM     26  C   UNL     1       0.779   9.913  21.039  0.00  0.00    +0.000 A 
ATOM     27  C   UNL     1       1.575   9.037  20.283  0.00  0.00    +0.000 A 
BRANCH  24  28
ATOM     28  O   UNL     1      -0.977  11.674  18.320  0.00  0.00    +0.000 OA
ATOM     29  C   UNL     1      -0.689  12.985  18.019  0.00  0.00    +0.000 C 
ENDBRANCH  24  28
BRANCH  25  30
ATOM     30  O   UNL     1      -0.803  11.658  21.170  0.00  0.00    +0.000 OA
ATOM     31  C   UNL     1      -0.459  12.933  21.577  0.00  0.00    +0.000 C 
ENDBRANCH  25  30
BRANCH  26  32
ATOM     32  O   UNL     1       0.844   9.942  22.400  0.00  0.00    +0.000 OA
ATOM     33  C   UNL     1      -0.075   9.373  23.264  0.00  0.00    +0.000 C 
ENDBRANCH  26  32
ENDBRANCH  21  22
ENDBRANCH   4  20
TORSDOF 11
ENDMDL
MODEL 6
REMARK VINA RESULT:      -7.3      1.185      1.215
REMARK  Name = 
REMARK  15 active torsions:
REMARK  status: ('A' for Active; 'I' for Inactive)
REMARK    1  A    between atoms: C_1  and  O_2
REMARK    2  A    between atoms: O_2  and  C_3
REMARK    3  A    between atoms: C_6  and  C_7
REMARK    4  A    between atoms: C_8  and  C_9
REMARK    5  A    between atoms: C_11  and  O_12
REMARK    6  A    between atoms: O_12  and  C_13
REMARK    7  A    between atoms: C_14  and  O_15
REMARK    8  A    between atoms: O_15  and  C_16
REMARK    9  A    between atoms: C_17  and  O_18
REMARK   10  A    between atoms: O_18  and  C_19
REMARK   11  A    between atoms: C_21  and  N_22
REMARK   12  A    between atoms: C_23  and  CA_25
REMARK   13  A    between atoms: CA_25  and  N_26
REMARK   14  A    between atoms: CA_25  and  C_27
REMARK   15  A    between atoms: C_27  and  O_28
REMARK                            x       y       z     vdW  Elec       q    Type
REMARK                         _______ _______ _______ _____ _____    ______ ____
ROOT
ATOM      1  C   UNL     1       5.564   5.076  16.372  0.00  0.00    +0.000 A 
ATOM      2  C   UNL     1       5.758   6.443  16.571  0.00  0.00    +0.000 A 
ATOM      3  C   UNL     1       4.814   7.197  17.260  0.00  0.00    +0.000 A 
ATOM      4  C   UNL     1       3.658   6.600  17.780  0.00  0.00    +0.000 A 
ATOM      5  C   UNL     1       3.463   5.198  17.630  0.00  0.00    +0.000 A 
ATOM      6  C   UNL     1       4.428   4.458  16.927  0.00  0.00    +0.000 A 
ENDROOT
BRANCH   5   7
ATOM      7  N   UNL     1       2.348   4.474  18.165  0.00  0.00    +0.000 N 
ATOM      8  C   UNL     1       2.264   3.917  19.406  0.00  0.00    +0.000 C 
ATOM      9  O   UNL     1       3.145   4.090  20.235  0.00  0.00    +0.000 OA
ATOM     10  H   UNL     1       1.501   4.448  17.577  0.00  0.00    +0.000 HD
BRANCH   8  11
ATOM     11  CA  UNL     1       1.021   3.132  19.786  0.00  0.00    +0.000 C 
BRANCH  11  12
ATOM     12  N   UNL     1       0.926   2.967  21.236  0.00  0.00    +0.000 NA
ATOM     13  H1  UNL     1       0.688   1.979  21.483  0.00  0.00    +0.000 HD
ATOM     14  H2  UNL     1       0.171   3.595  21.604  0.00  0.00    +0.000 HD
ENDBRANCH  11  12
BRANCH  11  15
ATOM     15  C   UNL     1       1.019   1.764  19.077  0.00  0.00    +0.000 C 
BRANCH  15  16
ATOM     16  O   UNL     1       1.641   1.844  17.822  0.00  0.00    +0.000 OA
ATOM     17  H   UNL     1       1.698   2.807  17.590  0.00  0.00    +0.000 HD
ENDBRANCH  15  16
ENDBRANCH  11  15
ENDBRANCH   8  11
ENDBRANCH   5   7
BRANCH   1  19
ATOM     18  C   UNL     1       6.257   3.892  14.364  0.00  0.00    +0.000 C 
ATOM     19  O   UNL     1       6.476   4.399  15.629  0.00  0.00    +0.000 OA
ENDBRANCH   1  19
BRANCH   4  20
ATOM     20  C   UNL     1       2.721   7.498  18.466  0.00  0.00    +0.000 C 
ATOM     21  C   UNL     1       2.032   8.470  17.849  0.00  0.00    +0.000 C 
BRANCH  21  22
ATOM     22  C   UNL     1       1.094   9.371  18.575  0.00  0.00    +0.000 A 
ATOM     23  C   UNL     1       1.283   9.555  19.947  0.00  0.00    +0.000 A 
ATOM     24  C   UNL     1       0.377  10.327  20.703  0.00  0.00    +0.000 A 
ATOM     25  C   UNL     1      -0.719  10.957  20.058  0.00  0.00    +0.000 A 
ATOM     26  C   UNL     1      -0.894  10.798  18.672  0.00  0.00    +0.000 A 
ATOM     27  C   UNL     1       0.012  10.009  17.945  0.00  0.00    +0.000 A 
BRANCH  24  28
ATOM     28  O   UNL     1       0.538  10.456  22.050  0.00  0.00    +0.000 OA
ATOM     29  C   UNL     1      -0.081   9.701  23.018  0.00  0.00    +0.000 C 
ENDBRANCH  24  28
BRANCH  25  30
ATOM     30  O   UNL     1      -1.656  11.702  20.714  0.00  0.00    +0.000 OA
ATOM     31  C   UNL     1      -1.582  13.031  21.083  0.00  0.00    +0.000 C 
ENDBRANCH  25  30
BRANCH  26  32
ATOM     32  O   UNL     1      -1.959  11.398  18.070  0.00  0.00    +0.000 OA
ATOM     33  C   UNL     1      -2.486  11.058  16.837  0.00  0.00    +0.000 C 
ENDBRANCH  26  32
ENDBRANCH  21  22
ENDBRANCH   4  20
TORSDOF 11
ENDMDL
MODEL 7
REMARK VINA RESULT:      -7.3      1.409      1.445
REMARK  Name = 
REMARK  15 active torsions:
REMARK  status: ('A' for Active; 'I' for Inactive)
REMARK    1  A    between atoms: C_1  and  O_2
REMARK    2  A    between atoms: O_2  and  C_3
REMARK    3  A    between atoms: C_6  and  C_7
REMARK    4  A    between atoms: C_8  and  C_9
REMARK    5  A    between atoms: C_11  and  O_12
REMARK    6  A    between atoms: O_12  and  C_13
REMARK    7  A    between atoms: C_14  and  O_15
REMARK    8  A    between atoms: O_15  and  C_16
REMARK    9  A    between atoms: C_17  and  O_18
REMARK   10  A    between atoms: O_18  and  C_19
REMARK   11  A    between atoms: C_21  and  N_22
REMARK   12  A    between atoms: C_23  and  CA_25
REMARK   13  A    between atoms: CA_25  and  N_26
REMARK   14  A    between atoms: CA_25  and  C_27
REMARK   15  A    between atoms: C_27  and  O_28
REMARK                            x       y       z     vdW  Elec       q    Type
REMARK                         _______ _______ _______ _____ _____    ______ ____
ROOT
ATOM      1  C   UNL     1       5.378   4.401  15.753  0.00  0.00    +0.000 A 
ATOM      2  C   UNL     1       5.665   5.764  15.790  0.00  0.00    +0.000 A 
ATOM      3  C   UNL     1       4.925   6.621  16.600  0.00  0.00    +0.000 A 
ATOM      4  C   UNL     1       3.888   6.131  17.403  0.00  0.00    +0.000 A 
ATOM      5  C   UNL     1       3.609   4.735  17.417  0.00  0.00    +0.000 A 
ATOM      6  C   UNL     1       4.366   3.891  16.589  0.00  0.00    +0.000 A 
ENDROOT
BRANCH   5   7
ATOM      7  N   UNL     1       2.608   4.117  18.238  0.00  0.00    +0.000 N 
ATOM      8  C   UNL     1       2.750   3.739  19.539  0.00  0.00    +0.000 C 
ATOM      9  O   UNL     1       3.764   4.004  20.166  0.00  0.00    +0.000 OA
ATOM     10  H   UNL     1       1.670   4.031  17.819  0.00  0.00    +0.000 HD
BRANCH   8  11
ATOM     11  CA  UNL     1       1.596   3.043  20.240  0.00  0.00    +0.000 C 
BRANCH  11  12
ATOM     12  N   UNL     1       0.335   3.746  20.003  0.00  0.00    +0.000 NA
ATOM     13  H1  UNL     1      -0.276   3.710  20.851  0.00  0.00    +0.000 HD
ATOM     14  H2  UNL     1      -0.170   3.285  19.208  0.00  0.00    +0.000 HD
ENDBRANCH  11  12
BRANCH  11  15
ATOM     15  C   UNL     1       1.883   2.926  21.749  0.00  0.00    +0.000 C 
BRANCH  15  16
ATOM     16  O   UNL     1       3.035   2.161  21.986  0.00  0.00    +0.000 OA
ATOM     17  H   UNL     1       3.443   1.972  21.102  0.00  0.00    +0.000 HD
ENDBRANCH  15  16
ENDBRANCH  11  15
ENDBRANCH   8  11
ENDBRANCH   5   7
BRANCH   1  19
ATOM     18  C   UNL     1       6.318   3.911  13.564  0.00  0.00    +0.000 C 
ATOM     19  O   UNL     1       6.077   3.620  14.891  0.00  0.00    +0.000 OA
ENDBRANCH   1  19
BRANCH   4  20
ATOM     20  C   UNL     1       3.160   7.129  18.196  0.00  0.00    +0.000 C 
ATOM     21  C   UNL     1       2.559   8.207  17.669  0.00  0.00    +0.000 C 
BRANCH  21  22
ATOM     22  C   UNL     1       1.835   9.207  18.502  0.00  0.00    +0.000 A 
ATOM     23  C   UNL     1       1.241   8.773  19.690  0.00  0.00    +0.000 A 
ATOM     24  C   UNL     1       0.471   9.654  20.475  0.00  0.00    +0.000 A 
ATOM     25  C   UNL     1       0.326  11.009  20.077  0.00  0.00    +0.000 A 
ATOM     26  C   UNL     1       0.949  11.455  18.898  0.00  0.00    +0.000 A 
ATOM     27  C   UNL     1       1.695  10.552  18.123  0.00  0.00    +0.000 A 
BRANCH  24  28
ATOM     28  O   UNL     1      -0.150   9.209  21.604  0.00  0.00    +0.000 OA
ATOM     29  C   UNL     1       0.306   9.352  22.893  0.00  0.00    +0.000 C 
ENDBRANCH  24  28
BRANCH  25  30
ATOM     30  O   UNL     1      -0.419  11.924  20.763  0.00  0.00    +0.000 OA
ATOM     31  C   UNL     1      -1.788  12.105  20.730  0.00  0.00    +0.000 C 
ENDBRANCH  25  30
BRANCH  26  32
ATOM     32  O   UNL     1       0.789  12.756  18.521  0.00  0.00    +0.000 OA
ATOM     33  C   UNL     1       1.797  13.700  18.435  0.00  0.00    +0.000 C 
ENDBRANCH  26  32
ENDBRANCH  21  22
ENDBRANCH   4  20
TORSDOF 11
ENDMDL
MODEL 8
REMARK VINA RESULT:      -7.2      1.237      1.266
REMARK  Name = 
REMARK  15 active torsions:
REMARK  status: ('A' for Active; 'I' for Inactive)
REMARK    1  A    between atoms: C_1  and  O_2
REMARK    2  A    between atoms: O_2  and  C_3
REMARK    3  A    between atoms: C_6  and  C_7
REMARK    4  A    between atoms: C_8  and  C_9
REMARK    5  A    between atoms: C_11  and  O_12
REMARK    6  A    between atoms: O_12  and  C_13
REMARK    7  A    between atoms: C_14  and  O_15
REMARK    8  A    between atoms: O_15  and  C_16
REMARK    9  A    between atoms: C_17  and  O_18
REMARK   10  A    between atoms: O_18  and  C_19
REMARK   11  A    between atoms: C_21  and  N_22
REMARK   12  A    between atoms: C_23  and  CA_25
REMARK   13  A    between atoms: CA_25  and  N_26
REMARK   14  A    between atoms: CA_25  and  C_27
REMARK   15  A    between atoms: C_27  and  O_28
REMARK                            x       y       z     vdW  Elec       q    Type
REMARK                         _______ _______ _______ _____ _____    ______ ____
ROOT
ATOM      1  C   UNL     1       5.710   5.094  16.082  0.00  0.00    +0.000 A 
ATOM      2  C   UNL     1       5.515   6.460  15.878  0.00  0.00    +0.000 A 
ATOM      3  C   UNL     1       4.565   7.157  16.619  0.00  0.00    +0.000 A 
ATOM      4  C   UNL     1       3.796   6.507  17.592  0.00  0.00    +0.000 A 
ATOM      5  C   UNL     1       4.011   5.124  17.850  0.00  0.00    +0.000 A 
ATOM      6  C   UNL     1       4.972   4.440  17.087  0.00  0.00    +0.000 A 
ENDROOT
BRANCH   5   7
ATOM      7  N   UNL     1       3.321   4.370  18.856  0.00  0.00    +0.000 N 
ATOM      8  C   UNL     1       2.184   3.640  18.683  0.00  0.00    +0.000 C 
ATOM      9  O   UNL     1       1.697   3.484  17.572  0.00  0.00    +0.000 OA
ATOM     10  H   UNL     1       3.783   4.315  19.776  0.00  0.00    +0.000 HD
BRANCH   8  11
ATOM     11  CA  UNL     1       1.556   2.948  19.880  0.00  0.00    +0.000 C 
BRANCH  11  12
ATOM     12  N   UNL     1       0.096   2.962  19.790  0.00  0.00    +0.000 NA
ATOM     13  H1  UNL     1      -0.327   2.327  20.505  0.00  0.00    +0.000 HD
ATOM     14  H2  UNL     1      -0.193   2.633  18.837  0.00  0.00    +0.000 HD
ENDBRANCH  11  12
BRANCH  11  15
ATOM     15  C   UNL     1       2.032   3.610  21.187  0.00  0.00    +0.000 C 
BRANCH  15  16
ATOM     16  O   UNL     1       2.016   2.696  22.251  0.00  0.00    +0.000 OA
ATOM     17  H   UNL     1       2.958   2.429  22.415  0.00  0.00    +0.000 HD
ENDBRANCH  15  16
ENDBRANCH  11  15
ENDBRANCH   8  11
ENDBRANCH   5   7
BRANCH   1  19
ATOM     18  C   UNL     1       6.329   3.984  14.009  0.00  0.00    +0.000 C 
ATOM     19  O   UNL     1       6.593   4.445  15.283  0.00  0.00    +0.000 OA
ENDBRANCH   1  19
BRANCH   4  20
ATOM     20  C   UNL     1       2.808   7.336  18.293  0.00  0.00    +0.000 C 
ATOM     21  C   UNL     1       2.332   8.495  17.813  0.00  0.00    +0.000 C 
BRANCH  21  22
ATOM     22  C   UNL     1       1.336   9.319  18.553  0.00  0.00    +0.000 A 
ATOM     23  C   UNL     1       1.472   9.435  19.938  0.00  0.00    +0.000 A 
ATOM     24  C   UNL     1       0.513  10.130  20.702  0.00  0.00    +0.000 A 
ATOM     25  C   UNL     1      -0.586  10.753  20.054  0.00  0.00    +0.000 A 
ATOM     26  C   UNL     1      -0.708  10.664  18.656  0.00  0.00    +0.000 A 
ATOM     27  C   UNL     1       0.251   9.949  17.921  0.00  0.00    +0.000 A 
BRANCH  24  28
ATOM     28  O   UNL     1       0.624  10.191  22.059  0.00  0.00    +0.000 OA
ATOM     29  C   UNL     1       0.033   9.339  22.962  0.00  0.00    +0.000 C 
ENDBRANCH  24  28
BRANCH  25  30
ATOM     30  O   UNL     1      -1.573  11.425  20.715  0.00  0.00    +0.000 OA
ATOM     31  C   UNL     1      -1.481  12.628  21.388  0.00  0.00    +0.000 C 
ENDBRANCH  25  30
BRANCH  26  32
ATOM     32  O   UNL     1      -1.776  11.255  18.050  0.00  0.00    +0.000 OA
ATOM     33  C   UNL     1      -2.588  10.670  17.095  0.00  0.00    +0.000 C 
ENDBRANCH  26  32
ENDBRANCH  21  22
ENDBRANCH   4  20
TORSDOF 11
ENDMDL
MODEL 9
REMARK VINA RESULT:      -7.2      0.895      2.390
REMARK  Name = 
REMARK  15 active torsions:
REMARK  status: ('A' for Active; 'I' for Inactive)
REMARK    1  A    between atoms: C_1  and  O_2
REMARK    2  A    between atoms: O_2  and  C_3
REMARK    3  A    between atoms: C_6  and  C_7
REMARK    4  A    between atoms: C_8  and  C_9
REMARK    5  A    between atoms: C_11  and  O_12
REMARK    6  A    between atoms: O_12  and  C_13
REMARK    7  A    between atoms: C_14  and  O_15
REMARK    8  A    between atoms: O_15  and  C_16
REMARK    9  A    between atoms: C_17  and  O_18
REMARK   10  A    between atoms: O_18  and  C_19
REMARK   11  A    between atoms: C_21  and  N_22
REMARK   12  A    between atoms: C_23  and  CA_25
REMARK   13  A    between atoms: CA_25  and  N_26
REMARK   14  A    between atoms: CA_25  and  C_27
REMARK   15  A    between atoms: C_27  and  O_28
REMARK                            x       y       z     vdW  Elec       q    Type
REMARK                         _______ _______ _______ _____ _____    ______ ____
ROOT
ATOM      1  C   UNL     1       5.534   4.623  15.957  0.00  0.00    +0.000 A 
ATOM      2  C   UNL     1       5.971   5.931  16.166  0.00  0.00    +0.000 A 
ATOM      3  C   UNL     1       5.230   6.806  16.955  0.00  0.00    +0.000 A 
ATOM      4  C   UNL     1       4.041   6.389  17.566  0.00  0.00    +0.000 A 
ATOM      5  C   UNL     1       3.601   5.045  17.405  0.00  0.00    +0.000 A 
ATOM      6  C   UNL     1       4.363   4.181  16.601  0.00  0.00    +0.000 A 
ENDROOT
BRANCH   5   7
ATOM      7  N   UNL     1       2.431   4.496  18.025  0.00  0.00    +0.000 N 
ATOM      8  C   UNL     1       2.302   4.135  19.333  0.00  0.00    +0.000 C 
ATOM      9  O   UNL     1       3.192   4.358  20.140  0.00  0.00    +0.000 OA
ATOM     10  H   UNL     1       1.586   4.450  17.436  0.00  0.00    +0.000 HD
BRANCH   8  11
ATOM     11  CA  UNL     1       1.000   3.513  19.807  0.00  0.00    +0.000 C 
BRANCH  11  12
ATOM     12  N   UNL     1       1.117   3.030  21.182  0.00  0.00    +0.000 NA
ATOM     13  H1  UNL     1       0.784   2.042  21.259  0.00  0.00    +0.000 HD
ATOM     14  H2  UNL     1       0.528   3.631  21.809  0.00  0.00    +0.000 HD
ENDBRANCH  11  12
BRANCH  11  15
ATOM     15  C   UNL     1       0.579   2.373  18.860  0.00  0.00    +0.000 C 
BRANCH  15  16
ATOM     16  O   UNL     1       1.661   1.525  18.578  0.00  0.00    +0.000 OA
ATOM     17  H   UNL     1       2.189   1.961  17.860  0.00  0.00    +0.000 HD
ENDBRANCH  15  16
ENDBRANCH  11  15
ENDBRANCH   8  11
ENDBRANCH   5   7
BRANCH   1  19
ATOM     18  C   UNL     1       6.225   3.900  13.740  0.00  0.00    +0.000 C 
ATOM     19  O   UNL     1       6.251   3.833  15.118  0.00  0.00    +0.000 OA
ENDBRANCH   1  19
BRANCH   4  20
ATOM     20  C   UNL     1       3.331   7.404  18.355  0.00  0.00    +0.000 C 
ATOM     21  C   UNL     1       2.055   7.757  18.140  0.00  0.00    +0.000 C 
BRANCH  21  22
ATOM     22  C   UNL     1       1.365   8.797  18.953  0.00  0.00    +0.000 A 
ATOM     23  C   UNL     1       0.651   9.794  18.284  0.00  0.00    +0.000 A 
ATOM     24  C   UNL     1       0.050  10.852  18.994  0.00  0.00    +0.000 A 
ATOM     25  C   UNL     1       0.136  10.887  20.411  0.00  0.00    +0.000 A 
ATOM     26  C   UNL     1       0.828   9.868  21.089  0.00  0.00    +0.000 A 
ATOM     27  C   UNL     1       1.434   8.835  20.355  0.00  0.00    +0.000 A 
BRANCH  24  28
ATOM     28  O   UNL     1      -0.598  11.850  18.329  0.00  0.00    +0.000 OA
ATOM     29  C   UNL     1      -1.951  12.093  18.346  0.00  0.00    +0.000 C 
ENDBRANCH  24  28
BRANCH  25  30
ATOM     30  O   UNL     1      -0.395  11.884  21.177  0.00  0.00    +0.000 OA
ATOM     31  C   UNL     1       0.165  13.107  21.493  0.00  0.00    +0.000 C 
ENDBRANCH  25  30
BRANCH  26  32
ATOM     32  O   UNL     1       0.914   9.923  22.448  0.00  0.00    +0.000 OA
ATOM     33  C   UNL     1      -0.018   9.417  23.337  0.00  0.00    +0.000 C 
ENDBRANCH  26  32
ENDBRANCH  21  22
ENDBRANCH   4  20
TORSDOF 11
ENDMDL
