MODEL 1
REMARK VINA RESULT:      -5.4      0.000      0.000
REMARK  Name = 
REMARK  6 active torsions:
REMARK  status: ('A' for Active; 'I' for Inactive)
REMARK    1  A    between atoms: C_1  and  O_2
REMARK    2  A    between atoms: O_2  and  C_3
REMARK    3  A    between atoms: C_6  and  C_7
REMARK    4  A    between atoms: C_7  and  C_8
REMARK    5  A    between atoms: C_8  and  N_9
REMARK    6  A    between atoms: C_11  and  O_12
REMARK                            x       y       z     vdW  Elec       q    Type
REMARK                         _______ _______ _______ _____ _____    ______ ____
ROOT
ATOM      1  C   UNL     1       6.749   6.207  16.928  0.00  0.00    +0.000 A 
ATOM      2  C   UNL     1       5.493   6.827  16.919  0.00  0.00    +0.000 A 
ATOM      3  C   UNL     1       4.318   6.085  17.072  0.00  0.00    +0.000 A 
ATOM      4  C   UNL     1       4.375   4.700  17.244  0.00  0.00    +0.000 A 
ATOM      5  C   UNL     1       5.628   4.071  17.241  0.00  0.00    +0.000 A 
ATOM      6  C   UNL     1       6.806   4.820  17.085  0.00  0.00    +0.000 A 
ENDROOT
BRANCH   1   8
ATOM      7  C   UNL     1       7.844   8.210  17.649  0.00  0.00    +0.000 C 
ATOM      8  O   UNL     1       7.781   7.093  16.776  0.00  0.00    +0.000 OA
ENDBRANCH   1   8
BRANCH   6   9
ATOM      9  O   UNL     1       7.998   4.148  17.094  0.00  0.00    +0.000 OA
ATOM     10  H   UNL     1       7.859   3.253  17.439  0.00  0.00    +0.000 HD
ENDBRANCH   6   9
BRANCH   4  11
ATOM     11  C   UNL     1       3.110   3.896  17.425  0.00  0.00    +0.000 C 
BRANCH  11  12
ATOM     12  C   UNL     1       3.214   2.891  18.577  0.00  0.00    +0.000 C 
BRANCH  12  13
ATOM     13  N   UNL     1       2.714   1.576  18.176  0.00  0.00    +0.000 NA
ATOM     14  H   UNL     1       3.489   0.917  18.110  0.00  0.00    +0.000 HD
ATOM     15  H   UNL     1       2.313   1.640  17.241  0.00  0.00    +0.000 HD
ENDBRANCH  12  13
ENDBRANCH  11  12
ENDBRANCH   4  11
TORSDOF 5
ENDMDL
MODEL 2
REMARK VINA RESULT:      -5.2      2.129      2.416
REMARK  Name = 
REMARK  6 active torsions:
REMARK  status: ('A' for Active; 'I' for Inactive)
REMARK    1  A    between atoms: C_1  and  O_2
REMARK    2  A    between atoms: O_2  and  C_3
REMARK    3  A    between atoms: C_6  and  C_7
REMARK    4  A    between atoms: C_7  and  C_8
REMARK    5  A    between atoms: C_8  and  N_9
REMARK    6  A    between atoms: C_11  and  O_12
REMARK                            x       y       z     vdW  Elec       q    Type
REMARK                         _______ _______ _______ _____ _____    ______ ____
ROOT
ATOM      1  C   UNL     1       5.928   4.520  18.169  0.00  0.00    +0.000 A 
ATOM      2  C   UNL     1       5.156   5.050  19.211  0.00  0.00    +0.000 A 
ATOM      3  C   UNL     1       3.760   4.972  19.190  0.00  0.00    +0.000 A 
ATOM      4  C   UNL     1       3.104   4.352  18.124  0.00  0.00    +0.000 A 
ATOM      5  C   UNL     1       3.870   3.831  17.072  0.00  0.00    +0.000 A 
ATOM      6  C   UNL     1       5.271   3.913  17.095  0.00  0.00    +0.000 A 
ENDROOT
BRANCH   1   8
ATOM      7  C   UNL     1       7.708   5.749  19.195  0.00  0.00    +0.000 C 
ATOM      8  O   UNL     1       7.273   4.680  18.368  0.00  0.00    +0.000 OA
ENDBRANCH   1   8
BRANCH   6   9
ATOM      9  O   UNL     1       5.963   3.381  16.041  0.00  0.00    +0.000 OA
ATOM     10  H   UNL     1       5.815   2.424  16.012  0.00  0.00    +0.000 HD
ENDBRANCH   6   9
BRANCH   4  11
ATOM     11  C   UNL     1       1.597   4.252  18.103  0.00  0.00    +0.000 C 
BRANCH  11  12
ATOM     12  C   UNL     1       1.087   2.974  18.778  0.00  0.00    +0.000 C 
BRANCH  12  13
ATOM     13  N   UNL     1       0.574   3.256  20.119  0.00  0.00    +0.000 NA
ATOM     14  H   UNL     1       1.329   3.184  20.800  0.00  0.00    +0.000 HD
ATOM     15  H   UNL     1      -0.110   2.546  20.374  0.00  0.00    +0.000 HD
ENDBRANCH  12  13
ENDBRANCH  11  12
ENDBRANCH   4  11
TORSDOF 5
ENDMDL
MODEL 3
REMARK VINA RESULT:      -5.2      3.285      5.054
REMARK  Name = 
REMARK  6 active torsions:
REMARK  status: ('A' for Active; 'I' for Inactive)
REMARK    1  A    between atoms: C_1  and  O_2
REMARK    2  A    between atoms: O_2  and  C_3
REMARK    3  A    between atoms: C_6  and  C_7
REMARK    4  A    between atoms: C_7  and  C_8
REMARK    5  A    between atoms: C_8  and  N_9
REMARK    6  A    between atoms: C_11  and  O_12
REMARK                            x       y       z     vdW  Elec       q    Type
REMARK                         _______ _______ _______ _____ _____    ______ ____
ROOT
ATOM      1  C   UNL     1       2.972   3.255  19.311  0.00  0.00    +0.000 A 
ATOM      2  C   UNL     1       2.284   4.226  18.572  0.00  0.00    +0.000 A 
ATOM      3  C   UNL     1       2.963   5.119  17.738  0.00  0.00    +0.000 A 
ATOM      4  C   UNL     1       4.353   5.055  17.619  0.00  0.00    +0.000 A 
ATOM      5  C   UNL     1       5.050   4.094  18.365  0.00  0.00    +0.000 A 
ATOM      6  C   UNL     1       4.365   3.200  19.203  0.00  0.00    +0.000 A 
ENDROOT
BRANCH   1   8
ATOM      7  C   UNL     1       1.856   2.866  21.392  0.00  0.00    +0.000 C 
ATOM      8  O   UNL     1       2.142   2.466  20.060  0.00  0.00    +0.000 OA
ENDBRANCH   1   8
BRANCH   6   9
ATOM      9  O   UNL     1       5.101   2.283  19.902  0.00  0.00    +0.000 OA
ATOM     10  H   UNL     1       4.743   2.202  20.800  0.00  0.00    +0.000 HD
ENDBRANCH   6   9
BRANCH   4  11
ATOM     11  C   UNL     1       5.090   6.007  16.708  0.00  0.00    +0.000 C 
BRANCH  11  12
ATOM     12  C   UNL     1       6.603   5.998  16.952  0.00  0.00    +0.000 C 
BRANCH  12  13
ATOM     13  N   UNL     1       7.335   5.776  15.705  0.00  0.00    +0.000 NA
ATOM     14  H   UNL     1       7.953   4.971  15.805  0.00  0.00    +0.000 HD
ATOM     15  H   UNL     1       7.937   6.577  15.521  0.00  0.00    +0.000 HD
ENDBRANCH  12  13
ENDBRANCH  11  12
ENDBRANCH   4  11
TORSDOF 5
ENDMDL
MODEL 4
REMARK VINA RESULT:      -5.2      3.154      5.056
REMARK  Name = 
REMARK  6 active torsions:
REMARK  status: ('A' for Active; 'I' for Inactive)
REMARK    1  A    between atoms: C_1  and  O_2
REMARK    2  A    between atoms: O_2  and  C_3
REMARK    3  A    between atoms: C_6  and  C_7
REMARK    4  A    between atoms: C_7  and  C_8
REMARK    5  A    between atoms: C_8  and  N_9
REMARK    6  A    between atoms: C_11  and  O_12
REMARK                            x       y       z     vdW  Elec       q    Type
REMARK                         _______ _______ _______ _____ _____    ______ ____
ROOT
ATOM      1  C   UNL     1       3.201   3.128  18.759  0.00  0.00    +0.000 A 
ATOM      2  C   UNL     1       2.666   4.149  17.964  0.00  0.00    +0.000 A 
ATOM      3  C   UNL     1       3.446   5.238  17.560  0.00  0.00    +0.000 A 
ATOM      4  C   UNL     1       4.787   5.324  17.942  0.00  0.00    +0.000 A 
ATOM      5  C   UNL     1       5.326   4.312  18.749  0.00  0.00    +0.000 A 
ATOM      6  C   UNL     1       4.539   3.222  19.153  0.00  0.00    +0.000 A 
ENDROOT
BRANCH   1   8
ATOM      7  C   UNL     1       0.914   2.429  18.869  0.00  0.00    +0.000 C 
ATOM      8  O   UNL     1       2.294   2.144  19.044  0.00  0.00    +0.000 OA
ENDBRANCH   1   8
BRANCH   6   9
ATOM      9  O   UNL     1       5.123   2.264  19.937  0.00  0.00    +0.000 OA
ATOM     10  H   UNL     1       4.504   2.002  20.636  0.00  0.00    +0.000 HD
ENDBRANCH   6   9
BRANCH   4  11
ATOM     11  C   UNL     1       5.638   6.489  17.497  0.00  0.00    +0.000 C 
BRANCH  11  12
ATOM     12  C   UNL     1       7.109   6.102  17.308  0.00  0.00    +0.000 C 
BRANCH  12  13
ATOM     13  N   UNL     1       7.403   5.823  15.902  0.00  0.00    +0.000 NA
ATOM     14  H   UNL     1       6.580   5.429  15.448  0.00  0.00    +0.000 HD
ATOM     15  H   UNL     1       8.129   5.111  15.845  0.00  0.00    +0.000 HD
ENDBRANCH  12  13
ENDBRANCH  11  12
ENDBRANCH   4  11
TORSDOF 5
ENDMDL
MODEL 5
REMARK VINA RESULT:      -5.1      2.004      2.344
REMARK  Name = 
REMARK  6 active torsions:
REMARK  status: ('A' for Active; 'I' for Inactive)
REMARK    1  A    between atoms: C_1  and  O_2
REMARK    2  A    between atoms: O_2  and  C_3
REMARK    3  A    between atoms: C_6  and  C_7
REMARK    4  A    between atoms: C_7  and  C_8
REMARK    5  A    between atoms: C_8  and  N_9
REMARK    6  A    between atoms: C_11  and  O_12
REMARK                            x       y       z     vdW  Elec       q    Type
REMARK                         _______ _______ _______ _____ _____    ______ ____
ROOT
ATOM      1  C   UNL     1       6.759   5.354  16.276  0.00  0.00    +0.000 A 
ATOM      2  C   UNL     1       5.536   6.022  16.135  0.00  0.00    +0.000 A 
ATOM      3  C   UNL     1       4.619   6.085  17.188  0.00  0.00    +0.000 A 
ATOM      4  C   UNL     1       4.911   5.484  18.414  0.00  0.00    +0.000 A 
ATOM      5  C   UNL     1       6.127   4.802  18.559  0.00  0.00    +0.000 A 
ATOM      6  C   UNL     1       7.045   4.739  17.498  0.00  0.00    +0.000 A 
ENDROOT
BRANCH   1   8
ATOM      7  C   UNL     1       7.035   4.790  13.966  0.00  0.00    +0.000 C 
ATOM      8  O   UNL     1       7.529   5.406  15.146  0.00  0.00    +0.000 OA
ENDBRANCH   1   8
BRANCH   6   9
ATOM      9  O   UNL     1       8.217   4.063  17.703  0.00  0.00    +0.000 OA
ATOM     10  H   UNL     1       8.599   4.335  18.551  0.00  0.00    +0.000 HD
ENDBRANCH   6   9
BRANCH   4  11
ATOM     11  C   UNL     1       3.930   5.562  19.560  0.00  0.00    +0.000 C 
BRANCH  11  12
ATOM     12  C   UNL     1       3.079   4.295  19.690  0.00  0.00    +0.000 C 
BRANCH  12  13
ATOM     13  N   UNL     1       2.310   4.303  20.935  0.00  0.00    +0.000 NA
ATOM     14  H   UNL     1       2.701   3.624  21.588  0.00  0.00    +0.000 HD
ATOM     15  H   UNL     1       1.357   3.999  20.744  0.00  0.00    +0.000 HD
ENDBRANCH  12  13
ENDBRANCH  11  12
ENDBRANCH   4  11
TORSDOF 5
ENDMDL
MODEL 6
REMARK VINA RESULT:      -5.1      1.358      1.437
REMARK  Name = 
REMARK  6 active torsions:
REMARK  status: ('A' for Active; 'I' for Inactive)
REMARK    1  A    between atoms: C_1  and  O_2
REMARK    2  A    between atoms: O_2  and  C_3
REMARK    3  A    between atoms: C_6  and  C_7
REMARK    4  A    between atoms: C_7  and  C_8
REMARK    5  A    between atoms: C_8  and  N_9
REMARK    6  A    between atoms: C_11  and  O_12
REMARK                            x       y       z     vdW  Elec       q    Type
REMARK                         _______ _______ _______ _____ _____    ______ ____
ROOT
ATOM      1  C   UNL     1       6.705   5.692  17.476  0.00  0.00    +0.000 A 
ATOM      2  C   UNL     1       6.022   5.483  16.271  0.00  0.00    +0.000 A 
ATOM      3  C   UNL     1       4.859   4.709  16.221  0.00  0.00    +0.000 A 
ATOM      4  C   UNL     1       4.347   4.130  17.385  0.00  0.00    +0.000 A 
ATOM      5  C   UNL     1       5.031   4.324  18.592  0.00  0.00    +0.000 A 
ATOM      6  C   UNL     1       6.200   5.100  18.638  0.00  0.00    +0.000 A 
ENDROOT
BRANCH   1   8
ATOM      7  C   UNL     1       7.681   7.875  17.568  0.00  0.00    +0.000 C 
ATOM      8  O   UNL     1       7.813   6.482  17.331  0.00  0.00    +0.000 OA
ENDBRANCH   1   8
BRANCH   6   9
ATOM      9  O   UNL     1       6.821   5.255  19.847  0.00  0.00    +0.000 OA
ATOM     10  H   UNL     1       7.759   5.453  19.702  0.00  0.00    +0.000 HD
ENDBRANCH   6   9
BRANCH   4  11
ATOM     11  C   UNL     1       3.082   3.306  17.340  0.00  0.00    +0.000 C 
BRANCH  11  12
ATOM     12  C   UNL     1       3.237   1.956  18.048  0.00  0.00    +0.000 C 
BRANCH  12  13
ATOM     13  N   UNL     1       1.993   1.566  18.713  0.00  0.00    +0.000 NA
ATOM     14  H   UNL     1       1.601   2.365  19.210  0.00  0.00    +0.000 HD
ATOM     15  H   UNL     1       2.197   0.862  19.421  0.00  0.00    +0.000 HD
ENDBRANCH  12  13
ENDBRANCH  11  12
ENDBRANCH   4  11
TORSDOF 5
ENDMDL
MODEL 7
REMARK VINA RESULT:      -5.1      1.714      2.039
REMARK  Name = 
REMARK  6 active torsions:
REMARK  status: ('A' for Active; 'I' for Inactive)
REMARK    1  A    between atoms: C_1  and  O_2
REMARK    2  A    between atoms: O_2  and  C_3
REMARK    3  A    between atoms: C_6  and  C_7
REMARK    4  A    between atoms: C_7  and  C_8
REMARK    5  A    between atoms: C_8  and  N_9
REMARK    6  A    between atoms: C_11  and  O_12
REMARK                            x       y       z     vdW  Elec       q    Type
REMARK                         _______ _______ _______ _____ _____    ______ ____
ROOT
ATOM      1  C   UNL     1       5.158   5.664  17.028  0.00  0.00    +0.000 A 
ATOM      2  C   UNL     1       4.127   6.416  17.605  0.00  0.00    +0.000 A 
ATOM      3  C   UNL     1       2.905   5.827  17.947  0.00  0.00    +0.000 A 
ATOM      4  C   UNL     1       2.691   4.465  17.724  0.00  0.00    +0.000 A 
ATOM      5  C   UNL     1       3.714   3.709  17.135  0.00  0.00    +0.000 A 
ATOM      6  C   UNL     1       4.939   4.304  16.791  0.00  0.00    +0.000 A 
ENDROOT
BRANCH   1   8
ATOM      7  C   UNL     1       7.299   6.446  17.759  0.00  0.00    +0.000 C 
ATOM      8  O   UNL     1       6.280   6.405  16.772  0.00  0.00    +0.000 OA
ENDBRANCH   1   8
BRANCH   6   9
ATOM      9  O   UNL     1       5.900   3.512  16.222  0.00  0.00    +0.000 OA
ATOM     10  H   UNL     1       5.497   2.679  15.932  0.00  0.00    +0.000 HD
ENDBRANCH   6   9
BRANCH   4  11
ATOM     11  C   UNL     1       1.380   3.821  18.105  0.00  0.00    +0.000 C 
BRANCH  11  12
ATOM     12  C   UNL     1       1.514   2.891  19.315  0.00  0.00    +0.000 C 
BRANCH  12  13
ATOM     13  N   UNL     1       0.670   3.341  20.421  0.00  0.00    +0.000 NA
ATOM     14  H   UNL     1       1.237   3.474  21.258  0.00  0.00    +0.000 HD
ATOM     15  H   UNL     1      -0.005   2.612  20.648  0.00  0.00    +0.000 HD
ENDBRANCH  12  13
ENDBRANCH  11  12
ENDBRANCH   4  11
TORSDOF 5
ENDMDL
MODEL 8
REMARK VINA RESULT:      -5.1      3.438      5.022
REMARK  Name = 
REMARK  6 active torsions:
REMARK  status: ('A' for Active; 'I' for Inactive)
REMARK    1  A    between atoms: C_1  and  O_2
REMARK    2  A    between atoms: O_2  and  C_3
REMARK    3  A    between atoms: C_6  and  C_7
REMARK    4  A    between atoms: C_7  and  C_8
REMARK    5  A    between atoms: C_8  and  N_9
REMARK    6  A    between atoms: C_11  and  O_12
REMARK                            x       y       z     vdW  Elec       q    Type
REMARK                         _______ _______ _______ _____ _____    ______ ____
ROOT
ATOM      1  C   UNL     1       2.631   3.433  18.584  0.00  0.00    +0.000 A 
ATOM      2  C   UNL     1       2.413   4.815  18.519  0.00  0.00    +0.000 A 
ATOM      3  C   UNL     1       3.254   5.647  17.775  0.00  0.00    +0.000 A 
ATOM      4  C   UNL     1       4.335   5.111  17.071  0.00  0.00    +0.000 A 
ATOM      5  C   UNL     1       4.568   3.730  17.142  0.00  0.00    +0.000 A 
ATOM      6  C   UNL     1       3.722   2.898  17.892  0.00  0.00    +0.000 A 
ENDROOT
BRANCH   1   8
ATOM      7  C   UNL     1       1.051   3.508  20.381  0.00  0.00    +0.000 C 
ATOM      8  O   UNL     1       1.702   2.781  19.349  0.00  0.00    +0.000 OA
ENDBRANCH   1   8
BRANCH   6   9
ATOM      9  O   UNL     1       3.999   1.558  17.920  0.00  0.00    +0.000 OA
ATOM     10  H   UNL     1       3.564   1.126  17.169  0.00  0.00    +0.000 HD
ENDBRANCH   6   9
BRANCH   4  11
ATOM     11  C   UNL     1       5.238   6.003  16.253  0.00  0.00    +0.000 C 
BRANCH  11  12
ATOM     12  C   UNL     1       5.958   5.241  15.136  0.00  0.00    +0.000 C 
BRANCH  12  13
ATOM     13  N   UNL     1       7.408   5.418  15.229  0.00  0.00    +0.000 NA
ATOM     14  H   UNL     1       7.620   6.345  15.597  0.00  0.00    +0.000 HD
ATOM     15  H   UNL     1       7.811   5.383  14.294  0.00  0.00    +0.000 HD
ENDBRANCH  12  13
ENDBRANCH  11  12
ENDBRANCH   4  11
TORSDOF 5
ENDMDL
MODEL 9
REMARK VINA RESULT:      -5.1      1.378      1.482
REMARK  Name = 
REMARK  6 active torsions:
REMARK  status: ('A' for Active; 'I' for Inactive)
REMARK    1  A    between atoms: C_1  and  O_2
REMARK    2  A    between atoms: O_2  and  C_3
REMARK    3  A    between atoms: C_6  and  C_7
REMARK    4  A    between atoms: C_7  and  C_8
REMARK    5  A    between atoms: C_8  and  N_9
REMARK    6  A    between atoms: C_11  and  O_12
REMARK                            x       y       z     vdW  Elec       q    Type
REMARK                         _______ _______ _______ _____ _____    ______ ____
ROOT
ATOM      1  C   UNL     1       6.924   5.763  17.849  0.00  0.00    +0.000 A 
ATOM      2  C   UNL     1       6.117   5.418  18.940  0.00  0.00    +0.000 A 
ATOM      3  C   UNL     1       5.034   4.546  18.793  0.00  0.00    +0.000 A 
ATOM      4  C   UNL     1       4.738   3.992  17.546  0.00  0.00    +0.000 A 
ATOM      5  C   UNL     1       5.535   4.342  16.446  0.00  0.00    +0.000 A 
ATOM      6  C   UNL     1       6.620   5.219  16.597  0.00  0.00    +0.000 A 
ENDROOT
BRANCH   1   8
ATOM      7  C   UNL     1       7.833   7.977  17.791  0.00  0.00    +0.000 C 
ATOM      8  O   UNL     1       7.939   6.617  18.185  0.00  0.00    +0.000 OA
ENDBRANCH   1   8
BRANCH   6   9
ATOM      9  O   UNL     1       7.362   5.520  15.487  0.00  0.00    +0.000 OA
ATOM     10  H   UNL     1       7.530   4.707  14.985  0.00  0.00    +0.000 HD
ENDBRANCH   6   9
BRANCH   4  11
ATOM     11  C   UNL     1       3.579   3.037  17.384  0.00  0.00    +0.000 C 
BRANCH  11  12
ATOM     12  C   UNL     1       3.398   2.125  18.602  0.00  0.00    +0.000 C 
BRANCH  12  13
ATOM     13  N   UNL     1       4.029   0.823  18.382  0.00  0.00    +0.000 NA
ATOM     14  H   UNL     1       3.479   0.091  18.831  0.00  0.00    +0.000 HD
ATOM     15  H   UNL     1       4.942   0.811  18.834  0.00  0.00    +0.000 HD
ENDBRANCH  12  13
ENDBRANCH  11  12
ENDBRANCH   4  11
TORSDOF 5
ENDMDL
