MODEL 1
REMARK VINA RESULT:      -7.3      0.000      0.000
REMARK  Name = 
REMARK  5 active torsions:
REMARK  status: ('A' for Active; 'I' for Inactive)
REMARK    1  A    between atoms: C_1  and  C_2
REMARK    2  A    between atoms: C_2  and  O_3
REMARK    3  A    between atoms: O_3  and  C_4
REMARK    4  A    between atoms: C_11  and  N_12
REMARK    5  A    between atoms: C_15  and  C_16
REMARK                            x       y       z     vdW  Elec       q    Type
REMARK                         _______ _______ _______ _____ _____    ______ ____
ROOT
ATOM      1  C   UNL     1      -1.396  11.845  20.724  0.00  0.00    +0.000 C 
ATOM      2  O   UNL     1      -1.102  12.471  19.719  0.00  0.00    +0.000 OA
ATOM      3  N   UNL     1      -0.894  10.658  21.168  0.00  0.00    +0.000 N 
ATOM      4  C   UNL     1       0.088   9.911  20.513  0.00  0.00    +0.000 A 
ATOM      5  C   UNL     1       0.553   8.756  21.131  0.00  0.00    +0.000 A 
ATOM      6  C   UNL     1       1.498   7.942  20.484  0.00  0.00    +0.000 A 
ATOM      7  C   UNL     1       1.961   8.348  19.212  0.00  0.00    +0.000 A 
ATOM      8  C   UNL     1       1.447   9.551  18.691  0.00  0.00    +0.000 A 
ATOM      9  N   UNL     1       0.532  10.308  19.314  0.00  0.00    +0.000 NA
ATOM     10  N   UNL     1       2.957   7.675  18.457  0.00  0.00    +0.000 NA
ATOM     11  C   UNL     1       2.879   6.389  18.284  0.00  0.00    +0.000 C 
ATOM     12  C   UNL     1       1.779   5.557  18.911  0.00  0.00    +0.000 C 
ATOM     13  C   UNL     1       2.046   5.497  20.405  0.00  0.00    +0.000 C 
ATOM     14  N   UNL     1       1.878   6.758  21.119  0.00  0.00    +0.000 N 
ATOM     15  H   UNL     1      -1.246  10.348  22.058  0.00  0.00    +0.000 HD
ATOM     16  H   UNL     1       1.623   6.665  22.096  0.00  0.00    +0.000 HD
ENDROOT
BRANCH  11  17
ATOM     17  C   UNL     1       3.893   5.705  17.432  0.00  0.00    +0.000 A 
ATOM     18  C   UNL     1       3.963   4.308  17.360  0.00  0.00    +0.000 A 
ATOM     19  C   UNL     1       4.889   3.694  16.515  0.00  0.00    +0.000 A 
ATOM     20  C   UNL     1       5.756   4.470  15.748  0.00  0.00    +0.000 A 
ATOM     21  C   UNL     1       5.711   5.860  15.836  0.00  0.00    +0.000 A 
ATOM     22  C   UNL     1       4.784   6.479  16.678  0.00  0.00    +0.000 A 
ENDBRANCH  11  17
BRANCH   8  23
ATOM     23  N   UNL     1       1.819   9.990  17.412  0.00  0.00    +0.000 N 
ATOM     24  H   UNL     1       1.787   9.206  16.769  0.00  0.00    +0.000 HD
ATOM     25  H   UNL     1       2.727  10.438  17.501  0.00  0.00    +0.000 HD
ENDBRANCH   8  23
BRANCH   1  26
ATOM     26  O   UNL     1      -2.288  12.295  21.651  0.00  0.00    +0.000 OA
BRANCH  26  28
ATOM     27  C   UNL     1      -3.223  12.260  23.854  0.00  0.00    +0.000 C 
ATOM     28  C   UNL     1      -2.060  11.816  22.985  0.00  0.00    +0.000 C 
ENDBRANCH  26  28
ENDBRANCH   1  26
TORSDOF 4
ENDMDL
MODEL 2
REMARK VINA RESULT:      -7.3      0.470      1.119
REMARK  Name = 
REMARK  5 active torsions:
REMARK  status: ('A' for Active; 'I' for Inactive)
REMARK    1  A    between atoms: C_1  and  C_2
REMARK    2  A    between atoms: C_2  and  O_3
REMARK    3  A    between atoms: O_3  and  C_4
REMARK    4  A    between atoms: C_11  and  N_12
REMARK    5  A    between atoms: C_15  and  C_16
REMARK                            x       y       z     vdW  Elec       q    Type
REMARK                         _______ _______ _______ _____ _____    ______ ____
ROOT
ATOM      1  C   UNL     1      -1.252  11.711  20.856  0.00  0.00    +0.000 C 
ATOM      2  O   UNL     1      -0.967  12.367  19.867  0.00  0.00    +0.000 OA
ATOM      3  N   UNL     1      -0.755  10.505  21.253  0.00  0.00    +0.000 N 
ATOM      4  C   UNL     1       0.210   9.772  20.558  0.00  0.00    +0.000 A 
ATOM      5  C   UNL     1       0.673   8.592  21.131  0.00  0.00    +0.000 A 
ATOM      6  C   UNL     1       1.600   7.792  20.443  0.00  0.00    +0.000 A 
ATOM      7  C   UNL     1       2.047   8.235  19.178  0.00  0.00    +0.000 A 
ATOM      8  C   UNL     1       1.538   9.459  18.705  0.00  0.00    +0.000 A 
ATOM      9  N   UNL     1       0.639  10.204  19.366  0.00  0.00    +0.000 NA
ATOM     10  N   UNL     1       3.026   7.578  18.386  0.00  0.00    +0.000 NA
ATOM     11  C   UNL     1       2.932   6.299  18.172  0.00  0.00    +0.000 C 
ATOM     12  C   UNL     1       1.834   5.458  18.788  0.00  0.00    +0.000 C 
ATOM     13  C   UNL     1       2.123   5.345  20.275  0.00  0.00    +0.000 C 
ATOM     14  N   UNL     1       1.978   6.584  21.033  0.00  0.00    +0.000 N 
ATOM     15  H   UNL     1      -1.096  10.170  22.137  0.00  0.00    +0.000 HD
ATOM     16  H   UNL     1       1.737   6.461  22.010  0.00  0.00    +0.000 HD
ENDROOT
BRANCH  11  17
ATOM     17  C   UNL     1       3.927   5.634  17.282  0.00  0.00    +0.000 A 
ATOM     18  C   UNL     1       4.842   6.377  16.528  0.00  0.00    +0.000 A 
ATOM     19  C   UNL     1       5.796   5.727  15.743  0.00  0.00    +0.000 A 
ATOM     20  C   UNL     1       5.833   4.335  15.698  0.00  0.00    +0.000 A 
ATOM     21  C   UNL     1       4.906   3.589  16.425  0.00  0.00    +0.000 A 
ATOM     22  C   UNL     1       3.952   4.235  17.215  0.00  0.00    +0.000 A 
ENDBRANCH  11  17
BRANCH   8  23
ATOM     23  N   UNL     1       1.894   9.937  17.435  0.00  0.00    +0.000 N 
ATOM     24  H   UNL     1       1.161  10.549  17.093  0.00  0.00    +0.000 HD
ATOM     25  H   UNL     1       2.086   9.127  16.853  0.00  0.00    +0.000 HD
ENDBRANCH   8  23
BRANCH   1  26
ATOM     26  O   UNL     1      -2.126  12.139  21.810  0.00  0.00    +0.000 OA
BRANCH  26  28
ATOM     27  C   UNL     1      -1.362  13.663  23.490  0.00  0.00    +0.000 C 
ATOM     28  C   UNL     1      -1.580  12.203  23.137  0.00  0.00    +0.000 C 
ENDBRANCH  26  28
ENDBRANCH   1  26
TORSDOF 4
ENDMDL
MODEL 3
REMARK VINA RESULT:      -7.2      3.530      8.527
REMARK  Name = 
REMARK  5 active torsions:
REMARK  status: ('A' for Active; 'I' for Inactive)
REMARK    1  A    between atoms: C_1  and  C_2
REMARK    2  A    between atoms: C_2  and  O_3
REMARK    3  A    between atoms: O_3  and  C_4
REMARK    4  A    between atoms: C_11  and  N_12
REMARK    5  A    between atoms: C_15  and  C_16
REMARK                            x       y       z     vdW  Elec       q    Type
REMARK                         _______ _______ _______ _____ _____    ______ ____
ROOT
ATOM      1  C   UNL     1       4.489   3.804  17.193  0.00  0.00    +0.000 C 
ATOM      2  O   UNL     1       4.209   3.153  18.187  0.00  0.00    +0.000 OA
ATOM      3  N   UNL     1       4.238   5.118  16.934  0.00  0.00    +0.000 N 
ATOM      4  C   UNL     1       3.579   5.992  17.803  0.00  0.00    +0.000 A 
ATOM      5  C   UNL     1       3.467   7.326  17.429  0.00  0.00    +0.000 A 
ATOM      6  C   UNL     1       2.762   8.229  18.243  0.00  0.00    +0.000 A 
ATOM      7  C   UNL     1       2.201   7.739  19.443  0.00  0.00    +0.000 A 
ATOM      8  C   UNL     1       2.400   6.377  19.741  0.00  0.00    +0.000 A 
ATOM      9  N   UNL     1       3.060   5.523  18.945  0.00  0.00    +0.000 NA
ATOM     10  N   UNL     1       1.517   8.530  20.403  0.00  0.00    +0.000 NA
ATOM     11  C   UNL     1       0.584   9.350  20.019  0.00  0.00    +0.000 C 
ATOM     12  C   UNL     1       0.228   9.538  18.559  0.00  0.00    +0.000 C 
ATOM     13  C   UNL     1       1.373  10.288  17.902  0.00  0.00    +0.000 C 
ATOM     14  N   UNL     1       2.621   9.541  17.786  0.00  0.00    +0.000 N 
ATOM     15  H   UNL     1       4.607   5.463  16.065  0.00  0.00    +0.000 HD
ATOM     16  H   UNL     1       3.214   9.818  17.012  0.00  0.00    +0.000 HD
ENDROOT
BRANCH  11  17
ATOM     17  C   UNL     1      -0.173  10.125  21.044  0.00  0.00    +0.000 A 
ATOM     18  C   UNL     1      -0.821  11.323  20.721  0.00  0.00    +0.000 A 
ATOM     19  C   UNL     1      -1.565  12.001  21.687  0.00  0.00    +0.000 A 
ATOM     20  C   UNL     1      -1.657  11.494  22.981  0.00  0.00    +0.000 A 
ATOM     21  C   UNL     1      -0.991  10.316  23.318  0.00  0.00    +0.000 A 
ATOM     22  C   UNL     1      -0.248   9.632  22.353  0.00  0.00    +0.000 A 
ENDBRANCH  11  17
BRANCH   8  23
ATOM     23  N   UNL     1       1.827   5.807  20.887  0.00  0.00    +0.000 N 
ATOM     24  H   UNL     1       0.824   5.735  20.756  0.00  0.00    +0.000 HD
ATOM     25  H   UNL     1       2.118   6.371  21.680  0.00  0.00    +0.000 HD
ENDBRANCH   8  23
BRANCH   1  26
ATOM     26  O   UNL     1       5.193   3.297  16.142  0.00  0.00    +0.000 OA
BRANCH  26  28
ATOM     27  C   UNL     1       6.112   4.080  14.075  0.00  0.00    +0.000 C 
ATOM     28  C   UNL     1       6.170   4.192  15.588  0.00  0.00    +0.000 C 
ENDBRANCH  26  28
ENDBRANCH   1  26
TORSDOF 4
ENDMDL
MODEL 4
REMARK VINA RESULT:      -7.2      3.525      8.496
REMARK  Name = 
REMARK  5 active torsions:
REMARK  status: ('A' for Active; 'I' for Inactive)
REMARK    1  A    between atoms: C_1  and  C_2
REMARK    2  A    between atoms: C_2  and  O_3
REMARK    3  A    between atoms: O_3  and  C_4
REMARK    4  A    between atoms: C_11  and  N_12
REMARK    5  A    between atoms: C_15  and  C_16
REMARK                            x       y       z     vdW  Elec       q    Type
REMARK                         _______ _______ _______ _____ _____    ______ ____
ROOT
ATOM      1  C   UNL     1       4.580   3.943  17.076  0.00  0.00    +0.000 C 
ATOM      2  O   UNL     1       4.296   3.259  18.046  0.00  0.00    +0.000 OA
ATOM      3  N   UNL     1       4.313   5.261  16.852  0.00  0.00    +0.000 N 
ATOM      4  C   UNL     1       3.629   6.098  17.737  0.00  0.00    +0.000 A 
ATOM      5  C   UNL     1       3.502   7.441  17.401  0.00  0.00    +0.000 A 
ATOM      6  C   UNL     1       2.773   8.309  18.231  0.00  0.00    +0.000 A 
ATOM      7  C   UNL     1       2.202   7.776  19.408  0.00  0.00    +0.000 A 
ATOM      8  C   UNL     1       2.418   6.409  19.669  0.00  0.00    +0.000 A 
ATOM      9  N   UNL     1       3.102   5.588  18.857  0.00  0.00    +0.000 NA
ATOM     10  N   UNL     1       1.494   8.529  20.381  0.00  0.00    +0.000 NA
ATOM     11  C   UNL     1       0.554   9.345  20.008  0.00  0.00    +0.000 C 
ATOM     12  C   UNL     1       0.215   9.571  18.550  0.00  0.00    +0.000 C 
ATOM     13  C   UNL     1       1.357  10.356  17.930  0.00  0.00    +0.000 C 
ATOM     14  N   UNL     1       2.618   9.632  17.810  0.00  0.00    +0.000 N 
ATOM     15  H   UNL     1       4.689   5.636  15.999  0.00  0.00    +0.000 HD
ATOM     16  H   UNL     1       3.218   9.940  17.054  0.00  0.00    +0.000 HD
ENDROOT
BRANCH  11  17
ATOM     17  C   UNL     1      -0.229  10.078  21.044  0.00  0.00    +0.000 A 
ATOM     18  C   UNL     1      -0.320   9.606  22.359  0.00  0.00    +0.000 A 
ATOM     19  C   UNL     1      -1.017  10.339  23.321  0.00  0.00    +0.000 A 
ATOM     20  C   UNL     1      -1.635  11.538  22.974  0.00  0.00    +0.000 A 
ATOM     21  C   UNL     1      -1.572  12.000  21.660  0.00  0.00    +0.000 A 
ATOM     22  C   UNL     1      -0.873  11.272  20.694  0.00  0.00    +0.000 A 
ENDBRANCH  11  17
BRANCH   8  23
ATOM     23  N   UNL     1       1.838   5.797  20.790  0.00  0.00    +0.000 N 
ATOM     24  H   UNL     1       2.337   6.088  21.623  0.00  0.00    +0.000 HD
ATOM     25  H   UNL     1       1.836   4.796  20.616  0.00  0.00    +0.000 HD
ENDBRANCH   8  23
BRANCH   1  26
ATOM     26  O   UNL     1       5.306   3.477  16.020  0.00  0.00    +0.000 OA
BRANCH  26  28
ATOM     27  C   UNL     1       6.059   3.871  13.783  0.00  0.00    +0.000 C 
ATOM     28  C   UNL     1       5.809   4.497  15.143  0.00  0.00    +0.000 C 
ENDBRANCH  26  28
ENDBRANCH   1  26
TORSDOF 4
ENDMDL
MODEL 5
REMARK VINA RESULT:      -7.0      1.166      1.624
REMARK  Name = 
REMARK  5 active torsions:
REMARK  status: ('A' for Active; 'I' for Inactive)
REMARK    1  A    between atoms: C_1  and  C_2
REMARK    2  A    between atoms: C_2  and  O_3
REMARK    3  A    between atoms: O_3  and  C_4
REMARK    4  A    between atoms: C_11  and  N_12
REMARK    5  A    between atoms: C_15  and  C_16
REMARK                            x       y       z     vdW  Elec       q    Type
REMARK                         _______ _______ _______ _____ _____    ______ ____
ROOT
ATOM      1  C   UNL     1      -0.695  10.431  21.589  0.00  0.00    +0.000 C 
ATOM      2  O   UNL     1      -0.477  11.252  20.712  0.00  0.00    +0.000 OA
ATOM      3  N   UNL     1      -0.157   9.189  21.749  0.00  0.00    +0.000 N 
ATOM      4  C   UNL     1       0.779   8.607  20.890  0.00  0.00    +0.000 A 
ATOM      5  C   UNL     1       1.292   7.361  21.228  0.00  0.00    +0.000 A 
ATOM      6  C   UNL     1       2.192   6.711  20.366  0.00  0.00    +0.000 A 
ATOM      7  C   UNL     1       2.560   7.372  19.174  0.00  0.00    +0.000 A 
ATOM      8  C   UNL     1       2.005   8.645  18.943  0.00  0.00    +0.000 A 
ATOM      9  N   UNL     1       1.133   9.245  19.767  0.00  0.00    +0.000 NA
ATOM     10  N   UNL     1       3.503   6.883  18.231  0.00  0.00    +0.000 NA
ATOM     11  C   UNL     1       3.418   5.657  17.808  0.00  0.00    +0.000 C 
ATOM     12  C   UNL     1       2.370   4.696  18.330  0.00  0.00    +0.000 C 
ATOM     13  C   UNL     1       2.744   4.342  19.759  0.00  0.00    +0.000 C 
ATOM     14  N   UNL     1       2.622   5.431  20.723  0.00  0.00    +0.000 N 
ATOM     15  H   UNL     1      -0.443   8.700  22.580  0.00  0.00    +0.000 HD
ATOM     16  H   UNL     1       2.438   5.139  21.676  0.00  0.00    +0.000 HD
ENDROOT
BRANCH  11  17
ATOM     17  C   UNL     1       4.371   5.177  16.768  0.00  0.00    +0.000 A 
ATOM     18  C   UNL     1       5.043   6.071  15.926  0.00  0.00    +0.000 A 
ATOM     19  C   UNL     1       5.969   5.597  14.995  0.00  0.00    +0.000 A 
ATOM     20  C   UNL     1       6.219   4.231  14.891  0.00  0.00    +0.000 A 
ATOM     21  C   UNL     1       5.533   3.332  15.707  0.00  0.00    +0.000 A 
ATOM     22  C   UNL     1       4.608   3.802  16.643  0.00  0.00    +0.000 A 
ENDBRANCH  11  17
BRANCH   8  23
ATOM     23  N   UNL     1       2.282   9.339  17.756  0.00  0.00    +0.000 N 
ATOM     24  H   UNL     1       3.019  10.014  17.930  0.00  0.00    +0.000 HD
ATOM     25  H   UNL     1       1.405   9.735  17.429  0.00  0.00    +0.000 HD
ENDBRANCH   8  23
BRANCH   1  26
ATOM     26  O   UNL     1      -1.521  10.669  22.647  0.00  0.00    +0.000 OA
BRANCH  26  28
ATOM     27  C   UNL     1      -3.024  12.473  23.111  0.00  0.00    +0.000 C 
ATOM     28  C   UNL     1      -1.570  12.040  23.072  0.00  0.00    +0.000 C 
ENDBRANCH  26  28
ENDBRANCH   1  26
TORSDOF 4
ENDMDL
MODEL 6
REMARK VINA RESULT:      -6.7      1.965      3.041
REMARK  Name = 
REMARK  5 active torsions:
REMARK  status: ('A' for Active; 'I' for Inactive)
REMARK    1  A    between atoms: C_1  and  C_2
REMARK    2  A    between atoms: C_2  and  O_3
REMARK    3  A    between atoms: O_3  and  C_4
REMARK    4  A    between atoms: C_11  and  N_12
REMARK    5  A    between atoms: C_15  and  C_16
REMARK                            x       y       z     vdW  Elec       q    Type
REMARK                         _______ _______ _______ _____ _____    ______ ____
ROOT
ATOM      1  C   UNL     1       0.216   8.698  21.314  0.00  0.00    +0.000 C 
ATOM      2  O   UNL     1       0.290   9.644  20.546  0.00  0.00    +0.000 OA
ATOM      3  N   UNL     1       0.881   7.509  21.270  0.00  0.00    +0.000 N 
ATOM      4  C   UNL     1       1.804   7.146  20.287  0.00  0.00    +0.000 A 
ATOM      5  C   UNL     1       2.458   5.926  20.421  0.00  0.00    +0.000 A 
ATOM      6  C   UNL     1       3.352   5.493  19.428  0.00  0.00    +0.000 A 
ATOM      7  C   UNL     1       3.569   6.339  18.318  0.00  0.00    +0.000 A 
ATOM      8  C   UNL     1       2.878   7.565  18.295  0.00  0.00    +0.000 A 
ATOM      9  N   UNL     1       2.014   7.958  19.244  0.00  0.00    +0.000 NA
ATOM     10  N   UNL     1       4.484   6.078  17.264  0.00  0.00    +0.000 NA
ATOM     11  C   UNL     1       4.488   4.916  16.683  0.00  0.00    +0.000 C 
ATOM     12  C   UNL     1       3.577   3.790  17.128  0.00  0.00    +0.000 C 
ATOM     13  C   UNL     1       4.085   3.294  18.471  0.00  0.00    +0.000 C 
ATOM     14  N   UNL     1       3.928   4.229  19.580  0.00  0.00    +0.000 N 
ATOM     15  H   UNL     1       0.704   6.889  22.042  0.00  0.00    +0.000 HD
ATOM     16  H   UNL     1       3.842   3.798  20.493  0.00  0.00    +0.000 HD
ENDROOT
BRANCH  11  17
ATOM     17  C   UNL     1       5.406   4.678  15.533  0.00  0.00    +0.000 A 
ATOM     18  C   UNL     1       5.002   3.931  14.419  0.00  0.00    +0.000 A 
ATOM     19  C   UNL     1       5.865   3.768  13.334  0.00  0.00    +0.000 A 
ATOM     20  C   UNL     1       7.136   4.337  13.360  0.00  0.00    +0.000 A 
ATOM     21  C   UNL     1       7.555   5.057  14.477  0.00  0.00    +0.000 A 
ATOM     22  C   UNL     1       6.694   5.227  15.564  0.00  0.00    +0.000 A 
ENDBRANCH  11  17
BRANCH   8  23
ATOM     23  N   UNL     1       3.002   8.433  17.201  0.00  0.00    +0.000 N 
ATOM     24  H   UNL     1       2.194   9.047  17.171  0.00  0.00    +0.000 HD
ATOM     25  H   UNL     1       3.134   7.857  16.375  0.00  0.00    +0.000 HD
ENDBRANCH   8  23
BRANCH   1  26
ATOM     26  O   UNL     1      -0.551   8.708  22.440  0.00  0.00    +0.000 OA
BRANCH  26  28
ATOM     27  C   UNL     1      -1.296  10.866  23.161  0.00  0.00    +0.000 C 
ATOM     28  C   UNL     1      -0.258   9.775  23.355  0.00  0.00    +0.000 C 
ENDBRANCH  26  28
ENDBRANCH   1  26
TORSDOF 4
ENDMDL
MODEL 7
REMARK VINA RESULT:      -6.7      3.088      8.489
REMARK  Name = 
REMARK  5 active torsions:
REMARK  status: ('A' for Active; 'I' for Inactive)
REMARK    1  A    between atoms: C_1  and  C_2
REMARK    2  A    between atoms: C_2  and  O_3
REMARK    3  A    between atoms: O_3  and  C_4
REMARK    4  A    between atoms: C_11  and  N_12
REMARK    5  A    between atoms: C_15  and  C_16
REMARK                            x       y       z     vdW  Elec       q    Type
REMARK                         _______ _______ _______ _____ _____    ______ ____
ROOT
ATOM      1  C   UNL     1       3.606   5.475  18.572  0.00  0.00    +0.000 C 
ATOM      2  O   UNL     1       3.768   5.247  19.760  0.00  0.00    +0.000 OA
ATOM      3  N   UNL     1       2.956   6.519  17.983  0.00  0.00    +0.000 N 
ATOM      4  C   UNL     1       2.325   7.557  18.672  0.00  0.00    +0.000 A 
ATOM      5  C   UNL     1       1.770   8.593  17.930  0.00  0.00    +0.000 A 
ATOM      6  C   UNL     1       1.075   9.629  18.575  0.00  0.00    +0.000 A 
ATOM      7  C   UNL     1       0.982   9.586  19.984  0.00  0.00    +0.000 A 
ATOM      8  C   UNL     1       1.606   8.509  20.640  0.00  0.00    +0.000 A 
ATOM      9  N   UNL     1       2.251   7.517  20.008  0.00  0.00    +0.000 NA
ATOM     10  N   UNL     1       0.372  10.584  20.789  0.00  0.00    +0.000 NA
ATOM     11  C   UNL     1      -0.812  11.026  20.485  0.00  0.00    +0.000 C 
ATOM     12  C   UNL     1      -1.557  10.553  19.254  0.00  0.00    +0.000 C 
ATOM     13  C   UNL     1      -0.856  11.137  18.041  0.00  0.00    +0.000 C 
ATOM     14  N   UNL     1       0.477  10.607  17.776  0.00  0.00    +0.000 N 
ATOM     15  H   UNL     1       2.991   6.535  16.978  0.00  0.00    +0.000 HD
ATOM     16  H   UNL     1       0.763  10.634  16.804  0.00  0.00    +0.000 HD
ENDROOT
BRANCH  11  17
ATOM     17  C   UNL     1      -1.469  12.024  21.377  0.00  0.00    +0.000 A 
ATOM     18  C   UNL     1      -0.895  12.402  22.596  0.00  0.00    +0.000 A 
ATOM     19  C   UNL     1      -1.506  13.376  23.388  0.00  0.00    +0.000 A 
ATOM     20  C   UNL     1      -2.697  13.968  22.972  0.00  0.00    +0.000 A 
ATOM     21  C   UNL     1      -3.290  13.576  21.773  0.00  0.00    +0.000 A 
ATOM     22  C   UNL     1      -2.680  12.604  20.976  0.00  0.00    +0.000 A 
ENDBRANCH  11  17
BRANCH   8  23
ATOM     23  N   UNL     1       1.511   8.369  22.033  0.00  0.00    +0.000 N 
ATOM     24  H   UNL     1       2.223   7.721  22.351  0.00  0.00    +0.000 HD
ATOM     25  H   UNL     1       0.555   8.096  22.242  0.00  0.00    +0.000 HD
ENDBRANCH   8  23
BRANCH   1  26
ATOM     26  O   UNL     1       4.136   4.700  17.583  0.00  0.00    +0.000 OA
BRANCH  26  28
ATOM     27  C   UNL     1       2.478   2.978  17.468  0.00  0.00    +0.000 C 
ATOM     28  C   UNL     1       3.936   3.289  17.756  0.00  0.00    +0.000 C 
ENDBRANCH  26  28
ENDBRANCH   1  26
TORSDOF 4
ENDMDL
MODEL 8
REMARK VINA RESULT:      -6.6      2.783      8.749
REMARK  Name = 
REMARK  5 active torsions:
REMARK  status: ('A' for Active; 'I' for Inactive)
REMARK    1  A    between atoms: C_1  and  C_2
REMARK    2  A    between atoms: C_2  and  O_3
REMARK    3  A    between atoms: O_3  and  C_4
REMARK    4  A    between atoms: C_11  and  N_12
REMARK    5  A    between atoms: C_15  and  C_16
REMARK                            x       y       z     vdW  Elec       q    Type
REMARK                         _______ _______ _______ _____ _____    ______ ____
ROOT
ATOM      1  C   UNL     1       3.259   6.323  18.311  0.00  0.00    +0.000 C 
ATOM      2  O   UNL     1       3.276   5.870  19.444  0.00  0.00    +0.000 OA
ATOM      3  N   UNL     1       2.724   7.496  17.868  0.00  0.00    +0.000 N 
ATOM      4  C   UNL     1       2.063   8.427  18.673  0.00  0.00    +0.000 A 
ATOM      5  C   UNL     1       1.639   9.614  18.088  0.00  0.00    +0.000 A 
ATOM      6  C   UNL     1       0.920  10.555  18.844  0.00  0.00    +0.000 A 
ATOM      7  C   UNL     1       0.666  10.258  20.202  0.00  0.00    +0.000 A 
ATOM      8  C   UNL     1       1.167   9.041  20.702  0.00  0.00    +0.000 A 
ATOM      9  N   UNL     1       1.837   8.145  19.963  0.00  0.00    +0.000 NA
ATOM     10  N   UNL     1       0.012  11.126  21.115  0.00  0.00    +0.000 NA
ATOM     11  C   UNL     1      -1.110  11.690  20.780  0.00  0.00    +0.000 C 
ATOM     12  C   UNL     1      -1.731  11.499  19.412  0.00  0.00    +0.000 C 
ATOM     13  C   UNL     1      -0.873  12.253  18.411  0.00  0.00    +0.000 C 
ATOM     14  N   UNL     1       0.458  11.698  18.188  0.00  0.00    +0.000 N 
ATOM     15  H   UNL     1       2.873   7.696  16.894  0.00  0.00    +0.000 HD
ATOM     16  H   UNL     1       0.853  11.887  17.274  0.00  0.00    +0.000 HD
ENDROOT
BRANCH  11  17
ATOM     17  C   UNL     1      -1.822  12.545  21.773  0.00  0.00    +0.000 A 
ATOM     18  C   UNL     1      -3.212  12.711  21.730  0.00  0.00    +0.000 A 
ATOM     19  C   UNL     1      -3.858  13.475  22.703  0.00  0.00    +0.000 A 
ATOM     20  C   UNL     1      -3.120  14.087  23.714  0.00  0.00    +0.000 A 
ATOM     21  C   UNL     1      -1.734  13.950  23.747  0.00  0.00    +0.000 A 
ATOM     22  C   UNL     1      -1.083  13.182  22.778  0.00  0.00    +0.000 A 
ENDBRANCH  11  17
BRANCH   8  23
ATOM     23  N   UNL     1       0.909   8.653  22.025  0.00  0.00    +0.000 N 
ATOM     24  H   UNL     1       1.786   8.602  22.533  0.00  0.00    +0.000 HD
ATOM     25  H   UNL     1       0.383   7.785  21.985  0.00  0.00    +0.000 HD
ENDBRANCH   8  23
BRANCH   1  26
ATOM     26  O   UNL     1       3.865   5.713  17.253  0.00  0.00    +0.000 OA
BRANCH  26  28
ATOM     27  C   UNL     1       5.479   5.672  15.486  0.00  0.00    +0.000 C 
ATOM     28  C   UNL     1       4.858   6.510  16.590  0.00  0.00    +0.000 C 
ENDBRANCH  26  28
ENDBRANCH   1  26
TORSDOF 4
ENDMDL
MODEL 9
REMARK VINA RESULT:      -6.6      2.083      3.350
REMARK  Name = 
REMARK  5 active torsions:
REMARK  status: ('A' for Active; 'I' for Inactive)
REMARK    1  A    between atoms: C_1  and  C_2
REMARK    2  A    between atoms: C_2  and  O_3
REMARK    3  A    between atoms: O_3  and  C_4
REMARK    4  A    between atoms: C_11  and  N_12
REMARK    5  A    between atoms: C_15  and  C_16
REMARK                            x       y       z     vdW  Elec       q    Type
REMARK                         _______ _______ _______ _____ _____    ______ ____
ROOT
ATOM      1  C   UNL     1       0.454   8.551  21.323  0.00  0.00    +0.000 C 
ATOM      2  O   UNL     1       0.483   9.508  20.567  0.00  0.00    +0.000 OA
ATOM      3  N   UNL     1       1.135   7.373  21.237  0.00  0.00    +0.000 N 
ATOM      4  C   UNL     1       2.024   7.038  20.212  0.00  0.00    +0.000 A 
ATOM      5  C   UNL     1       2.701   5.828  20.304  0.00  0.00    +0.000 A 
ATOM      6  C   UNL     1       3.561   5.421  19.270  0.00  0.00    +0.000 A 
ATOM      7  C   UNL     1       3.720   6.285  18.164  0.00  0.00    +0.000 A 
ATOM      8  C   UNL     1       3.011   7.501  18.186  0.00  0.00    +0.000 A 
ATOM      9  N   UNL     1       2.180   7.868  19.173  0.00  0.00    +0.000 NA
ATOM     10  N   UNL     1       4.597   6.054  17.071  0.00  0.00    +0.000 NA
ATOM     11  C   UNL     1       4.595   4.899  16.474  0.00  0.00    +0.000 C 
ATOM     12  C   UNL     1       3.720   3.753  16.939  0.00  0.00    +0.000 C 
ATOM     13  C   UNL     1       4.289   3.248  18.254  0.00  0.00    +0.000 C 
ATOM     14  N   UNL     1       4.162   4.165  19.381  0.00  0.00    +0.000 N 
ATOM     15  H   UNL     1       0.998   6.740  22.006  0.00  0.00    +0.000 HD
ATOM     16  H   UNL     1       4.119   3.721  20.291  0.00  0.00    +0.000 HD
ENDROOT
BRANCH  11  17
ATOM     17  C   UNL     1       5.470   4.691  15.285  0.00  0.00    +0.000 A 
ATOM     18  C   UNL     1       6.759   5.235  15.224  0.00  0.00    +0.000 A 
ATOM     19  C   UNL     1       7.576   4.982  14.121  0.00  0.00    +0.000 A 
ATOM     20  C   UNL     1       7.107   4.196  13.070  0.00  0.00    +0.000 A 
ATOM     21  C   UNL     1       5.815   3.675  13.111  0.00  0.00    +0.000 A 
ATOM     22  C   UNL     1       4.995   3.923  14.215  0.00  0.00    +0.000 A 
ENDBRANCH  11  17
BRANCH   8  23
ATOM     23  N   UNL     1       3.077   8.386  17.099  0.00  0.00    +0.000 N 
ATOM     24  H   UNL     1       3.338   9.306  17.436  0.00  0.00    +0.000 HD
ATOM     25  H   UNL     1       2.182   8.340  16.621  0.00  0.00    +0.000 HD
ENDBRANCH   8  23
BRANCH   1  26
ATOM     26  O   UNL     1      -0.268   8.534  22.479  0.00  0.00    +0.000 OA
BRANCH  26  28
ATOM     27  C   UNL     1      -1.128  10.664  23.153  0.00  0.00    +0.000 C 
ATOM     28  C   UNL     1      -0.021   9.645  23.356  0.00  0.00    +0.000 C 
ENDBRANCH  26  28
ENDBRANCH   1  26
TORSDOF 4
ENDMDL
