MODEL 1
REMARK VINA RESULT:      -8.1      0.000      0.000
REMARK  Name = 
REMARK  10 active torsions:
REMARK  status: ('A' for Active; 'I' for Inactive)
REMARK    1  A    between atoms: C_1  and  C_2
REMARK    2  A    between atoms: C_4  and  C_5
REMARK    3  A    between atoms: C_7  and  S_8
REMARK    4  A    between atoms: S_8  and  C_11
REMARK    5  A    between atoms: C_12  and  C_13
REMARK    6  A    between atoms: N_15  and  C_16
REMARK    7  A    between atoms: C_16  and  C_17
REMARK    8  A    between atoms: C_17  and  S_18
REMARK    9  A    between atoms: S_18  and  N_19
REMARK   10  A    between atoms: C_26  and  N_27
REMARK                            x       y       z     vdW  Elec       q    Type
REMARK                         _______ _______ _______ _____ _____    ______ ____
ROOT
ATOM      1  C   UNL     1      -1.162  11.662  21.082  0.00  0.00    +0.000 A 
ATOM      2  C   UNL     1      -1.374  11.610  22.462  0.00  0.00    +0.000 A 
ATOM      3  N   UNL     1      -0.689  10.499  22.914  0.00  0.00    +0.000 N 
ATOM      4  C   UNL     1      -0.004   9.877  21.893  0.00  0.00    +0.000 A 
ATOM      5  C   UNL     1       0.830   8.748  21.921  0.00  0.00    +0.000 A 
ATOM      6  C   UNL     1       1.435   8.343  20.724  0.00  0.00    +0.000 A 
ATOM      7  C   UNL     1       1.193   9.044  19.541  0.00  0.00    +0.000 A 
ATOM      8  C   UNL     1       0.338  10.155  19.526  0.00  0.00    +0.000 A 
ATOM      9  C   UNL     1      -0.277  10.589  20.722  0.00  0.00    +0.000 A 
ATOM     10  H   UNL     1      -0.705  10.162  23.867  0.00  0.00    +0.000 HD
ENDROOT
BRANCH   2  11
ATOM     11  C   UNL     1      -2.189  12.468  23.301  0.00  0.00    +0.000 C 
ATOM     12  O   UNL     1      -1.751  13.463  23.867  0.00  0.00    +0.000 OA
ATOM     13  N   UNL     1      -3.532  12.142  23.408  0.00  0.00    +0.000 N 
ATOM     14  H   UNL     1      -3.911  11.310  22.982  0.00  0.00    +0.000 HD
BRANCH  13  15
ATOM     15  C   UNL     1      -4.369  12.874  24.360  0.00  0.00    +0.000 C 
BRANCH  15  16
ATOM     16  C   UNL     1      -5.502  13.614  23.677  0.00  0.00    +0.000 C 
BRANCH  16  17
ATOM     17  S   UNL     1      -7.064  12.796  23.933  0.00  0.00    +0.000 S 
ATOM     18  O   UNL     1      -6.806  11.421  24.277  0.00  0.00    +0.000 OA
ATOM     19  O   UNL     1      -7.906  13.651  24.737  0.00  0.00    +0.000 OA
BRANCH  17  20
ATOM     20  N   UNL     1      -7.705  12.783  22.410  0.00  0.00    +0.000 NA
ATOM     21  H   UNL     1      -8.508  13.370  22.210  0.00  0.00    +0.000 HD
ATOM     22  H   UNL     1      -7.259  12.225  21.685  0.00  0.00    +0.000 HD
ENDBRANCH  17  20
ENDBRANCH  16  17
ENDBRANCH  15  16
ENDBRANCH  13  15
ENDBRANCH   2  11
BRANCH   1  23
ATOM     23  S   UNL     1      -1.748  12.843  19.944  0.00  0.00    +0.000 S 
ATOM     24  O   UNL     1      -0.574  13.228  19.184  0.00  0.00    +0.000 OA
ATOM     25  O   UNL     1      -2.463  13.837  20.707  0.00  0.00    +0.000 OA
BRANCH  23  32
ATOM     26  C   UNL     1      -6.543  11.102  18.579  0.00  0.00    +0.000 C 
ATOM     27  C   UNL     1      -5.090  11.269  18.226  0.00  0.00    +0.000 A 
ATOM     28  C   UNL     1      -4.595  10.803  16.999  0.00  0.00    +0.000 A 
ATOM     29  C   UNL     1      -3.239  10.954  16.673  0.00  0.00    +0.000 A 
ATOM     30  C   UNL     1      -2.701  10.495  15.349  0.00  0.00    +0.000 C 
ATOM     31  C   UNL     1      -2.380  11.559  17.596  0.00  0.00    +0.000 A 
ATOM     32  C   UNL     1      -2.859  12.018  18.829  0.00  0.00    +0.000 A 
ATOM     33  C   UNL     1      -4.221  11.893  19.131  0.00  0.00    +0.000 A 
ENDBRANCH  23  32
ENDBRANCH   1  23
BRANCH   7  34
ATOM     34  N   UNL     1       1.840   8.622  18.287  0.00  0.00    +0.000 N 
ATOM     35  O   UNL     1       1.937   9.460  17.379  0.00  0.00    +0.000 OA
ATOM     36  O   UNL     1       2.257   7.460  18.214  0.00  0.00    +0.000 OA
ENDBRANCH   7  34
TORSDOF 8
ENDMDL
MODEL 2
REMARK VINA RESULT:      -8.0      0.778      1.904
REMARK  Name = 
REMARK  10 active torsions:
REMARK  status: ('A' for Active; 'I' for Inactive)
REMARK    1  A    between atoms: C_1  and  C_2
REMARK    2  A    between atoms: C_4  and  C_5
REMARK    3  A    between atoms: C_7  and  S_8
REMARK    4  A    between atoms: S_8  and  C_11
REMARK    5  A    between atoms: C_12  and  C_13
REMARK    6  A    between atoms: N_15  and  C_16
REMARK    7  A    between atoms: C_16  and  C_17
REMARK    8  A    between atoms: C_17  and  S_18
REMARK    9  A    between atoms: S_18  and  N_19
REMARK   10  A    between atoms: C_26  and  N_27
REMARK                            x       y       z     vdW  Elec       q    Type
REMARK                         _______ _______ _______ _____ _____    ______ ____
ROOT
ATOM      1  C   UNL     1      -1.319  11.740  21.075  0.00  0.00    +0.000 A 
ATOM      2  C   UNL     1      -1.602  11.679  22.442  0.00  0.00    +0.000 A 
ATOM      3  N   UNL     1      -0.922  10.578  22.925  0.00  0.00    +0.000 N 
ATOM      4  C   UNL     1      -0.175   9.971  21.940  0.00  0.00    +0.000 A 
ATOM      5  C   UNL     1       0.676   8.857  22.008  0.00  0.00    +0.000 A 
ATOM      6  C   UNL     1       1.350   8.466  20.842  0.00  0.00    +0.000 A 
ATOM      7  C   UNL     1       1.157   9.169  19.651  0.00  0.00    +0.000 A 
ATOM      8  C   UNL     1       0.286  10.265  19.595  0.00  0.00    +0.000 A 
ATOM      9  C   UNL     1      -0.398  10.683  20.759  0.00  0.00    +0.000 A 
ATOM     10  H   UNL     1      -0.982  10.237  23.875  0.00  0.00    +0.000 HD
ENDROOT
BRANCH   2  11
ATOM     11  C   UNL     1      -2.474  12.520  23.239  0.00  0.00    +0.000 C 
ATOM     12  O   UNL     1      -2.068  13.467  23.904  0.00  0.00    +0.000 OA
ATOM     13  N   UNL     1      -3.830  12.238  23.189  0.00  0.00    +0.000 N 
ATOM     14  H   UNL     1      -4.187  11.444  22.678  0.00  0.00    +0.000 HD
BRANCH  13  15
ATOM     15  C   UNL     1      -4.739  12.948  24.089  0.00  0.00    +0.000 C 
BRANCH  15  16
ATOM     16  C   UNL     1      -5.664  13.891  23.345  0.00  0.00    +0.000 C 
BRANCH  16  17
ATOM     17  S   UNL     1      -7.026  13.017  22.599  0.00  0.00    +0.000 S 
ATOM     18  O   UNL     1      -7.838  13.967  21.883  0.00  0.00    +0.000 OA
ATOM     19  O   UNL     1      -6.519  11.811  21.986  0.00  0.00    +0.000 OA
BRANCH  17  20
ATOM     20  N   UNL     1      -7.906  12.552  23.919  0.00  0.00    +0.000 NA
ATOM     21  H   UNL     1      -8.727  13.089  24.175  0.00  0.00    +0.000 HD
ATOM     22  H   UNL     1      -7.639  11.712  24.426  0.00  0.00    +0.000 HD
ENDBRANCH  17  20
ENDBRANCH  16  17
ENDBRANCH  15  16
ENDBRANCH  13  15
ENDBRANCH   2  11
BRANCH   1  23
ATOM     23  S   UNL     1      -1.865  12.916  19.912  0.00  0.00    +0.000 S 
ATOM     24  O   UNL     1      -0.662  13.307  19.201  0.00  0.00    +0.000 OA
ATOM     25  O   UNL     1      -2.617  13.906  20.643  0.00  0.00    +0.000 OA
BRANCH  23  32
ATOM     26  C   UNL     1      -2.687  10.284  15.408  0.00  0.00    +0.000 C 
ATOM     27  C   UNL     1      -3.246  10.842  16.688  0.00  0.00    +0.000 A 
ATOM     28  C   UNL     1      -4.604  10.687  17.002  0.00  0.00    +0.000 A 
ATOM     29  C   UNL     1      -5.126  11.212  18.194  0.00  0.00    +0.000 A 
ATOM     30  C   UNL     1      -6.568  11.021  18.563  0.00  0.00    +0.000 C 
ATOM     31  C   UNL     1      -4.278  11.910  19.060  0.00  0.00    +0.000 A 
ATOM     32  C   UNL     1      -2.923  12.082  18.752  0.00  0.00    +0.000 A 
ATOM     33  C   UNL     1      -2.404  11.525  17.577  0.00  0.00    +0.000 A 
ENDBRANCH  23  32
ENDBRANCH   1  23
BRANCH   7  34
ATOM     34  N   UNL     1       1.877   8.762  18.431  0.00  0.00    +0.000 N 
ATOM     35  O   UNL     1       2.327   7.609  18.386  0.00  0.00    +0.000 OA
ATOM     36  O   UNL     1       1.983   9.592  17.520  0.00  0.00    +0.000 OA
ENDBRANCH   7  34
TORSDOF 8
ENDMDL
MODEL 3
REMARK VINA RESULT:      -7.5      2.018      2.981
REMARK  Name = 
REMARK  10 active torsions:
REMARK  status: ('A' for Active; 'I' for Inactive)
REMARK    1  A    between atoms: C_1  and  C_2
REMARK    2  A    between atoms: C_4  and  C_5
REMARK    3  A    between atoms: C_7  and  S_8
REMARK    4  A    between atoms: S_8  and  C_11
REMARK    5  A    between atoms: C_12  and  C_13
REMARK    6  A    between atoms: N_15  and  C_16
REMARK    7  A    between atoms: C_16  and  C_17
REMARK    8  A    between atoms: C_17  and  S_18
REMARK    9  A    between atoms: S_18  and  N_19
REMARK   10  A    between atoms: C_26  and  N_27
REMARK                            x       y       z     vdW  Elec       q    Type
REMARK                         _______ _______ _______ _____ _____    ______ ____
ROOT
ATOM      1  C   UNL     1      -1.403  11.714  21.198  0.00  0.00    +0.000 A 
ATOM      2  C   UNL     1      -1.690  11.621  22.563  0.00  0.00    +0.000 A 
ATOM      3  N   UNL     1      -0.990  10.526  23.029  0.00  0.00    +0.000 N 
ATOM      4  C   UNL     1      -0.226   9.953  22.036  0.00  0.00    +0.000 A 
ATOM      5  C   UNL     1       0.648   8.855  22.088  0.00  0.00    +0.000 A 
ATOM      6  C   UNL     1       1.335   8.501  20.919  0.00  0.00    +0.000 A 
ATOM      7  C   UNL     1       1.133   9.221  19.740  0.00  0.00    +0.000 A 
ATOM      8  C   UNL     1       0.240  10.300  19.699  0.00  0.00    +0.000 A 
ATOM      9  C   UNL     1      -0.458  10.682  20.867  0.00  0.00    +0.000 A 
ATOM     10  H   UNL     1      -1.048  10.166  23.972  0.00  0.00    +0.000 HD
ENDROOT
BRANCH   2  11
ATOM     11  C   UNL     1      -2.584  12.429  23.371  0.00  0.00    +0.000 C 
ATOM     12  O   UNL     1      -3.670  12.028  23.774  0.00  0.00    +0.000 OA
ATOM     13  N   UNL     1      -2.137  13.693  23.722  0.00  0.00    +0.000 N 
ATOM     14  H   UNL     1      -1.263  14.061  23.376  0.00  0.00    +0.000 HD
BRANCH  13  15
ATOM     15  C   UNL     1      -3.053  14.610  24.401  0.00  0.00    +0.000 C 
BRANCH  15  16
ATOM     16  C   UNL     1      -2.637  16.059  24.240  0.00  0.00    +0.000 C 
BRANCH  16  17
ATOM     17  S   UNL     1      -1.121  16.403  25.110  0.00  0.00    +0.000 S 
ATOM     18  O   UNL     1      -0.033  15.802  24.382  0.00  0.00    +0.000 OA
ATOM     19  O   UNL     1      -1.118  17.794  25.500  0.00  0.00    +0.000 OA
BRANCH  17  20
ATOM     20  N   UNL     1      -1.304  15.516  26.492  0.00  0.00    +0.000 NA
ATOM     21  H   UNL     1      -0.751  15.758  27.309  0.00  0.00    +0.000 HD
ATOM     22  H   UNL     1      -1.997  14.772  26.520  0.00  0.00    +0.000 HD
ENDBRANCH  17  20
ENDBRANCH  16  17
ENDBRANCH  15  16
ENDBRANCH  13  15
ENDBRANCH   2  11
BRANCH   1  23
ATOM     23  S   UNL     1      -1.968  12.899  20.054  0.00  0.00    +0.000 S 
ATOM     24  O   UNL     1      -0.773  13.310  19.340  0.00  0.00    +0.000 OA
ATOM     25  O   UNL     1      -2.723  13.873  20.803  0.00  0.00    +0.000 OA
BRANCH  23  32
ATOM     26  C   UNL     1      -6.708  11.224  18.438  0.00  0.00    +0.000 C 
ATOM     27  C   UNL     1      -5.233  11.352  18.171  0.00  0.00    +0.000 A 
ATOM     28  C   UNL     1      -4.674  10.848  16.987  0.00  0.00    +0.000 A 
ATOM     29  C   UNL     1      -3.298  10.964  16.741  0.00  0.00    +0.000 A 
ATOM     30  C   UNL     1      -2.691  10.463  15.463  0.00  0.00    +0.000 C 
ATOM     31  C   UNL     1      -2.483  11.573  17.702  0.00  0.00    +0.000 A 
ATOM     32  C   UNL     1      -3.027  12.070  18.892  0.00  0.00    +0.000 A 
ATOM     33  C   UNL     1      -4.406  11.980  19.113  0.00  0.00    +0.000 A 
ENDBRANCH  23  32
ENDBRANCH   1  23
BRANCH   7  34
ATOM     34  N   UNL     1       1.867   8.853  18.516  0.00  0.00    +0.000 N 
ATOM     35  O   UNL     1       2.454   7.762  18.504  0.00  0.00    +0.000 OA
ATOM     36  O   UNL     1       1.849   9.649  17.570  0.00  0.00    +0.000 OA
ENDBRANCH   7  34
TORSDOF 8
ENDMDL
MODEL 4
REMARK VINA RESULT:      -7.5      0.811      1.009
REMARK  Name = 
REMARK  10 active torsions:
REMARK  status: ('A' for Active; 'I' for Inactive)
REMARK    1  A    between atoms: C_1  and  C_2
REMARK    2  A    between atoms: C_4  and  C_5
REMARK    3  A    between atoms: C_7  and  S_8
REMARK    4  A    between atoms: S_8  and  C_11
REMARK    5  A    between atoms: C_12  and  C_13
REMARK    6  A    between atoms: N_15  and  C_16
REMARK    7  A    between atoms: C_16  and  C_17
REMARK    8  A    between atoms: C_17  and  S_18
REMARK    9  A    between atoms: S_18  and  N_19
REMARK   10  A    between atoms: C_26  and  N_27
REMARK                            x       y       z     vdW  Elec       q    Type
REMARK                         _______ _______ _______ _____ _____    ______ ____
ROOT
ATOM      1  C   UNL     1      -1.105  11.666  21.043  0.00  0.00    +0.000 A 
ATOM      2  C   UNL     1      -1.322  11.614  22.422  0.00  0.00    +0.000 A 
ATOM      3  N   UNL     1      -0.644  10.498  22.875  0.00  0.00    +0.000 N 
ATOM      4  C   UNL     1       0.040   9.873  21.856  0.00  0.00    +0.000 A 
ATOM      5  C   UNL     1       0.868   8.740  21.886  0.00  0.00    +0.000 A 
ATOM      6  C   UNL     1       1.475   8.332  20.690  0.00  0.00    +0.000 A 
ATOM      7  C   UNL     1       1.241   9.036  19.507  0.00  0.00    +0.000 A 
ATOM      8  C   UNL     1       0.393  10.152  19.490  0.00  0.00    +0.000 A 
ATOM      9  C   UNL     1      -0.224  10.588  20.685  0.00  0.00    +0.000 A 
ATOM     10  H   UNL     1      -0.666  10.161  23.827  0.00  0.00    +0.000 HD
ENDROOT
BRANCH   2  11
ATOM     11  C   UNL     1      -2.135  12.476  23.258  0.00  0.00    +0.000 C 
ATOM     12  O   UNL     1      -1.698  13.479  23.811  0.00  0.00    +0.000 OA
ATOM     13  N   UNL     1      -3.475  12.144  23.380  0.00  0.00    +0.000 N 
ATOM     14  H   UNL     1      -3.853  11.305  22.964  0.00  0.00    +0.000 HD
BRANCH  13  15
ATOM     15  C   UNL     1      -4.308  12.880  24.331  0.00  0.00    +0.000 C 
BRANCH  15  16
ATOM     16  C   UNL     1      -5.785  12.763  24.010  0.00  0.00    +0.000 C 
BRANCH  16  17
ATOM     17  S   UNL     1      -6.313  14.045  22.890  0.00  0.00    +0.000 S 
ATOM     18  O   UNL     1      -7.282  14.869  23.567  0.00  0.00    +0.000 OA
ATOM     19  O   UNL     1      -5.148  14.596  22.237  0.00  0.00    +0.000 OA
BRANCH  17  20
ATOM     20  N   UNL     1      -7.146  13.189  21.748  0.00  0.00    +0.000 NA
ATOM     21  H   UNL     1      -7.697  12.388  22.039  0.00  0.00    +0.000 HD
ATOM     22  H   UNL     1      -7.132  13.502  20.780  0.00  0.00    +0.000 HD
ENDBRANCH  17  20
ENDBRANCH  16  17
ENDBRANCH  15  16
ENDBRANCH  13  15
ENDBRANCH   2  11
BRANCH   1  23
ATOM     23  S   UNL     1      -1.680  12.851  19.903  0.00  0.00    +0.000 S 
ATOM     24  O   UNL     1      -0.505  13.210  19.131  0.00  0.00    +0.000 OA
ATOM     25  O   UNL     1      -2.369  13.862  20.668  0.00  0.00    +0.000 OA
BRANCH  23  32
ATOM     26  C   UNL     1      -6.526  11.237  18.568  0.00  0.00    +0.000 C 
ATOM     27  C   UNL     1      -5.069  11.351  18.213  0.00  0.00    +0.000 A 
ATOM     28  C   UNL     1      -4.589  10.847  16.995  0.00  0.00    +0.000 A 
ATOM     29  C   UNL     1      -3.228  10.950  16.667  0.00  0.00    +0.000 A 
ATOM     30  C   UNL     1      -2.705  10.450  15.352  0.00  0.00    +0.000 C 
ATOM     31  C   UNL     1      -2.350  11.545  17.579  0.00  0.00    +0.000 A 
ATOM     32  C   UNL     1      -2.816  12.041  18.803  0.00  0.00    +0.000 A 
ATOM     33  C   UNL     1      -4.181  11.964  19.107  0.00  0.00    +0.000 A 
ENDBRANCH  23  32
ENDBRANCH   1  23
BRANCH   7  34
ATOM     34  N   UNL     1       1.891   8.611  18.255  0.00  0.00    +0.000 N 
ATOM     35  O   UNL     1       2.035   9.461  17.365  0.00  0.00    +0.000 OA
ATOM     36  O   UNL     1       2.261   7.435  18.166  0.00  0.00    +0.000 OA
ENDBRANCH   7  34
TORSDOF 8
ENDMDL
MODEL 5
REMARK VINA RESULT:      -7.5      2.245      3.440
REMARK  Name = 
REMARK  10 active torsions:
REMARK  status: ('A' for Active; 'I' for Inactive)
REMARK    1  A    between atoms: C_1  and  C_2
REMARK    2  A    between atoms: C_4  and  C_5
REMARK    3  A    between atoms: C_7  and  S_8
REMARK    4  A    between atoms: S_8  and  C_11
REMARK    5  A    between atoms: C_12  and  C_13
REMARK    6  A    between atoms: N_15  and  C_16
REMARK    7  A    between atoms: C_16  and  C_17
REMARK    8  A    between atoms: C_17  and  S_18
REMARK    9  A    between atoms: S_18  and  N_19
REMARK   10  A    between atoms: C_26  and  N_27
REMARK                            x       y       z     vdW  Elec       q    Type
REMARK                         _______ _______ _______ _____ _____    ______ ____
ROOT
ATOM      1  C   UNL     1      -0.926  11.470  20.895  0.00  0.00    +0.000 A 
ATOM      2  C   UNL     1      -1.225  11.381  22.257  0.00  0.00    +0.000 A 
ATOM      3  N   UNL     1      -0.611  10.230  22.710  0.00  0.00    +0.000 N 
ATOM      4  C   UNL     1       0.113   9.615  21.713  0.00  0.00    +0.000 A 
ATOM      5  C   UNL     1       0.902   8.455  21.752  0.00  0.00    +0.000 A 
ATOM      6  C   UNL     1       1.566   8.066  20.581  0.00  0.00    +0.000 A 
ATOM      7  C   UNL     1       1.423   8.814  19.411  0.00  0.00    +0.000 A 
ATOM      8  C   UNL     1       0.613   9.958  19.382  0.00  0.00    +0.000 A 
ATOM      9  C   UNL     1      -0.060  10.375  20.553  0.00  0.00    +0.000 A 
ATOM     10  H   UNL     1      -0.699   9.864  23.648  0.00  0.00    +0.000 HD
ENDROOT
BRANCH   2  11
ATOM     11  C   UNL     1      -2.059  12.242  23.073  0.00  0.00    +0.000 C 
ATOM     12  O   UNL     1      -3.203  11.949  23.406  0.00  0.00    +0.000 OA
ATOM     13  N   UNL     1      -1.489  13.425  23.517  0.00  0.00    +0.000 N 
ATOM     14  H   UNL     1      -0.563  13.708  23.230  0.00  0.00    +0.000 HD
BRANCH  13  15
ATOM     15  C   UNL     1      -2.327  14.405  24.209  0.00  0.00    +0.000 C 
BRANCH  15  16
ATOM     16  C   UNL     1      -1.524  15.580  24.731  0.00  0.00    +0.000 C 
BRANCH  16  17
ATOM     17  S   UNL     1      -0.550  16.330  23.441  0.00  0.00    +0.000 S 
ATOM     18  O   UNL     1      -0.397  17.730  23.742  0.00  0.00    +0.000 OA
ATOM     19  O   UNL     1       0.575  15.470  23.154  0.00  0.00    +0.000 OA
BRANCH  17  20
ATOM     20  N   UNL     1      -1.567  16.241  22.141  0.00  0.00    +0.000 NA
ATOM     21  H   UNL     1      -1.177  16.048  21.224  0.00  0.00    +0.000 HD
ATOM     22  H   UNL     1      -2.570  16.336  22.284  0.00  0.00    +0.000 HD
ENDBRANCH  17  20
ENDBRANCH  16  17
ENDBRANCH  15  16
ENDBRANCH  13  15
ENDBRANCH   2  11
BRANCH   1  23
ATOM     23  S   UNL     1      -1.396  12.709  19.765  0.00  0.00    +0.000 S 
ATOM     24  O   UNL     1      -0.196  12.967  18.991  0.00  0.00    +0.000 OA
ATOM     25  O   UNL     1      -1.990  13.772  20.538  0.00  0.00    +0.000 OA
BRANCH  23  32
ATOM     26  C   UNL     1      -2.769  10.365  15.237  0.00  0.00    +0.000 C 
ATOM     27  C   UNL     1      -3.181  10.898  16.582  0.00  0.00    +0.000 A 
ATOM     28  C   UNL     1      -4.518  10.825  17.001  0.00  0.00    +0.000 A 
ATOM     29  C   UNL     1      -4.902  11.327  18.253  0.00  0.00    +0.000 A 
ATOM     30  C   UNL     1      -6.320  11.222  18.732  0.00  0.00    +0.000 C 
ATOM     31  C   UNL     1      -3.937  11.921  19.074  0.00  0.00    +0.000 A 
ATOM     32  C   UNL     1      -2.602  12.010  18.663  0.00  0.00    +0.000 A 
ATOM     33  C   UNL     1      -2.222  11.476  17.426  0.00  0.00    +0.000 A 
ENDBRANCH  23  32
ENDBRANCH   1  23
BRANCH   7  34
ATOM     34  N   UNL     1       2.133   8.408  18.185  0.00  0.00    +0.000 N 
ATOM     35  O   UNL     1       2.204   9.232  17.263  0.00  0.00    +0.000 OA
ATOM     36  O   UNL     1       2.622   7.273  18.149  0.00  0.00    +0.000 OA
ENDBRANCH   7  34
TORSDOF 8
ENDMDL
MODEL 6
REMARK VINA RESULT:      -7.5      1.475      1.687
REMARK  Name = 
REMARK  10 active torsions:
REMARK  status: ('A' for Active; 'I' for Inactive)
REMARK    1  A    between atoms: C_1  and  C_2
REMARK    2  A    between atoms: C_4  and  C_5
REMARK    3  A    between atoms: C_7  and  S_8
REMARK    4  A    between atoms: S_8  and  C_11
REMARK    5  A    between atoms: C_12  and  C_13
REMARK    6  A    between atoms: N_15  and  C_16
REMARK    7  A    between atoms: C_16  and  C_17
REMARK    8  A    between atoms: C_17  and  S_18
REMARK    9  A    between atoms: S_18  and  N_19
REMARK   10  A    between atoms: C_26  and  N_27
REMARK                            x       y       z     vdW  Elec       q    Type
REMARK                         _______ _______ _______ _____ _____    ______ ____
ROOT
ATOM      1  C   UNL     1      -1.318  11.625  20.906  0.00  0.00    +0.000 A 
ATOM      2  C   UNL     1      -1.656  11.597  22.262  0.00  0.00    +0.000 A 
ATOM      3  N   UNL     1      -1.001  10.505  22.797  0.00  0.00    +0.000 N 
ATOM      4  C   UNL     1      -0.218   9.873  21.857  0.00  0.00    +0.000 A 
ATOM      5  C   UNL     1       0.625   8.757  21.986  0.00  0.00    +0.000 A 
ATOM      6  C   UNL     1       1.343   8.337  20.858  0.00  0.00    +0.000 A 
ATOM      7  C   UNL     1       1.202   9.012  19.644  0.00  0.00    +0.000 A 
ATOM      8  C   UNL     1       0.339  10.111  19.527  0.00  0.00    +0.000 A 
ATOM      9  C   UNL     1      -0.389  10.558  20.652  0.00  0.00    +0.000 A 
ATOM     10  H   UNL     1      -1.102  10.187  23.751  0.00  0.00    +0.000 HD
ENDROOT
BRANCH   2  11
ATOM     11  C   UNL     1      -2.556  12.459  23.003  0.00  0.00    +0.000 C 
ATOM     12  O   UNL     1      -2.170  13.278  23.830  0.00  0.00    +0.000 OA
ATOM     13  N   UNL     1      -3.905  12.357  22.705  0.00  0.00    +0.000 N 
ATOM     14  H   UNL     1      -4.254  11.668  22.055  0.00  0.00    +0.000 HD
BRANCH  13  15
ATOM     15  C   UNL     1      -4.874  13.084  23.526  0.00  0.00    +0.000 C 
BRANCH  15  16
ATOM     16  C   UNL     1      -5.424  14.307  22.818  0.00  0.00    +0.000 C 
BRANCH  16  17
ATOM     17  S   UNL     1      -4.934  15.812  23.639  0.00  0.00    +0.000 S 
ATOM     18  O   UNL     1      -3.905  16.443  22.853  0.00  0.00    +0.000 OA
ATOM     19  O   UNL     1      -6.124  16.511  24.066  0.00  0.00    +0.000 OA
BRANCH  17  20
ATOM     20  N   UNL     1      -4.196  15.240  25.002  0.00  0.00    +0.000 NA
ATOM     21  H   UNL     1      -3.206  15.420  25.137  0.00  0.00    +0.000 HD
ATOM     22  H   UNL     1      -4.750  14.758  25.706  0.00  0.00    +0.000 HD
ENDBRANCH  17  20
ENDBRANCH  16  17
ENDBRANCH  15  16
ENDBRANCH  13  15
ENDBRANCH   2  11
BRANCH   1  23
ATOM     23  S   UNL     1      -1.810  12.776  19.694  0.00  0.00    +0.000 S 
ATOM     24  O   UNL     1      -0.599  13.052  18.944  0.00  0.00    +0.000 OA
ATOM     25  O   UNL     1      -2.482  13.847  20.388  0.00  0.00    +0.000 OA
BRANCH  23  32
ATOM     26  C   UNL     1      -6.654  11.152  18.357  0.00  0.00    +0.000 C 
ATOM     27  C   UNL     1      -5.195  11.263  18.005  0.00  0.00    +0.000 A 
ATOM     28  C   UNL     1      -4.711  10.749  16.793  0.00  0.00    +0.000 A 
ATOM     29  C   UNL     1      -3.350  10.849  16.469  0.00  0.00    +0.000 A 
ATOM     30  C   UNL     1      -2.823  10.338  15.160  0.00  0.00    +0.000 C 
ATOM     31  C   UNL     1      -2.474  11.451  17.379  0.00  0.00    +0.000 A 
ATOM     32  C   UNL     1      -2.943  11.957  18.597  0.00  0.00    +0.000 A 
ATOM     33  C   UNL     1      -4.309  11.883  18.897  0.00  0.00    +0.000 A 
ENDBRANCH  23  32
ENDBRANCH   1  23
BRANCH   7  34
ATOM     34  N   UNL     1       1.969   8.575  18.464  0.00  0.00    +0.000 N 
ATOM     35  O   UNL     1       2.061   9.364  17.513  0.00  0.00    +0.000 OA
ATOM     36  O   UNL     1       2.482   7.450  18.492  0.00  0.00    +0.000 OA
ENDBRANCH   7  34
TORSDOF 8
ENDMDL
MODEL 7
REMARK VINA RESULT:      -7.4      1.230      2.165
REMARK  Name = 
REMARK  10 active torsions:
REMARK  status: ('A' for Active; 'I' for Inactive)
REMARK    1  A    between atoms: C_1  and  C_2
REMARK    2  A    between atoms: C_4  and  C_5
REMARK    3  A    between atoms: C_7  and  S_8
REMARK    4  A    between atoms: S_8  and  C_11
REMARK    5  A    between atoms: C_12  and  C_13
REMARK    6  A    between atoms: N_15  and  C_16
REMARK    7  A    between atoms: C_16  and  C_17
REMARK    8  A    between atoms: C_17  and  S_18
REMARK    9  A    between atoms: S_18  and  N_19
REMARK   10  A    between atoms: C_26  and  N_27
REMARK                            x       y       z     vdW  Elec       q    Type
REMARK                         _______ _______ _______ _____ _____    ______ ____
ROOT
ATOM      1  C   UNL     1      -0.862  12.000  20.762  0.00  0.00    +0.000 A 
ATOM      2  C   UNL     1      -1.299  12.403  22.026  0.00  0.00    +0.000 A 
ATOM      3  N   UNL     1      -0.909  11.408  22.901  0.00  0.00    +0.000 N 
ATOM      4  C   UNL     1      -0.195  10.420  22.260  0.00  0.00    +0.000 A 
ATOM      5  C   UNL     1       0.403   9.259  22.774  0.00  0.00    +0.000 A 
ATOM      6  C   UNL     1       1.109   8.431  21.890  0.00  0.00    +0.000 A 
ATOM      7  C   UNL     1       1.191   8.759  20.535  0.00  0.00    +0.000 A 
ATOM      8  C   UNL     1       0.568   9.910  20.034  0.00  0.00    +0.000 A 
ATOM      9  C   UNL     1      -0.142  10.765  20.907  0.00  0.00    +0.000 A 
ATOM     10  H   UNL     1      -1.139  11.387  23.885  0.00  0.00    +0.000 HD
ENDROOT
BRANCH   2  11
ATOM     11  C   UNL     1      -2.067  13.574  22.403  0.00  0.00    +0.000 C 
ATOM     12  O   UNL     1      -1.593  14.511  23.036  0.00  0.00    +0.000 OA
ATOM     13  N   UNL     1      -3.384  13.622  21.974  0.00  0.00    +0.000 N 
ATOM     14  H   UNL     1      -3.809  12.849  21.482  0.00  0.00    +0.000 HD
BRANCH  13  15
ATOM     15  C   UNL     1      -4.252  14.698  22.454  0.00  0.00    +0.000 C 
BRANCH  15  16
ATOM     16  C   UNL     1      -4.828  14.401  23.824  0.00  0.00    +0.000 C 
BRANCH  16  17
ATOM     17  S   UNL     1      -5.947  13.014  23.776  0.00  0.00    +0.000 S 
ATOM     18  O   UNL     1      -7.207  13.427  24.338  0.00  0.00    +0.000 OA
ATOM     19  O   UNL     1      -5.844  12.385  22.480  0.00  0.00    +0.000 OA
BRANCH  17  20
ATOM     20  N   UNL     1      -5.265  11.979  24.869  0.00  0.00    +0.000 NA
ATOM     21  H   UNL     1      -4.547  11.335  24.554  0.00  0.00    +0.000 HD
ATOM     22  H   UNL     1      -5.540  12.034  25.847  0.00  0.00    +0.000 HD
ENDBRANCH  17  20
ENDBRANCH  16  17
ENDBRANCH  15  16
ENDBRANCH  13  15
ENDBRANCH   2  11
BRANCH   1  23
ATOM     23  S   UNL     1      -1.032  12.836  19.243  0.00  0.00    +0.000 S 
ATOM     24  O   UNL     1       0.212  12.574  18.544  0.00  0.00    +0.000 OA
ATOM     25  O   UNL     1      -1.404  14.195  19.557  0.00  0.00    +0.000 OA
BRANCH  23  32
ATOM     26  C   UNL     1      -2.841  10.190  15.047  0.00  0.00    +0.000 C 
ATOM     27  C   UNL     1      -3.114  10.795  16.397  0.00  0.00    +0.000 A 
ATOM     28  C   UNL     1      -4.391  10.718  16.970  0.00  0.00    +0.000 A 
ATOM     29  C   UNL     1      -4.645  11.287  18.227  0.00  0.00    +0.000 A 
ATOM     30  C   UNL     1      -5.997  11.180  18.871  0.00  0.00    +0.000 C 
ATOM     31  C   UNL     1      -3.611  11.951  18.896  0.00  0.00    +0.000 A 
ATOM     32  C   UNL     1      -2.335  12.045  18.330  0.00  0.00    +0.000 A 
ATOM     33  C   UNL     1      -2.082  11.445  17.090  0.00  0.00    +0.000 A 
ENDBRANCH  23  32
ENDBRANCH   1  23
BRANCH   7  34
ATOM     34  N   UNL     1       1.944   7.892  19.612  0.00  0.00    +0.000 N 
ATOM     35  O   UNL     1       2.252   6.759  20.008  0.00  0.00    +0.000 OA
ATOM     36  O   UNL     1       2.218   8.340  18.492  0.00  0.00    +0.000 OA
ENDBRANCH   7  34
TORSDOF 8
ENDMDL
MODEL 8
REMARK VINA RESULT:      -7.4      1.624      2.405
REMARK  Name = 
REMARK  10 active torsions:
REMARK  status: ('A' for Active; 'I' for Inactive)
REMARK    1  A    between atoms: C_1  and  C_2
REMARK    2  A    between atoms: C_4  and  C_5
REMARK    3  A    between atoms: C_7  and  S_8
REMARK    4  A    between atoms: S_8  and  C_11
REMARK    5  A    between atoms: C_12  and  C_13
REMARK    6  A    between atoms: N_15  and  C_16
REMARK    7  A    between atoms: C_16  and  C_17
REMARK    8  A    between atoms: C_17  and  S_18
REMARK    9  A    between atoms: S_18  and  N_19
REMARK   10  A    between atoms: C_26  and  N_27
REMARK                            x       y       z     vdW  Elec       q    Type
REMARK                         _______ _______ _______ _____ _____    ______ ____
ROOT
ATOM      1  C   UNL     1      -0.915  11.485  20.880  0.00  0.00    +0.000 A 
ATOM      2  C   UNL     1      -1.236  11.397  22.238  0.00  0.00    +0.000 A 
ATOM      3  N   UNL     1      -0.632  10.245  22.700  0.00  0.00    +0.000 N 
ATOM      4  C   UNL     1       0.105   9.627  21.713  0.00  0.00    +0.000 A 
ATOM      5  C   UNL     1       0.889   8.464  21.764  0.00  0.00    +0.000 A 
ATOM      6  C   UNL     1       1.570   8.073  20.603  0.00  0.00    +0.000 A 
ATOM      7  C   UNL     1       1.447   8.822  19.431  0.00  0.00    +0.000 A 
ATOM      8  C   UNL     1       0.641   9.968  19.390  0.00  0.00    +0.000 A 
ATOM      9  C   UNL     1      -0.048  10.388  20.551  0.00  0.00    +0.000 A 
ATOM     10  H   UNL     1      -0.735   9.878  23.636  0.00  0.00    +0.000 HD
ENDROOT
BRANCH   2  11
ATOM     11  C   UNL     1      -2.079  12.261  23.041  0.00  0.00    +0.000 C 
ATOM     12  O   UNL     1      -3.226  11.969  23.361  0.00  0.00    +0.000 OA
ATOM     13  N   UNL     1      -1.514  13.445  23.488  0.00  0.00    +0.000 N 
ATOM     14  H   UNL     1      -0.584  13.727  23.211  0.00  0.00    +0.000 HD
BRANCH  13  15
ATOM     15  C   UNL     1      -2.360  14.427  24.167  0.00  0.00    +0.000 C 
BRANCH  15  16
ATOM     16  C   UNL     1      -3.076  15.340  23.191  0.00  0.00    +0.000 C 
BRANCH  16  17
ATOM     17  S   UNL     1      -4.733  15.705  23.735  0.00  0.00    +0.000 S 
ATOM     18  O   UNL     1      -4.654  16.487  24.942  0.00  0.00    +0.000 OA
ATOM     19  O   UNL     1      -5.513  16.119  22.592  0.00  0.00    +0.000 OA
BRANCH  17  20
ATOM     20  N   UNL     1      -5.289  14.214  24.182  0.00  0.00    +0.000 NA
ATOM     21  H   UNL     1      -5.873  14.134  25.008  0.00  0.00    +0.000 HD
ATOM     22  H   UNL     1      -5.077  13.407  23.599  0.00  0.00    +0.000 HD
ENDBRANCH  17  20
ENDBRANCH  16  17
ENDBRANCH  15  16
ENDBRANCH  13  15
ENDBRANCH   2  11
BRANCH   1  23
ATOM     23  S   UNL     1      -1.364  12.726  19.743  0.00  0.00    +0.000 S 
ATOM     24  O   UNL     1      -0.162  12.956  18.964  0.00  0.00    +0.000 OA
ATOM     25  O   UNL     1      -1.936  13.806  20.511  0.00  0.00    +0.000 OA
BRANCH  23  32
ATOM     26  C   UNL     1      -2.790  10.330  15.259  0.00  0.00    +0.000 C 
ATOM     27  C   UNL     1      -3.192  10.906  16.589  0.00  0.00    +0.000 A 
ATOM     28  C   UNL     1      -4.532  10.887  17.001  0.00  0.00    +0.000 A 
ATOM     29  C   UNL     1      -4.906  11.429  18.240  0.00  0.00    +0.000 A 
ATOM     30  C   UNL     1      -6.330  11.381  18.712  0.00  0.00    +0.000 C 
ATOM     31  C   UNL     1      -3.927  12.008  19.054  0.00  0.00    +0.000 A 
ATOM     32  C   UNL     1      -2.587  12.044  18.649  0.00  0.00    +0.000 A 
ATOM     33  C   UNL     1      -2.219  11.470  17.426  0.00  0.00    +0.000 A 
ENDBRANCH  23  32
ENDBRANCH   1  23
BRANCH   7  34
ATOM     34  N   UNL     1       2.173   8.414  18.216  0.00  0.00    +0.000 N 
ATOM     35  O   UNL     1       2.680   7.284  18.201  0.00  0.00    +0.000 OA
ATOM     36  O   UNL     1       2.229   9.219  17.278  0.00  0.00    +0.000 OA
ENDBRANCH   7  34
TORSDOF 8
ENDMDL
MODEL 9
REMARK VINA RESULT:      -7.4      1.787      2.257
REMARK  Name = 
REMARK  10 active torsions:
REMARK  status: ('A' for Active; 'I' for Inactive)
REMARK    1  A    between atoms: C_1  and  C_2
REMARK    2  A    between atoms: C_4  and  C_5
REMARK    3  A    between atoms: C_7  and  S_8
REMARK    4  A    between atoms: S_8  and  C_11
REMARK    5  A    between atoms: C_12  and  C_13
REMARK    6  A    between atoms: N_15  and  C_16
REMARK    7  A    between atoms: C_16  and  C_17
REMARK    8  A    between atoms: C_17  and  S_18
REMARK    9  A    between atoms: S_18  and  N_19
REMARK   10  A    between atoms: C_26  and  N_27
REMARK                            x       y       z     vdW  Elec       q    Type
REMARK                         _______ _______ _______ _____ _____    ______ ____
ROOT
ATOM      1  C   UNL     1      -1.175  11.561  21.071  0.00  0.00    +0.000 A 
ATOM      2  C   UNL     1      -1.451  11.453  22.437  0.00  0.00    +0.000 A 
ATOM      3  N   UNL     1      -0.777  10.330  22.876  0.00  0.00    +0.000 N 
ATOM      4  C   UNL     1      -0.039   9.755  21.865  0.00  0.00    +0.000 A 
ATOM      5  C   UNL     1       0.804   8.633  21.888  0.00  0.00    +0.000 A 
ATOM      6  C   UNL     1       1.470   8.280  20.706  0.00  0.00    +0.000 A 
ATOM      7  C   UNL     1       1.276   9.027  19.542  0.00  0.00    +0.000 A 
ATOM      8  C   UNL     1       0.412  10.130  19.530  0.00  0.00    +0.000 A 
ATOM      9  C   UNL     1      -0.263  10.510  20.712  0.00  0.00    +0.000 A 
ATOM     10  H   UNL     1      -0.835   9.956  23.813  0.00  0.00    +0.000 HD
ENDROOT
BRANCH   2  11
ATOM     11  C   UNL     1      -2.314  12.270  23.268  0.00  0.00    +0.000 C 
ATOM     12  O   UNL     1      -3.398  11.885  23.691  0.00  0.00    +0.000 OA
ATOM     13  N   UNL     1      -1.838  13.524  23.619  0.00  0.00    +0.000 N 
ATOM     14  H   UNL     1      -0.965  13.879  23.256  0.00  0.00    +0.000 HD
BRANCH  13  15
ATOM     15  C   UNL     1      -2.724  14.452  24.322  0.00  0.00    +0.000 C 
BRANCH  15  16
ATOM     16  C   UNL     1      -2.491  15.892  23.908  0.00  0.00    +0.000 C 
BRANCH  16  17
ATOM     17  S   UNL     1      -3.757  16.464  22.792  0.00  0.00    +0.000 S 
ATOM     18  O   UNL     1      -4.707  17.243  23.544  0.00  0.00    +0.000 OA
ATOM     19  O   UNL     1      -3.124  16.959  21.592  0.00  0.00    +0.000 OA
BRANCH  17  20
ATOM     20  N   UNL     1      -4.525  15.057  22.387  0.00  0.00    +0.000 NA
ATOM     21  H   UNL     1      -3.989  14.311  21.956  0.00  0.00    +0.000 HD
ATOM     22  H   UNL     1      -5.509  14.942  22.616  0.00  0.00    +0.000 HD
ENDBRANCH  17  20
ENDBRANCH  16  17
ENDBRANCH  15  16
ENDBRANCH  13  15
ENDBRANCH   2  11
BRANCH   1  23
ATOM     23  S   UNL     1      -1.719  12.782  19.954  0.00  0.00    +0.000 S 
ATOM     24  O   UNL     1      -0.529  13.145  19.207  0.00  0.00    +0.000 OA
ATOM     25  O   UNL     1      -2.406  13.782  20.733  0.00  0.00    +0.000 OA
BRANCH  23  32
ATOM     26  C   UNL     1      -6.567  11.275  18.504  0.00  0.00    +0.000 C 
ATOM     27  C   UNL     1      -5.103  11.373  18.175  0.00  0.00    +0.000 A 
ATOM     28  C   UNL     1      -4.610  10.888  16.955  0.00  0.00    +0.000 A 
ATOM     29  C   UNL     1      -3.243  10.975  16.652  0.00  0.00    +0.000 A 
ATOM     30  C   UNL     1      -2.706  10.495  15.336  0.00  0.00    +0.000 C 
ATOM     31  C   UNL     1      -2.371  11.536  17.592  0.00  0.00    +0.000 A 
ATOM     32  C   UNL     1      -2.849  12.014  18.818  0.00  0.00    +0.000 A 
ATOM     33  C   UNL     1      -4.220  11.953  19.097  0.00  0.00    +0.000 A 
ENDBRANCH  23  32
ENDBRANCH   1  23
BRANCH   7  34
ATOM     34  N   UNL     1       1.986   8.660  18.304  0.00  0.00    +0.000 N 
ATOM     35  O   UNL     1       2.475   7.524  18.236  0.00  0.00    +0.000 OA
ATOM     36  O   UNL     1       2.049   9.504  17.402  0.00  0.00    +0.000 OA
ENDBRANCH   7  34
TORSDOF 8
ENDMDL
