MODEL 1
REMARK VINA RESULT:      -8.5      0.000      0.000
REMARK  Name = 
REMARK  4 active torsions:
REMARK  status: ('A' for Active; 'I' for Inactive)
REMARK    1  A    between atoms: C_1  and  O_2
REMARK    2  A    between atoms: O_2  and  C_3
REMARK    3  A    between atoms: C_6  and  C_7
REMARK    4  A    between atoms: C_13  and  C_14
REMARK                            x       y       z     vdW  Elec       q    Type
REMARK                         _______ _______ _______ _____ _____    ______ ____
ROOT
ATOM      1  C   UNL     1       8.593   9.502  18.434  0.00  0.00    +0.000 C 
ATOM      2  O   UNL     1       7.756   9.707  17.564  0.00  0.00    +0.000 OA
ATOM      3  N   UNL     1       8.820   8.291  19.035  0.00  0.00    +0.000 N 
ATOM      4  C   UNL     1       8.183   7.141  18.675  0.00  0.00    +0.000 A 
ATOM      5  N   UNL     1       8.218   6.043  19.405  0.00  0.00    +0.000 NA
ATOM      6  N   UNL     1       7.518   5.103  18.709  0.00  0.00    +0.000 NA
ATOM      7  C   UNL     1       7.144   5.661  17.573  0.00  0.00    +0.000 A 
ATOM      8  O   UNL     1       7.516   6.978  17.488  0.00  0.00    +0.000 OA
ATOM      9  H   UNL     1       9.374   8.195  19.864  0.00  0.00    +0.000 HD
ENDROOT
BRANCH   7  10
ATOM     10  C   UNL     1       6.493   4.983  16.456  0.00  0.00    +0.000 A 
ATOM     11  C   UNL     1       5.270   4.310  16.485  0.00  0.00    +0.000 A 
ATOM     12  C   UNL     1       4.747   3.755  15.296  0.00  0.00    +0.000 A 
ATOM     13  C   UNL     1       5.440   3.849  14.067  0.00  0.00    +0.000 A 
ATOM     14  C   UNL     1       6.665   4.497  14.048  0.00  0.00    +0.000 A 
ATOM     15  C   UNL     1       7.165   5.058  15.229  0.00  0.00    +0.000 A 
ATOM     16  C   UNL     1       7.467   4.714  12.804  0.00  0.00    +0.000 C 
ATOM     17  C   UNL     1       7.139   3.798  11.644  0.00  0.00    +0.000 C 
ATOM     18  C   UNL     1       5.702   3.304  11.539  0.00  0.00    +0.000 C 
ATOM     19  C   UNL     1       4.830   3.305  12.802  0.00  0.00    +0.000 C 
ENDBRANCH   7  10
BRANCH   1  23
ATOM     20  C   UNL     1      11.045  12.820  19.745  0.00  0.00    +0.000 A 
ATOM     21  C   UNL     1      10.943  12.472  18.400  0.00  0.00    +0.000 A 
ATOM     22  C   UNL     1      10.131  11.406  18.000  0.00  0.00    +0.000 A 
ATOM     23  C   UNL     1       9.421  10.653  18.941  0.00  0.00    +0.000 A 
ATOM     24  C   UNL     1       9.539  10.999  20.300  0.00  0.00    +0.000 A 
ATOM     25  C   UNL     1      10.344  12.080  20.696  0.00  0.00    +0.000 A 
BRANCH  20  27
ATOM     26  C   UNL     1      11.294  15.045  20.529  0.00  0.00    +0.000 C 
ATOM     27  O   UNL     1      11.891  13.861  20.012  0.00  0.00    +0.000 OA
ENDBRANCH  20  27
ENDBRANCH   1  23
TORSDOF 3
ENDMDL
MODEL 2
REMARK VINA RESULT:      -8.4      5.902      7.158
REMARK  Name = 
REMARK  4 active torsions:
REMARK  status: ('A' for Active; 'I' for Inactive)
REMARK    1  A    between atoms: C_1  and  O_2
REMARK    2  A    between atoms: O_2  and  C_3
REMARK    3  A    between atoms: C_6  and  C_7
REMARK    4  A    between atoms: C_13  and  C_14
REMARK                            x       y       z     vdW  Elec       q    Type
REMARK                         _______ _______ _______ _____ _____    ______ ____
ROOT
ATOM      1  C   UNL     1       1.769   8.205  19.542  0.00  0.00    +0.000 C 
ATOM      2  O   UNL     1       1.808   8.522  18.360  0.00  0.00    +0.000 OA
ATOM      3  N   UNL     1       2.360   7.089  20.077  0.00  0.00    +0.000 N 
ATOM      4  C   UNL     1       3.134   6.230  19.355  0.00  0.00    +0.000 A 
ATOM      5  N   UNL     1       3.495   5.043  19.802  0.00  0.00    +0.000 NA
ATOM      6  N   UNL     1       4.294   4.502  18.839  0.00  0.00    +0.000 NA
ATOM      7  C   UNL     1       4.422   5.408  17.888  0.00  0.00    +0.000 A 
ATOM      8  O   UNL     1       3.687   6.539  18.138  0.00  0.00    +0.000 OA
ATOM      9  H   UNL     1       2.157   6.760  21.001  0.00  0.00    +0.000 HD
ENDROOT
BRANCH   7  10
ATOM     10  C   UNL     1       5.303   5.320  16.728  0.00  0.00    +0.000 A 
ATOM     11  C   UNL     1       6.574   5.883  16.600  0.00  0.00    +0.000 A 
ATOM     12  C   UNL     1       7.328   5.654  15.427  0.00  0.00    +0.000 A 
ATOM     13  C   UNL     1       6.821   4.876  14.361  0.00  0.00    +0.000 A 
ATOM     14  C   UNL     1       5.550   4.338  14.483  0.00  0.00    +0.000 A 
ATOM     15  C   UNL     1       4.819   4.558  15.657  0.00  0.00    +0.000 A 
ATOM     16  C   UNL     1       4.924   3.451  13.454  0.00  0.00    +0.000 C 
ATOM     17  C   UNL     1       5.522   3.535  12.065  0.00  0.00    +0.000 C 
ATOM     18  C   UNL     1       7.003   3.875  11.970  0.00  0.00    +0.000 C 
ATOM     19  C   UNL     1       7.671   4.594  13.150  0.00  0.00    +0.000 C 
ENDBRANCH   7  10
BRANCH   1  23
ATOM     20  C   UNL     1      -0.476  10.535  22.419  0.00  0.00    +0.000 A 
ATOM     21  C   UNL     1       0.277   9.427  22.802  0.00  0.00    +0.000 A 
ATOM     22  C   UNL     1       1.007   8.701  21.856  0.00  0.00    +0.000 A 
ATOM     23  C   UNL     1       0.982   9.056  20.503  0.00  0.00    +0.000 A 
ATOM     24  C   UNL     1       0.207  10.166  20.119  0.00  0.00    +0.000 A 
ATOM     25  C   UNL     1      -0.513  10.902  21.075  0.00  0.00    +0.000 A 
BRANCH  20  27
ATOM     26  C   UNL     1      -2.305  11.909  23.047  0.00  0.00    +0.000 C 
ATOM     27  O   UNL     1      -1.167  11.144  23.429  0.00  0.00    +0.000 OA
ENDBRANCH  20  27
ENDBRANCH   1  23
TORSDOF 3
ENDMDL
MODEL 3
REMARK VINA RESULT:      -8.4      5.861      7.028
REMARK  Name = 
REMARK  4 active torsions:
REMARK  status: ('A' for Active; 'I' for Inactive)
REMARK    1  A    between atoms: C_1  and  O_2
REMARK    2  A    between atoms: O_2  and  C_3
REMARK    3  A    between atoms: C_6  and  C_7
REMARK    4  A    between atoms: C_13  and  C_14
REMARK                            x       y       z     vdW  Elec       q    Type
REMARK                         _______ _______ _______ _____ _____    ______ ____
ROOT
ATOM      1  C   UNL     1       1.783   8.151  19.755  0.00  0.00    +0.000 C 
ATOM      2  O   UNL     1       1.862   8.556  18.601  0.00  0.00    +0.000 OA
ATOM      3  N   UNL     1       2.310   6.970  20.211  0.00  0.00    +0.000 N 
ATOM      4  C   UNL     1       3.059   6.133  19.438  0.00  0.00    +0.000 A 
ATOM      5  N   UNL     1       3.354   4.899  19.797  0.00  0.00    +0.000 NA
ATOM      6  N   UNL     1       4.147   4.396  18.809  0.00  0.00    +0.000 NA
ATOM      7  C   UNL     1       4.338   5.366  17.934  0.00  0.00    +0.000 A 
ATOM      8  O   UNL     1       3.651   6.508  18.259  0.00  0.00    +0.000 OA
ATOM      9  H   UNL     1       2.071   6.581  21.102  0.00  0.00    +0.000 HD
ENDROOT
BRANCH   7  10
ATOM     10  C   UNL     1       5.239   5.325  16.786  0.00  0.00    +0.000 A 
ATOM     11  C   UNL     1       6.475   5.964  16.672  0.00  0.00    +0.000 A 
ATOM     12  C   UNL     1       7.257   5.775  15.511  0.00  0.00    +0.000 A 
ATOM     13  C   UNL     1       6.813   4.961  14.443  0.00  0.00    +0.000 A 
ATOM     14  C   UNL     1       5.575   4.348  14.551  0.00  0.00    +0.000 A 
ATOM     15  C   UNL     1       4.816   4.529  15.714  0.00  0.00    +0.000 A 
ATOM     16  C   UNL     1       5.019   3.419  13.519  0.00  0.00    +0.000 C 
ATOM     17  C   UNL     1       5.629   3.532  12.138  0.00  0.00    +0.000 C 
ATOM     18  C   UNL     1       7.089   3.960  12.061  0.00  0.00    +0.000 C 
ATOM     19  C   UNL     1       7.695   4.725  13.245  0.00  0.00    +0.000 C 
ENDBRANCH   7  10
BRANCH   1  23
ATOM     20  C   UNL     1      -0.432  10.604  22.551  0.00  0.00    +0.000 A 
ATOM     21  C   UNL     1      -0.332  10.939  21.202  0.00  0.00    +0.000 A 
ATOM     22  C   UNL     1       0.375  10.121  20.315  0.00  0.00    +0.000 A 
ATOM     23  C   UNL     1       1.016   8.962  20.765  0.00  0.00    +0.000 A 
ATOM     24  C   UNL     1       0.926   8.636  22.131  0.00  0.00    +0.000 A 
ATOM     25  C   UNL     1       0.202   9.453  23.015  0.00  0.00    +0.000 A 
BRANCH  20  27
ATOM     26  C   UNL     1      -1.214  12.827  22.822  0.00  0.00    +0.000 C 
ATOM     27  O   UNL     1      -1.125  11.497  23.321  0.00  0.00    +0.000 OA
ENDBRANCH  20  27
ENDBRANCH   1  23
TORSDOF 3
ENDMDL
MODEL 4
REMARK VINA RESULT:      -8.3      8.844      9.974
REMARK  Name = 
REMARK  4 active torsions:
REMARK  status: ('A' for Active; 'I' for Inactive)
REMARK    1  A    between atoms: C_1  and  O_2
REMARK    2  A    between atoms: O_2  and  C_3
REMARK    3  A    between atoms: C_6  and  C_7
REMARK    4  A    between atoms: C_13  and  C_14
REMARK                            x       y       z     vdW  Elec       q    Type
REMARK                         _______ _______ _______ _____ _____    ______ ____
ROOT
ATOM      1  C   UNL     1      -0.242  11.128  21.952  0.00  0.00    +0.000 C 
ATOM      2  O   UNL     1       0.399  10.323  22.615  0.00  0.00    +0.000 OA
ATOM      3  N   UNL     1      -0.142  11.284  20.593  0.00  0.00    +0.000 N 
ATOM      4  C   UNL     1       0.639  10.495  19.802  0.00  0.00    +0.000 A 
ATOM      5  N   UNL     1       0.923  10.795  18.549  0.00  0.00    +0.000 NA
ATOM      6  N   UNL     1       1.674   9.762  18.073  0.00  0.00    +0.000 NA
ATOM      7  C   UNL     1       1.760   8.868  19.040  0.00  0.00    +0.000 A 
ATOM      8  O   UNL     1       1.137   9.277  20.191  0.00  0.00    +0.000 OA
ATOM      9  H   UNL     1      -0.536  12.067  20.109  0.00  0.00    +0.000 HD
ENDROOT
BRANCH   7  10
ATOM     10  C   UNL     1       2.349   7.536  18.931  0.00  0.00    +0.000 A 
ATOM     11  C   UNL     1       3.210   7.084  17.929  0.00  0.00    +0.000 A 
ATOM     12  C   UNL     1       3.743   5.778  18.000  0.00  0.00    +0.000 A 
ATOM     13  C   UNL     1       3.415   4.900  19.060  0.00  0.00    +0.000 A 
ATOM     14  C   UNL     1       2.542   5.346  20.039  0.00  0.00    +0.000 A 
ATOM     15  C   UNL     1       2.033   6.648  19.967  0.00  0.00    +0.000 A 
ATOM     16  C   UNL     1       2.162   4.538  21.239  0.00  0.00    +0.000 C 
ATOM     17  C   UNL     1       2.382   3.044  21.121  0.00  0.00    +0.000 C 
ATOM     18  C   UNL     1       3.530   2.584  20.232  0.00  0.00    +0.000 C 
ATOM     19  C   UNL     1       4.048   3.536  19.146  0.00  0.00    +0.000 C 
ENDBRANCH   7  10
BRANCH   1  23
ATOM     20  C   UNL     1      -2.834  13.942  23.978  0.00  0.00    +0.000 A 
ATOM     21  C   UNL     1      -1.602  14.328  23.453  0.00  0.00    +0.000 A 
ATOM     22  C   UNL     1      -0.790  13.403  22.788  0.00  0.00    +0.000 A 
ATOM     23  C   UNL     1      -1.186  12.069  22.653  0.00  0.00    +0.000 A 
ATOM     24  C   UNL     1      -2.424  11.680  23.198  0.00  0.00    +0.000 A 
ATOM     25  C   UNL     1      -3.243  12.616  23.852  0.00  0.00    +0.000 A 
BRANCH  20  27
ATOM     26  C   UNL     1      -2.738  15.937  25.257  0.00  0.00    +0.000 C 
ATOM     27  O   UNL     1      -3.521  14.929  24.629  0.00  0.00    +0.000 OA
ENDBRANCH  20  27
ENDBRANCH   1  23
TORSDOF 3
ENDMDL
MODEL 5
REMARK VINA RESULT:      -8.3      8.389      9.506
REMARK  Name = 
REMARK  4 active torsions:
REMARK  status: ('A' for Active; 'I' for Inactive)
REMARK    1  A    between atoms: C_1  and  O_2
REMARK    2  A    between atoms: O_2  and  C_3
REMARK    3  A    between atoms: C_6  and  C_7
REMARK    4  A    between atoms: C_13  and  C_14
REMARK                            x       y       z     vdW  Elec       q    Type
REMARK                         _______ _______ _______ _____ _____    ______ ____
ROOT
ATOM      1  C   UNL     1      -0.146  10.431  20.961  0.00  0.00    +0.000 C 
ATOM      2  O   UNL     1       0.258   9.452  21.576  0.00  0.00    +0.000 OA
ATOM      3  N   UNL     1       0.297  10.819  19.723  0.00  0.00    +0.000 N 
ATOM      4  C   UNL     1       1.197  10.104  18.989  0.00  0.00    +0.000 A 
ATOM      5  N   UNL     1       1.801  10.593  17.923  0.00  0.00    +0.000 NA
ATOM      6  N   UNL     1       2.578   9.586  17.433  0.00  0.00    +0.000 NA
ATOM      7  C   UNL     1       2.364   8.527  18.191  0.00  0.00    +0.000 A 
ATOM      8  O   UNL     1       1.503   8.788  19.226  0.00  0.00    +0.000 OA
ATOM      9  H   UNL     1       0.088  11.716  19.331  0.00  0.00    +0.000 HD
ENDROOT
BRANCH   7  10
ATOM     10  C   UNL     1       2.874   7.180  17.952  0.00  0.00    +0.000 A 
ATOM     11  C   UNL     1       4.102   6.842  17.379  0.00  0.00    +0.000 A 
ATOM     12  C   UNL     1       4.474   5.484  17.272  0.00  0.00    +0.000 A 
ATOM     13  C   UNL     1       3.625   4.445  17.717  0.00  0.00    +0.000 A 
ATOM     14  C   UNL     1       2.397   4.785  18.264  0.00  0.00    +0.000 A 
ATOM     15  C   UNL     1       2.046   6.135  18.381  0.00  0.00    +0.000 A 
ATOM     16  C   UNL     1       1.435   3.785  18.823  0.00  0.00    +0.000 C 
ATOM     17  C   UNL     1       1.625   2.358  18.354  0.00  0.00    +0.000 C 
ATOM     18  C   UNL     1       3.044   1.928  18.006  0.00  0.00    +0.000 C 
ATOM     19  C   UNL     1       4.074   3.009  17.650  0.00  0.00    +0.000 C 
ENDBRANCH   7  10
BRANCH   1  23
ATOM     20  C   UNL     1      -3.090  13.105  22.673  0.00  0.00    +0.000 A 
ATOM     21  C   UNL     1      -2.755  13.152  21.321  0.00  0.00    +0.000 A 
ATOM     22  C   UNL     1      -1.814  12.266  20.788  0.00  0.00    +0.000 A 
ATOM     23  C   UNL     1      -1.170  11.328  21.603  0.00  0.00    +0.000 A 
ATOM     24  C   UNL     1      -1.500  11.294  22.971  0.00  0.00    +0.000 A 
ATOM     25  C   UNL     1      -2.457  12.177  23.498  0.00  0.00    +0.000 A 
BRANCH  20  27
ATOM     26  C   UNL     1      -5.078  13.567  23.880  0.00  0.00    +0.000 C 
ATOM     27  O   UNL     1      -4.001  14.040  23.078  0.00  0.00    +0.000 OA
ENDBRANCH  20  27
ENDBRANCH   1  23
TORSDOF 3
ENDMDL
MODEL 6
REMARK VINA RESULT:      -8.3      8.192      9.315
REMARK  Name = 
REMARK  4 active torsions:
REMARK  status: ('A' for Active; 'I' for Inactive)
REMARK    1  A    between atoms: C_1  and  O_2
REMARK    2  A    between atoms: O_2  and  C_3
REMARK    3  A    between atoms: C_6  and  C_7
REMARK    4  A    between atoms: C_13  and  C_14
REMARK                            x       y       z     vdW  Elec       q    Type
REMARK                         _______ _______ _______ _____ _____    ______ ____
ROOT
ATOM      1  C   UNL     1       0.448  10.718  21.333  0.00  0.00    +0.000 C 
ATOM      2  O   UNL     1       1.078   9.874  21.958  0.00  0.00    +0.000 OA
ATOM      3  N   UNL     1       0.498  10.891  19.974  0.00  0.00    +0.000 N 
ATOM      4  C   UNL     1       1.209  10.081  19.139  0.00  0.00    +0.000 A 
ATOM      5  N   UNL     1       1.454  10.388  17.881  0.00  0.00    +0.000 NA
ATOM      6  N   UNL     1       2.137   9.330  17.359  0.00  0.00    +0.000 NA
ATOM      7  C   UNL     1       2.221   8.417  18.307  0.00  0.00    +0.000 A 
ATOM      8  O   UNL     1       1.666   8.836  19.489  0.00  0.00    +0.000 OA
ATOM      9  H   UNL     1       0.122  11.700  19.518  0.00  0.00    +0.000 HD
ENDROOT
BRANCH   7  10
ATOM     10  C   UNL     1       2.743   7.062  18.155  0.00  0.00    +0.000 A 
ATOM     11  C   UNL     1       3.995   6.702  17.651  0.00  0.00    +0.000 A 
ATOM     12  C   UNL     1       4.374   5.342  17.624  0.00  0.00    +0.000 A 
ATOM     13  C   UNL     1       3.508   4.322  18.081  0.00  0.00    +0.000 A 
ATOM     14  C   UNL     1       2.258   4.682  18.558  0.00  0.00    +0.000 A 
ATOM     15  C   UNL     1       1.899   6.035  18.596  0.00  0.00    +0.000 A 
ATOM     16  C   UNL     1       1.274   3.707  19.123  0.00  0.00    +0.000 C 
ATOM     17  C   UNL     1       1.486   2.260  18.730  0.00  0.00    +0.000 C 
ATOM     18  C   UNL     1       2.919   1.819  18.464  0.00  0.00    +0.000 C 
ATOM     19  C   UNL     1       3.962   2.886  18.101  0.00  0.00    +0.000 C 
ENDBRANCH   7  10
BRANCH   1  23
ATOM     20  C   UNL     1      -2.161  13.391  23.524  0.00  0.00    +0.000 A 
ATOM     21  C   UNL     1      -2.357  12.012  23.525  0.00  0.00    +0.000 A 
ATOM     22  C   UNL     1      -1.490  11.168  22.823  0.00  0.00    +0.000 A 
ATOM     23  C   UNL     1      -0.422  11.690  22.088  0.00  0.00    +0.000 A 
ATOM     24  C   UNL     1      -0.236  13.085  22.077  0.00  0.00    +0.000 A 
ATOM     25  C   UNL     1      -1.100  13.927  22.795  0.00  0.00    +0.000 A 
BRANCH  20  27
ATOM     26  C   UNL     1      -4.451  13.909  23.858  0.00  0.00    +0.000 C 
ATOM     27  O   UNL     1      -3.090  14.110  24.223  0.00  0.00    +0.000 OA
ENDBRANCH  20  27
ENDBRANCH   1  23
TORSDOF 3
ENDMDL
MODEL 7
REMARK VINA RESULT:      -8.3      8.744      9.933
REMARK  Name = 
REMARK  4 active torsions:
REMARK  status: ('A' for Active; 'I' for Inactive)
REMARK    1  A    between atoms: C_1  and  O_2
REMARK    2  A    between atoms: O_2  and  C_3
REMARK    3  A    between atoms: C_6  and  C_7
REMARK    4  A    between atoms: C_13  and  C_14
REMARK                            x       y       z     vdW  Elec       q    Type
REMARK                         _______ _______ _______ _____ _____    ______ ____
ROOT
ATOM      1  C   UNL     1       0.006  11.087  21.747  0.00  0.00    +0.000 C 
ATOM      2  O   UNL     1       0.737  10.370  22.420  0.00  0.00    +0.000 OA
ATOM      3  N   UNL     1      -0.017  11.119  20.377  0.00  0.00    +0.000 N 
ATOM      4  C   UNL     1       0.727  10.288  19.593  0.00  0.00    +0.000 A 
ATOM      5  N   UNL     1       0.889  10.480  18.298  0.00  0.00    +0.000 NA
ATOM      6  N   UNL     1       1.641   9.435  17.852  0.00  0.00    +0.000 NA
ATOM      7  C   UNL     1       1.847   8.638  18.882  0.00  0.00    +0.000 A 
ATOM      8  O   UNL     1       1.308   9.131  20.043  0.00  0.00    +0.000 OA
ATOM      9  H   UNL     1      -0.484  11.840  19.861  0.00  0.00    +0.000 HD
ENDROOT
BRANCH   7  10
ATOM     10  C   UNL     1       2.482   7.324  18.841  0.00  0.00    +0.000 A 
ATOM     11  C   UNL     1       3.406   6.872  17.897  0.00  0.00    +0.000 A 
ATOM     12  C   UNL     1       3.975   5.586  18.032  0.00  0.00    +0.000 A 
ATOM     13  C   UNL     1       3.621   4.727  19.098  0.00  0.00    +0.000 A 
ATOM     14  C   UNL     1       2.685   5.171  20.019  0.00  0.00    +0.000 A 
ATOM     15  C   UNL     1       2.141   6.454  19.885  0.00  0.00    +0.000 A 
ATOM     16  C   UNL     1       2.270   4.383  21.221  0.00  0.00    +0.000 C 
ATOM     17  C   UNL     1       2.542   2.895  21.156  0.00  0.00    +0.000 C 
ATOM     18  C   UNL     1       3.747   2.448  20.340  0.00  0.00    +0.000 C 
ATOM     19  C   UNL     1       4.290   3.387  19.254  0.00  0.00    +0.000 C 
ENDBRANCH   7  10
BRANCH   1  23
ATOM     20  C   UNL     1      -2.750  13.753  23.758  0.00  0.00    +0.000 A 
ATOM     21  C   UNL     1      -2.965  12.376  23.710  0.00  0.00    +0.000 A 
ATOM     22  C   UNL     1      -2.050  11.534  23.069  0.00  0.00    +0.000 A 
ATOM     23  C   UNL     1      -0.913  12.055  22.443  0.00  0.00    +0.000 A 
ATOM     24  C   UNL     1      -0.708  13.447  22.480  0.00  0.00    +0.000 A 
ATOM     25  C   UNL     1      -1.622  14.287  23.138  0.00  0.00    +0.000 A 
BRANCH  20  27
ATOM     26  C   UNL     1      -4.580  15.248  23.553  0.00  0.00    +0.000 C 
ATOM     27  O   UNL     1      -3.728  14.471  24.388  0.00  0.00    +0.000 OA
ENDBRANCH  20  27
ENDBRANCH   1  23
TORSDOF 3
ENDMDL
MODEL 8
REMARK VINA RESULT:      -8.1      5.833      9.937
REMARK  Name = 
REMARK  4 active torsions:
REMARK  status: ('A' for Active; 'I' for Inactive)
REMARK    1  A    between atoms: C_1  and  O_2
REMARK    2  A    between atoms: O_2  and  C_3
REMARK    3  A    between atoms: C_6  and  C_7
REMARK    4  A    between atoms: C_13  and  C_14
REMARK                            x       y       z     vdW  Elec       q    Type
REMARK                         _______ _______ _______ _____ _____    ______ ____
ROOT
ATOM      1  C   UNL     1       5.198   5.725  15.348  0.00  0.00    +0.000 C 
ATOM      2  O   UNL     1       5.197   6.949  15.289  0.00  0.00    +0.000 OA
ATOM      3  N   UNL     1       4.686   4.988  16.385  0.00  0.00    +0.000 N 
ATOM      4  C   UNL     1       4.039   5.538  17.451  0.00  0.00    +0.000 A 
ATOM      5  N   UNL     1       3.768   4.863  18.551  0.00  0.00    +0.000 NA
ATOM      6  N   UNL     1       3.080   5.718  19.360  0.00  0.00    +0.000 NA
ATOM      7  C   UNL     1       2.920   6.843  18.689  0.00  0.00    +0.000 A 
ATOM      8  O   UNL     1       3.529   6.812  17.460  0.00  0.00    +0.000 OA
ATOM      9  H   UNL     1       4.867   4.009  16.492  0.00  0.00    +0.000 HD
ENDROOT
BRANCH   7  10
ATOM     10  C   UNL     1       2.118   7.989  19.107  0.00  0.00    +0.000 A 
ATOM     11  C   UNL     1       1.782   9.100  18.332  0.00  0.00    +0.000 A 
ATOM     12  C   UNL     1       0.944  10.102  18.870  0.00  0.00    +0.000 A 
ATOM     13  C   UNL     1       0.443  10.019  20.189  0.00  0.00    +0.000 A 
ATOM     14  C   UNL     1       0.798   8.925  20.963  0.00  0.00    +0.000 A 
ATOM     15  C   UNL     1       1.616   7.930  20.414  0.00  0.00    +0.000 A 
ATOM     16  C   UNL     1       0.289   8.692  22.350  0.00  0.00    +0.000 C 
ATOM     17  C   UNL     1      -0.251   9.913  23.065  0.00  0.00    +0.000 C 
ATOM     18  C   UNL     1      -0.881  10.997  22.201  0.00  0.00    +0.000 C 
ATOM     19  C   UNL     1      -0.501  11.068  20.716  0.00  0.00    +0.000 C 
ENDBRANCH   7  10
BRANCH   1  23
ATOM     20  C   UNL     1       6.934   3.360  12.164  0.00  0.00    +0.000 A 
ATOM     21  C   UNL     1       5.611   3.188  12.566  0.00  0.00    +0.000 A 
ATOM     22  C   UNL     1       5.068   3.977  13.586  0.00  0.00    +0.000 A 
ATOM     23  C   UNL     1       5.845   4.939  14.239  0.00  0.00    +0.000 A 
ATOM     24  C   UNL     1       7.186   5.098  13.840  0.00  0.00    +0.000 A 
ATOM     25  C   UNL     1       7.722   4.314  12.805  0.00  0.00    +0.000 A 
BRANCH  20  27
ATOM     26  C   UNL     1       6.661   1.274  11.070  0.00  0.00    +0.000 C 
ATOM     27  O   UNL     1       7.355   2.512  11.178  0.00  0.00    +0.000 OA
ENDBRANCH  20  27
ENDBRANCH   1  23
TORSDOF 3
ENDMDL
MODEL 9
REMARK VINA RESULT:      -8.1      9.061     11.929
REMARK  Name = 
REMARK  4 active torsions:
REMARK  status: ('A' for Active; 'I' for Inactive)
REMARK    1  A    between atoms: C_1  and  O_2
REMARK    2  A    between atoms: O_2  and  C_3
REMARK    3  A    between atoms: C_6  and  C_7
REMARK    4  A    between atoms: C_13  and  C_14
REMARK                            x       y       z     vdW  Elec       q    Type
REMARK                         _______ _______ _______ _____ _____    ______ ____
ROOT
ATOM      1  C   UNL     1       2.189   7.860  18.868  0.00  0.00    +0.000 C 
ATOM      2  O   UNL     1       1.851   8.802  18.161  0.00  0.00    +0.000 OA
ATOM      3  N   UNL     1       2.010   7.793  20.226  0.00  0.00    +0.000 N 
ATOM      4  C   UNL     1       1.357   8.748  20.946  0.00  0.00    +0.000 A 
ATOM      5  N   UNL     1       1.399   8.806  22.263  0.00  0.00    +0.000 NA
ATOM      6  N   UNL     1       0.596   9.847  22.622  0.00  0.00    +0.000 NA
ATOM      7  C   UNL     1       0.067  10.329  21.514  0.00  0.00    +0.000 A 
ATOM      8  O   UNL     1       0.526   9.688  20.392  0.00  0.00    +0.000 OA
ATOM      9  H   UNL     1       2.460   7.103  20.796  0.00  0.00    +0.000 HD
ENDROOT
BRANCH   7  10
ATOM     10  C   UNL     1      -0.965  11.358  21.429  0.00  0.00    +0.000 A 
ATOM     11  C   UNL     1      -1.278  12.136  20.312  0.00  0.00    +0.000 A 
ATOM     12  C   UNL     1      -2.351  13.053  20.376  0.00  0.00    +0.000 A 
ATOM     13  C   UNL     1      -3.115  13.220  21.554  0.00  0.00    +0.000 A 
ATOM     14  C   UNL     1      -2.785  12.462  22.667  0.00  0.00    +0.000 A 
ATOM     15  C   UNL     1      -1.730  11.545  22.587  0.00  0.00    +0.000 A 
ATOM     16  C   UNL     1      -3.549  12.503  23.952  0.00  0.00    +0.000 C 
ATOM     17  C   UNL     1      -4.405  13.734  24.168  0.00  0.00    +0.000 C 
ATOM     18  C   UNL     1      -4.978  14.403  22.926  0.00  0.00    +0.000 C 
ATOM     19  C   UNL     1      -4.293  14.157  21.575  0.00  0.00    +0.000 C 
ENDBRANCH   7  10
BRANCH   1  23
ATOM     20  C   UNL     1       4.323   4.606  16.970  0.00  0.00    +0.000 A 
ATOM     21  C   UNL     1       4.732   5.931  16.830  0.00  0.00    +0.000 A 
ATOM     22  C   UNL     1       4.036   6.963  17.468  0.00  0.00    +0.000 A 
ATOM     23  C   UNL     1       2.902   6.692  18.240  0.00  0.00    +0.000 A 
ATOM     24  C   UNL     1       2.483   5.355  18.366  0.00  0.00    +0.000 A 
ATOM     25  C   UNL     1       3.194   4.320  17.736  0.00  0.00    +0.000 A 
BRANCH  20  27
ATOM     26  C   UNL     1       6.324   4.144  15.785  0.00  0.00    +0.000 C 
ATOM     27  O   UNL     1       5.067   3.693  16.276  0.00  0.00    +0.000 OA
ENDBRANCH  20  27
ENDBRANCH   1  23
TORSDOF 3
ENDMDL
