MODEL 1
REMARK VINA RESULT:      -7.7      0.000      0.000
REMARK  Name = 
REMARK  7 active torsions:
REMARK  status: ('A' for Active; 'I' for Inactive)
REMARK    1  A    between atoms: C_1  and  C_2
REMARK    2  A    between atoms: C_2  and  N_3
REMARK    3  A    between atoms: C_2  and  C_16
REMARK    4  A    between atoms: C_4  and  C_6
REMARK    5  A    between atoms: C_6  and  C_7
REMARK    6  A    between atoms: C_7  and  O_8
REMARK    7  A    between atoms: O_8  and  C_9
REMARK                            x       y       z     vdW  Elec       q    Type
REMARK                         _______ _______ _______ _____ _____    ______ ____
ROOT
ATOM      1  N   UNL     1       6.001   6.080  17.376  0.00  0.00    +0.000 N 
ATOM      2  C   UNL     1       7.167   6.555  17.922  0.00  0.00    +0.000 C 
ATOM      3  O   UNL     1       7.782   5.951  18.792  0.00  0.00    +0.000 OA
ATOM      4  H   UNL     1       5.418   6.702  16.830  0.00  0.00    +0.000 HD
ENDROOT
BRANCH   1   6
ATOM      5  C   UNL     1       4.946   4.026  16.586  0.00  0.00    +0.000 C 
ATOM      6  C   UNL     1       5.406   4.821  17.809  0.00  0.00    +0.000 C 
BRANCH   6   7
ATOM      7  C   UNL     1       4.259   5.106  18.722  0.00  0.00    +0.000 A 
ATOM      8  N   UNL     1       3.593   6.250  18.837  0.00  0.00    +0.000 NA
ATOM      9  N   UNL     1       2.595   6.101  19.791  0.00  0.00    +0.000 NA
ATOM     10  C   UNL     1       2.692   4.877  20.231  0.00  0.00    +0.000 A 
ATOM     11  N   UNL     1       3.696   4.231  19.582  0.00  0.00    +0.000 N 
ATOM     12  C   UNL     1       3.867   2.867  20.024  0.00  0.00    +0.000 C 
ATOM     13  C   UNL     1       2.572   2.624  20.832  0.00  0.00    +0.000 C 
ATOM     14  C   UNL     1       2.046   4.024  21.237  0.00  0.00    +0.000 C 
ENDBRANCH   6   7
ENDBRANCH   1   6
BRANCH   2  15
ATOM     15  C   UNL     1       7.641   7.873  17.339  0.00  0.00    +0.000 C 
BRANCH  15  16
ATOM     16  C   UNL     1       8.404   8.655  18.402  0.00  0.00    +0.000 C 
BRANCH  16  17
ATOM     17  O   UNL     1       8.511  10.030  18.024  0.00  0.00    +0.000 OA
BRANCH  17  18
ATOM     18  C   UNL     1       9.452  10.764  18.704  0.00  0.00    +0.000 A 
ATOM     19  C   UNL     1       9.511  10.930  20.092  0.00  0.00    +0.000 A 
ATOM     20  C   UNL     1      10.519  11.705  20.678  0.00  0.00    +0.000 A 
ATOM     21  C   UNL     1      11.476  12.320  19.875  0.00  0.00    +0.000 A 
ATOM     22  C   UNL     1      11.410  12.159  18.499  0.00  0.00    +0.000 A 
ATOM     23  F   UNL     1      12.333  12.749  17.725  0.00  0.00    +0.000 F 
ATOM     24  C   UNL     1      10.413  11.390  17.907  0.00  0.00    +0.000 A 
ENDBRANCH  17  18
ENDBRANCH  16  17
ENDBRANCH  15  16
ENDBRANCH   2  15
TORSDOF 6
ENDMDL
MODEL 2
REMARK VINA RESULT:      -7.7      1.490      1.545
REMARK  Name = 
REMARK  7 active torsions:
REMARK  status: ('A' for Active; 'I' for Inactive)
REMARK    1  A    between atoms: C_1  and  C_2
REMARK    2  A    between atoms: C_2  and  N_3
REMARK    3  A    between atoms: C_2  and  C_16
REMARK    4  A    between atoms: C_4  and  C_6
REMARK    5  A    between atoms: C_6  and  C_7
REMARK    6  A    between atoms: C_7  and  O_8
REMARK    7  A    between atoms: O_8  and  C_9
REMARK                            x       y       z     vdW  Elec       q    Type
REMARK                         _______ _______ _______ _____ _____    ______ ____
ROOT
ATOM      1  N   UNL     1       6.378   6.928  16.826  0.00  0.00    +0.000 N 
ATOM      2  C   UNL     1       7.388   7.285  17.684  0.00  0.00    +0.000 C 
ATOM      3  O   UNL     1       7.876   6.502  18.491  0.00  0.00    +0.000 OA
ATOM      4  H   UNL     1       5.862   7.650  16.339  0.00  0.00    +0.000 HD
ENDROOT
BRANCH   1   6
ATOM      5  C   UNL     1       5.832   5.018  15.411  0.00  0.00    +0.000 C 
ATOM      6  C   UNL     1       5.804   5.587  16.829  0.00  0.00    +0.000 C 
BRANCH   6   7
ATOM      7  C   UNL     1       4.407   5.650  17.352  0.00  0.00    +0.000 A 
ATOM      8  N   UNL     1       3.707   6.743  17.636  0.00  0.00    +0.000 NA
ATOM      9  N   UNL     1       2.448   6.371  18.091  0.00  0.00    +0.000 NA
ATOM     10  C   UNL     1       2.427   5.067  18.077  0.00  0.00    +0.000 A 
ATOM     11  N   UNL     1       3.612   4.591  17.612  0.00  0.00    +0.000 N 
ATOM     12  C   UNL     1       3.663   3.148  17.576  0.00  0.00    +0.000 C 
ATOM     13  C   UNL     1       2.178   2.765  17.772  0.00  0.00    +0.000 C 
ATOM     14  C   UNL     1       1.503   3.987  18.446  0.00  0.00    +0.000 C 
ENDBRANCH   6   7
ENDBRANCH   1   6
BRANCH   2  15
ATOM     15  C   UNL     1       7.866   8.716  17.530  0.00  0.00    +0.000 C 
BRANCH  15  16
ATOM     16  C   UNL     1       8.818   9.062  18.669  0.00  0.00    +0.000 C 
BRANCH  16  17
ATOM     17  O   UNL     1       8.692  10.442  19.019  0.00  0.00    +0.000 OA
BRANCH  17  18
ATOM     18  C   UNL     1       9.869  11.137  19.143  0.00  0.00    +0.000 A 
ATOM     19  C   UNL     1      10.493  11.477  20.349  0.00  0.00    +0.000 A 
ATOM     20  C   UNL     1      11.698  12.191  20.354  0.00  0.00    +0.000 A 
ATOM     21  C   UNL     1      12.285  12.570  19.150  0.00  0.00    +0.000 A 
ATOM     22  C   UNL     1      11.660  12.236  17.958  0.00  0.00    +0.000 A 
ATOM     23  F   UNL     1      12.227  12.599  16.797  0.00  0.00    +0.000 F 
ATOM     24  C   UNL     1      10.464  11.526  17.941  0.00  0.00    +0.000 A 
ENDBRANCH  17  18
ENDBRANCH  16  17
ENDBRANCH  15  16
ENDBRANCH   2  15
TORSDOF 6
ENDMDL
MODEL 3
REMARK VINA RESULT:      -7.5      5.464      6.609
REMARK  Name = 
REMARK  7 active torsions:
REMARK  status: ('A' for Active; 'I' for Inactive)
REMARK    1  A    between atoms: C_1  and  C_2
REMARK    2  A    between atoms: C_2  and  N_3
REMARK    3  A    between atoms: C_2  and  C_16
REMARK    4  A    between atoms: C_4  and  C_6
REMARK    5  A    between atoms: C_6  and  C_7
REMARK    6  A    between atoms: C_7  and  O_8
REMARK    7  A    between atoms: O_8  and  C_9
REMARK                            x       y       z     vdW  Elec       q    Type
REMARK                         _______ _______ _______ _____ _____    ______ ____
ROOT
ATOM      1  N   UNL     1       4.288   5.604  18.021  0.00  0.00    +0.000 N 
ATOM      2  C   UNL     1       4.915   4.458  17.598  0.00  0.00    +0.000 C 
ATOM      3  O   UNL     1       4.335   3.584  16.965  0.00  0.00    +0.000 OA
ATOM      4  H   UNL     1       4.735   6.186  18.717  0.00  0.00    +0.000 HD
ENDROOT
BRANCH   1   6
ATOM      5  C   UNL     1       2.455   7.166  18.412  0.00  0.00    +0.000 C 
ATOM      6  C   UNL     1       2.875   5.851  17.754  0.00  0.00    +0.000 C 
BRANCH   6   7
ATOM      7  C   UNL     1       2.068   4.710  18.279  0.00  0.00    +0.000 A 
ATOM      8  N   UNL     1       1.275   3.903  17.583  0.00  0.00    +0.000 NA
ATOM      9  N   UNL     1       0.710   2.968  18.442  0.00  0.00    +0.000 NA
ATOM     10  C   UNL     1       1.170   3.243  19.631  0.00  0.00    +0.000 A 
ATOM     11  N   UNL     1       2.021   4.299  19.564  0.00  0.00    +0.000 N 
ATOM     12  C   UNL     1       2.566   4.665  20.851  0.00  0.00    +0.000 C 
ATOM     13  C   UNL     1       2.191   3.444  21.721  0.00  0.00    +0.000 C 
ATOM     14  C   UNL     1       1.003   2.752  21.004  0.00  0.00    +0.000 C 
ENDBRANCH   6   7
ENDBRANCH   1   6
BRANCH   2  15
ATOM     15  C   UNL     1       6.387   4.380  17.956  0.00  0.00    +0.000 C 
BRANCH  15  16
ATOM     16  C   UNL     1       7.228   4.672  16.719  0.00  0.00    +0.000 C 
BRANCH  16  17
ATOM     17  O   UNL     1       6.429   5.295  15.710  0.00  0.00    +0.000 OA
BRANCH  17  18
ATOM     18  C   UNL     1       6.708   4.931  14.417  0.00  0.00    +0.000 A 
ATOM     19  C   UNL     1       7.706   5.489  13.609  0.00  0.00    +0.000 A 
ATOM     20  C   UNL     1       7.902   5.036  12.299  0.00  0.00    +0.000 A 
ATOM     21  C   UNL     1       7.098   4.021  11.788  0.00  0.00    +0.000 A 
ATOM     22  C   UNL     1       6.107   3.475  12.589  0.00  0.00    +0.000 A 
ATOM     23  F   UNL     1       5.334   2.494  12.099  0.00  0.00    +0.000 F 
ATOM     24  C   UNL     1       5.904   3.916  13.893  0.00  0.00    +0.000 A 
ENDBRANCH  17  18
ENDBRANCH  16  17
ENDBRANCH  15  16
ENDBRANCH   2  15
TORSDOF 6
ENDMDL
MODEL 4
REMARK VINA RESULT:      -7.5      4.475      6.194
REMARK  Name = 
REMARK  7 active torsions:
REMARK  status: ('A' for Active; 'I' for Inactive)
REMARK    1  A    between atoms: C_1  and  C_2
REMARK    2  A    between atoms: C_2  and  N_3
REMARK    3  A    between atoms: C_2  and  C_16
REMARK    4  A    between atoms: C_4  and  C_6
REMARK    5  A    between atoms: C_6  and  C_7
REMARK    6  A    between atoms: C_7  and  O_8
REMARK    7  A    between atoms: O_8  and  C_9
REMARK                            x       y       z     vdW  Elec       q    Type
REMARK                         _______ _______ _______ _____ _____    ______ ____
ROOT
ATOM      1  N   UNL     1       4.539   6.294  17.914  0.00  0.00    +0.000 N 
ATOM      2  C   UNL     1       5.375   6.594  16.867  0.00  0.00    +0.000 C 
ATOM      3  O   UNL     1       4.971   7.089  15.822  0.00  0.00    +0.000 OA
ATOM      4  H   UNL     1       4.871   5.694  18.658  0.00  0.00    +0.000 HD
ENDROOT
BRANCH   1   6
ATOM      5  C   UNL     1       2.830   8.035  17.918  0.00  0.00    +0.000 C 
ATOM      6  C   UNL     1       3.101   6.532  17.844  0.00  0.00    +0.000 C 
BRANCH   6   7
ATOM      7  C   UNL     1       2.427   5.812  18.964  0.00  0.00    +0.000 A 
ATOM      8  N   UNL     1       2.161   6.287  20.176  0.00  0.00    +0.000 NA
ATOM      9  N   UNL     1       1.520   5.305  20.919  0.00  0.00    +0.000 NA
ATOM     10  C   UNL     1       1.424   4.264  20.139  0.00  0.00    +0.000 A 
ATOM     11  N   UNL     1       1.958   4.547  18.923  0.00  0.00    +0.000 N 
ATOM     12  C   UNL     1       1.893   3.433  18.006  0.00  0.00    +0.000 C 
ATOM     13  C   UNL     1       0.910   2.480  18.723  0.00  0.00    +0.000 C 
ATOM     14  C   UNL     1       0.933   2.882  20.220  0.00  0.00    +0.000 C 
ENDBRANCH   6   7
ENDBRANCH   1   6
BRANCH   2  15
ATOM     15  C   UNL     1       6.838   6.289  17.125  0.00  0.00    +0.000 C 
BRANCH  15  16
ATOM     16  C   UNL     1       7.132   4.843  16.743  0.00  0.00    +0.000 C 
BRANCH  16  17
ATOM     17  O   UNL     1       6.103   4.336  15.889  0.00  0.00    +0.000 OA
BRANCH  17  18
ATOM     18  C   UNL     1       6.411   4.279  14.553  0.00  0.00    +0.000 A 
ATOM     19  C   UNL     1       5.815   3.430  13.613  0.00  0.00    +0.000 A 
ATOM     20  C   UNL     1       6.211   3.458  12.271  0.00  0.00    +0.000 A 
ATOM     21  C   UNL     1       7.209   4.337  11.860  0.00  0.00    +0.000 A 
ATOM     22  C   UNL     1       7.803   5.172  12.795  0.00  0.00    +0.000 A 
ATOM     23  F   UNL     1       8.763   6.021  12.400  0.00  0.00    +0.000 F 
ATOM     24  C   UNL     1       7.416   5.153  14.131  0.00  0.00    +0.000 A 
ENDBRANCH  17  18
ENDBRANCH  16  17
ENDBRANCH  15  16
ENDBRANCH   2  15
TORSDOF 6
ENDMDL
MODEL 5
REMARK VINA RESULT:      -7.4      5.315      7.247
REMARK  Name = 
REMARK  7 active torsions:
REMARK  status: ('A' for Active; 'I' for Inactive)
REMARK    1  A    between atoms: C_1  and  C_2
REMARK    2  A    between atoms: C_2  and  N_3
REMARK    3  A    between atoms: C_2  and  C_16
REMARK    4  A    between atoms: C_4  and  C_6
REMARK    5  A    between atoms: C_6  and  C_7
REMARK    6  A    between atoms: C_7  and  O_8
REMARK    7  A    between atoms: O_8  and  C_9
REMARK                            x       y       z     vdW  Elec       q    Type
REMARK                         _______ _______ _______ _____ _____    ______ ____
ROOT
ATOM      1  N   UNL     1       3.129   3.776  19.915  0.00  0.00    +0.000 N 
ATOM      2  C   UNL     1       1.869   3.864  19.377  0.00  0.00    +0.000 C 
ATOM      3  O   UNL     1       1.554   3.296  18.338  0.00  0.00    +0.000 OA
ATOM      4  H   UNL     1       3.406   4.426  20.640  0.00  0.00    +0.000 HD
ENDROOT
BRANCH   1   6
ATOM      5  C   UNL     1       4.698   1.935  20.235  0.00  0.00    +0.000 C 
ATOM      6  C   UNL     1       4.188   3.007  19.271  0.00  0.00    +0.000 C 
BRANCH   6   7
ATOM      7  C   UNL     1       5.291   3.929  18.867  0.00  0.00    +0.000 A 
ATOM      8  N   UNL     1       6.120   4.586  19.671  0.00  0.00    +0.000 NA
ATOM      9  N   UNL     1       7.004   5.332  18.901  0.00  0.00    +0.000 NA
ATOM     10  C   UNL     1       6.678   5.111  17.658  0.00  0.00    +0.000 A 
ATOM     11  N   UNL     1       5.638   4.239  17.600  0.00  0.00    +0.000 N 
ATOM     12  C   UNL     1       5.218   3.952  16.248  0.00  0.00    +0.000 C 
ATOM     13  C   UNL     1       6.390   4.521  15.417  0.00  0.00    +0.000 C 
ATOM     14  C   UNL     1       7.099   5.558  16.324  0.00  0.00    +0.000 C 
ENDBRANCH   6   7
ENDBRANCH   1   6
BRANCH   2  15
ATOM     15  C   UNL     1       0.897   4.697  20.191  0.00  0.00    +0.000 C 
BRANCH  15  16
ATOM     16  C   UNL     1       1.653   5.811  20.905  0.00  0.00    +0.000 C 
BRANCH  16  17
ATOM     17  O   UNL     1       2.501   6.504  19.985  0.00  0.00    +0.000 OA
BRANCH  17  18
ATOM     18  C   UNL     1       2.020   7.701  19.515  0.00  0.00    +0.000 A 
ATOM     19  C   UNL     1       2.192   8.197  18.217  0.00  0.00    +0.000 A 
ATOM     20  C   UNL     1       1.654   9.435  17.848  0.00  0.00    +0.000 A 
ATOM     21  C   UNL     1       0.942  10.187  18.778  0.00  0.00    +0.000 A 
ATOM     22  C   UNL     1       0.779   9.696  20.065  0.00  0.00    +0.000 A 
ATOM     23  F   UNL     1       0.090  10.418  20.960  0.00  0.00    +0.000 F 
ATOM     24  C   UNL     1       1.307   8.465  20.442  0.00  0.00    +0.000 A 
ENDBRANCH  17  18
ENDBRANCH  16  17
ENDBRANCH  15  16
ENDBRANCH   2  15
TORSDOF 6
ENDMDL
MODEL 6
REMARK VINA RESULT:      -7.4      1.884      2.408
REMARK  Name = 
REMARK  7 active torsions:
REMARK  status: ('A' for Active; 'I' for Inactive)
REMARK    1  A    between atoms: C_1  and  C_2
REMARK    2  A    between atoms: C_2  and  N_3
REMARK    3  A    between atoms: C_2  and  C_16
REMARK    4  A    between atoms: C_4  and  C_6
REMARK    5  A    between atoms: C_6  and  C_7
REMARK    6  A    between atoms: C_7  and  O_8
REMARK    7  A    between atoms: O_8  and  C_9
REMARK                            x       y       z     vdW  Elec       q    Type
REMARK                         _______ _______ _______ _____ _____    ______ ____
ROOT
ATOM      1  N   UNL     1       4.920   6.172  18.015  0.00  0.00    +0.000 N 
ATOM      2  C   UNL     1       5.914   6.537  17.142  0.00  0.00    +0.000 C 
ATOM      3  O   UNL     1       5.700   6.770  15.958  0.00  0.00    +0.000 OA
ATOM      4  H   UNL     1       5.169   5.781  18.915  0.00  0.00    +0.000 HD
ENDROOT
BRANCH   1   6
ATOM      5  C   UNL     1       2.689   7.143  18.191  0.00  0.00    +0.000 C 
ATOM      6  C   UNL     1       3.534   6.023  17.584  0.00  0.00    +0.000 C 
BRANCH   6   7
ATOM      7  C   UNL     1       3.028   4.684  18.007  0.00  0.00    +0.000 A 
ATOM      8  N   UNL     1       2.934   3.590  17.258  0.00  0.00    +0.000 NA
ATOM      9  N   UNL     1       2.420   2.555  18.028  0.00  0.00    +0.000 NA
ATOM     10  C   UNL     1       2.211   3.053  19.215  0.00  0.00    +0.000 A 
ATOM     11  N   UNL     1       2.589   4.358  19.241  0.00  0.00    +0.000 N 
ATOM     12  C   UNL     1       2.379   4.979  20.528  0.00  0.00    +0.000 C 
ATOM     13  C   UNL     1       2.118   3.758  21.439  0.00  0.00    +0.000 C 
ATOM     14  C   UNL     1       1.661   2.611  20.502  0.00  0.00    +0.000 C 
ENDBRANCH   6   7
ENDBRANCH   1   6
BRANCH   2  15
ATOM     15  C   UNL     1       7.290   6.653  17.770  0.00  0.00    +0.000 C 
BRANCH  15  16
ATOM     16  C   UNL     1       7.828   8.063  17.561  0.00  0.00    +0.000 C 
BRANCH  16  17
ATOM     17  O   UNL     1       8.609   8.469  18.688  0.00  0.00    +0.000 OA
BRANCH  17  18
ATOM     18  C   UNL     1       8.904   9.808  18.760  0.00  0.00    +0.000 A 
ATOM     19  C   UNL     1       9.732  10.411  19.713  0.00  0.00    +0.000 A 
ATOM     20  C   UNL     1       9.961  11.792  19.690  0.00  0.00    +0.000 A 
ATOM     21  C   UNL     1       9.361  12.578  18.711  0.00  0.00    +0.000 A 
ATOM     22  C   UNL     1       8.535  11.978  17.772  0.00  0.00    +0.000 A 
ATOM     23  F   UNL     1       7.958  12.735  16.827  0.00  0.00    +0.000 F 
ATOM     24  C   UNL     1       8.302  10.606  17.785  0.00  0.00    +0.000 A 
ENDBRANCH  17  18
ENDBRANCH  16  17
ENDBRANCH  15  16
ENDBRANCH   2  15
TORSDOF 6
ENDMDL
MODEL 7
REMARK VINA RESULT:      -7.4      5.438      8.620
REMARK  Name = 
REMARK  7 active torsions:
REMARK  status: ('A' for Active; 'I' for Inactive)
REMARK    1  A    between atoms: C_1  and  C_2
REMARK    2  A    between atoms: C_2  and  N_3
REMARK    3  A    between atoms: C_2  and  C_16
REMARK    4  A    between atoms: C_4  and  C_6
REMARK    5  A    between atoms: C_6  and  C_7
REMARK    6  A    between atoms: C_7  and  O_8
REMARK    7  A    between atoms: O_8  and  C_9
REMARK                            x       y       z     vdW  Elec       q    Type
REMARK                         _______ _______ _______ _____ _____    ______ ____
ROOT
ATOM      1  N   UNL     1       4.932   5.414  16.806  0.00  0.00    +0.000 N 
ATOM      2  C   UNL     1       5.155   6.692  17.253  0.00  0.00    +0.000 C 
ATOM      3  O   UNL     1       6.276   7.117  17.504  0.00  0.00    +0.000 OA
ATOM      4  H   UNL     1       3.992   5.039  16.821  0.00  0.00    +0.000 HD
ENDROOT
BRANCH   1   6
ATOM      5  C   UNL     1       6.986   4.548  17.798  0.00  0.00    +0.000 C 
ATOM      6  C   UNL     1       6.023   4.465  16.613  0.00  0.00    +0.000 C 
BRANCH   6   7
ATOM      7  C   UNL     1       6.725   4.774  15.332  0.00  0.00    +0.000 A 
ATOM      8  N   UNL     1       7.781   5.564  15.169  0.00  0.00    +0.000 NA
ATOM      9  N   UNL     1       8.132   5.581  13.825  0.00  0.00    +0.000 NA
ATOM     10  C   UNL     1       7.274   4.811  13.215  0.00  0.00    +0.000 A 
ATOM     11  N   UNL     1       6.404   4.285  14.116  0.00  0.00    +0.000 N 
ATOM     12  C   UNL     1       5.417   3.424  13.508  0.00  0.00    +0.000 C 
ATOM     13  C   UNL     1       6.005   3.202  12.096  0.00  0.00    +0.000 C 
ATOM     14  C   UNL     1       6.975   4.384  11.842  0.00  0.00    +0.000 C 
ENDBRANCH   6   7
ENDBRANCH   1   6
BRANCH   2  15
ATOM     15  C   UNL     1       3.903   7.538  17.382  0.00  0.00    +0.000 C 
BRANCH  15  16
ATOM     16  C   UNL     1       2.726   6.652  17.771  0.00  0.00    +0.000 C 
BRANCH  16  17
ATOM     17  O   UNL     1       2.988   5.995  19.014  0.00  0.00    +0.000 OA
BRANCH  17  18
ATOM     18  C   UNL     1       2.309   4.821  19.223  0.00  0.00    +0.000 A 
ATOM     19  C   UNL     1       1.764   4.004  18.226  0.00  0.00    +0.000 A 
ATOM     20  C   UNL     1       1.088   2.823  18.559  0.00  0.00    +0.000 A 
ATOM     21  C   UNL     1       0.953   2.454  19.894  0.00  0.00    +0.000 A 
ATOM     22  C   UNL     1       1.489   3.270  20.880  0.00  0.00    +0.000 A 
ATOM     23  F   UNL     1       1.362   2.913  22.167  0.00  0.00    +0.000 F 
ATOM     24  C   UNL     1       2.163   4.444  20.561  0.00  0.00    +0.000 A 
ENDBRANCH  17  18
ENDBRANCH  16  17
ENDBRANCH  15  16
ENDBRANCH   2  15
TORSDOF 6
ENDMDL
MODEL 8
REMARK VINA RESULT:      -7.3      5.292      6.478
REMARK  Name = 
REMARK  7 active torsions:
REMARK  status: ('A' for Active; 'I' for Inactive)
REMARK    1  A    between atoms: C_1  and  C_2
REMARK    2  A    between atoms: C_2  and  N_3
REMARK    3  A    between atoms: C_2  and  C_16
REMARK    4  A    between atoms: C_4  and  C_6
REMARK    5  A    between atoms: C_6  and  C_7
REMARK    6  A    between atoms: C_7  and  O_8
REMARK    7  A    between atoms: O_8  and  C_9
REMARK                            x       y       z     vdW  Elec       q    Type
REMARK                         _______ _______ _______ _____ _____    ______ ____
ROOT
ATOM      1  N   UNL     1       4.801   6.068  17.919  0.00  0.00    +0.000 N 
ATOM      2  C   UNL     1       5.409   4.863  17.670  0.00  0.00    +0.000 C 
ATOM      3  O   UNL     1       4.790   3.879  17.283  0.00  0.00    +0.000 OA
ATOM      4  H   UNL     1       5.300   6.778  18.438  0.00  0.00    +0.000 HD
ENDROOT
BRANCH   1   6
ATOM      5  C   UNL     1       3.054   7.745  17.623  0.00  0.00    +0.000 C 
ATOM      6  C   UNL     1       3.364   6.253  17.751  0.00  0.00    +0.000 C 
BRANCH   6   7
ATOM      7  C   UNL     1       2.651   5.658  18.920  0.00  0.00    +0.000 A 
ATOM      8  N   UNL     1       2.523   6.184  20.133  0.00  0.00    +0.000 NA
ATOM      9  N   UNL     1       1.784   5.319  20.929  0.00  0.00    +0.000 NA
ATOM     10  C   UNL     1       1.495   4.293  20.179  0.00  0.00    +0.000 A 
ATOM     11  N   UNL     1       1.999   4.476  18.931  0.00  0.00    +0.000 N 
ATOM     12  C   UNL     1       1.721   3.371  18.043  0.00  0.00    +0.000 C 
ATOM     13  C   UNL     1       0.648   2.585  18.830  0.00  0.00    +0.000 C 
ATOM     14  C   UNL     1       0.810   3.001  20.314  0.00  0.00    +0.000 C 
ENDBRANCH   6   7
ENDBRANCH   1   6
BRANCH   2  15
ATOM     15  C   UNL     1       6.911   4.861  17.887  0.00  0.00    +0.000 C 
BRANCH  15  16
ATOM     16  C   UNL     1       7.617   4.591  16.564  0.00  0.00    +0.000 C 
BRANCH  16  17
ATOM     17  O   UNL     1       7.197   5.534  15.575  0.00  0.00    +0.000 OA
BRANCH  17  18
ATOM     18  C   UNL     1       7.161   5.070  14.284  0.00  0.00    +0.000 A 
ATOM     19  C   UNL     1       7.936   5.550  13.222  0.00  0.00    +0.000 A 
ATOM     20  C   UNL     1       7.815   4.998  11.941  0.00  0.00    +0.000 A 
ATOM     21  C   UNL     1       6.916   3.960  11.716  0.00  0.00    +0.000 A 
ATOM     22  C   UNL     1       6.145   3.491  12.769  0.00  0.00    +0.000 A 
ATOM     23  F   UNL     1       5.280   2.488  12.553  0.00  0.00    +0.000 F 
ATOM     24  C   UNL     1       6.258   4.031  14.046  0.00  0.00    +0.000 A 
ENDBRANCH  17  18
ENDBRANCH  16  17
ENDBRANCH  15  16
ENDBRANCH   2  15
TORSDOF 6
ENDMDL
MODEL 9
REMARK VINA RESULT:      -7.3      1.633      2.367
REMARK  Name = 
REMARK  7 active torsions:
REMARK  status: ('A' for Active; 'I' for Inactive)
REMARK    1  A    between atoms: C_1  and  C_2
REMARK    2  A    between atoms: C_2  and  N_3
REMARK    3  A    between atoms: C_2  and  C_16
REMARK    4  A    between atoms: C_4  and  C_6
REMARK    5  A    between atoms: C_6  and  C_7
REMARK    6  A    between atoms: C_7  and  O_8
REMARK    7  A    between atoms: O_8  and  C_9
REMARK                            x       y       z     vdW  Elec       q    Type
REMARK                         _______ _______ _______ _____ _____    ______ ____
ROOT
ATOM      1  N   UNL     1       6.893   6.123  16.880  0.00  0.00    +0.000 N 
ATOM      2  C   UNL     1       7.585   6.898  17.778  0.00  0.00    +0.000 C 
ATOM      3  O   UNL     1       8.028   6.453  18.829  0.00  0.00    +0.000 OA
ATOM      4  H   UNL     1       6.363   6.570  16.143  0.00  0.00    +0.000 HD
ENDROOT
BRANCH   1   6
ATOM      5  C   UNL     1       6.275   4.018  15.812  0.00  0.00    +0.000 C 
ATOM      6  C   UNL     1       6.627   4.710  17.129  0.00  0.00    +0.000 C 
BRANCH   6   7
ATOM      7  C   UNL     1       5.510   4.585  18.112  0.00  0.00    +0.000 A 
ATOM      8  N   UNL     1       5.408   3.703  19.100  0.00  0.00    +0.000 NA
ATOM      9  N   UNL     1       4.222   3.926  19.788  0.00  0.00    +0.000 NA
ATOM     10  C   UNL     1       3.638   4.927  19.191  0.00  0.00    +0.000 A 
ATOM     11  N   UNL     1       4.411   5.368  18.165  0.00  0.00    +0.000 N 
ATOM     12  C   UNL     1       3.822   6.476  17.451  0.00  0.00    +0.000 C 
ATOM     13  C   UNL     1       2.685   6.909  18.405  0.00  0.00    +0.000 C 
ATOM     14  C   UNL     1       2.382   5.680  19.300  0.00  0.00    +0.000 C 
ENDBRANCH   6   7
ENDBRANCH   1   6
BRANCH   2  15
ATOM     15  C   UNL     1       7.776   8.339  17.345  0.00  0.00    +0.000 C 
BRANCH  15  16
ATOM     16  C   UNL     1       8.450   9.123  18.464  0.00  0.00    +0.000 C 
BRANCH  16  17
ATOM     17  O   UNL     1       8.670  10.476  18.060  0.00  0.00    +0.000 OA
BRANCH  17  18
ATOM     18  C   UNL     1       9.701  11.128  18.691  0.00  0.00    +0.000 A 
ATOM     19  C   UNL     1      10.940  11.440  18.120  0.00  0.00    +0.000 A 
ATOM     20  C   UNL     1      11.920  12.110  18.862  0.00  0.00    +0.000 A 
ATOM     21  C   UNL     1      11.666  12.472  20.181  0.00  0.00    +0.000 A 
ATOM     22  C   UNL     1      10.439  12.155  20.745  0.00  0.00    +0.000 A 
ATOM     23  F   UNL     1      10.192  12.506  22.017  0.00  0.00    +0.000 F 
ATOM     24  C   UNL     1       9.457  11.491  20.018  0.00  0.00    +0.000 A 
ENDBRANCH  17  18
ENDBRANCH  16  17
ENDBRANCH  15  16
ENDBRANCH   2  15
TORSDOF 6
ENDMDL
