MODEL 1
REMARK VINA RESULT:      -6.9      0.000      0.000
REMARK  Name = 
REMARK  1 active torsions:
REMARK  status: ('A' for Active; 'I' for Inactive)
REMARK    1  A    between atoms: N_10  and  C_11
REMARK                            x       y       z     vdW  Elec       q    Type
REMARK                         _______ _______ _______ _____ _____    ______ ____
ROOT
ATOM      1  S   UNL     1       3.216   6.946  18.168  0.00  0.00    +0.000 S 
ATOM      2  C   UNL     1       3.812   5.463  17.690  0.00  0.00    +0.000 C 
ATOM      3  C   UNL     1       4.727   5.287  16.533  0.00  0.00    +0.000 A 
ATOM      4  C   UNL     1       5.222   6.204  15.616  0.00  0.00    +0.000 A 
ATOM      5  C   UNL     1       6.101   5.746  14.630  0.00  0.00    +0.000 A 
ATOM      6  C   UNL     1       6.468   4.392  14.569  0.00  0.00    +0.000 A 
ATOM      7  C   UNL     1       5.964   3.479  15.497  0.00  0.00    +0.000 A 
ATOM      8  C   UNL     1       5.099   3.946  16.474  0.00  0.00    +0.000 A 
ATOM      9  C   UNL     1       4.471   3.188  17.586  0.00  0.00    +0.000 C 
ATOM     10  N   UNL     1       3.664   4.188  18.283  0.00  0.00    +0.000 N 
ENDROOT
BRANCH  10  11
ATOM     11  C   UNL     1       2.822   3.767  19.353  0.00  0.00    +0.000 A 
ATOM     12  C   UNL     1       3.387   3.141  20.479  0.00  0.00    +0.000 A 
ATOM     13  C   UNL     1       2.594   2.651  21.521  0.00  0.00    +0.000 A 
ATOM     14  C   UNL     1       1.213   2.766  21.453  0.00  0.00    +0.000 A 
ATOM     15  C   UNL     1       0.631   3.385  20.351  0.00  0.00    +0.000 A 
ATOM     16  C   UNL     1       1.429   3.883  19.312  0.00  0.00    +0.000 A 
ENDBRANCH  10  11
TORSDOF 1
ENDMDL
MODEL 2
REMARK VINA RESULT:      -6.8      1.572      1.631
REMARK  Name = 
REMARK  1 active torsions:
REMARK  status: ('A' for Active; 'I' for Inactive)
REMARK    1  A    between atoms: N_10  and  C_11
REMARK                            x       y       z     vdW  Elec       q    Type
REMARK                         _______ _______ _______ _____ _____    ______ ____
ROOT
ATOM      1  S   UNL     1       6.728   5.453  19.298  0.00  0.00    +0.000 S 
ATOM      2  C   UNL     1       5.737   4.816  18.117  0.00  0.00    +0.000 C 
ATOM      3  C   UNL     1       6.113   4.758  16.681  0.00  0.00    +0.000 A 
ATOM      4  C   UNL     1       7.240   5.221  16.016  0.00  0.00    +0.000 A 
ATOM      5  C   UNL     1       7.334   5.000  14.638  0.00  0.00    +0.000 A 
ATOM      6  C   UNL     1       6.311   4.329  13.949  0.00  0.00    +0.000 A 
ATOM      7  C   UNL     1       5.183   3.867  14.628  0.00  0.00    +0.000 A 
ATOM      8  C   UNL     1       5.104   4.087  15.995  0.00  0.00    +0.000 A 
ATOM      9  C   UNL     1       4.038   3.658  16.936  0.00  0.00    +0.000 C 
ATOM     10  N   UNL     1       4.484   4.170  18.231  0.00  0.00    +0.000 N 
ENDROOT
BRANCH  10  11
ATOM     11  C   UNL     1       3.622   4.033  19.357  0.00  0.00    +0.000 A 
ATOM     12  C   UNL     1       3.607   2.826  20.080  0.00  0.00    +0.000 A 
ATOM     13  C   UNL     1       2.729   2.623  21.150  0.00  0.00    +0.000 A 
ATOM     14  C   UNL     1       1.836   3.622  21.512  0.00  0.00    +0.000 A 
ATOM     15  C   UNL     1       1.835   4.826  20.814  0.00  0.00    +0.000 A 
ATOM     16  C   UNL     1       2.722   5.030  19.748  0.00  0.00    +0.000 A 
ENDBRANCH  10  11
TORSDOF 1
ENDMDL
MODEL 3
REMARK VINA RESULT:      -6.8      0.112      1.204
REMARK  Name = 
REMARK  1 active torsions:
REMARK  status: ('A' for Active; 'I' for Inactive)
REMARK    1  A    between atoms: N_10  and  C_11
REMARK                            x       y       z     vdW  Elec       q    Type
REMARK                         _______ _______ _______ _____ _____    ______ ____
ROOT
ATOM      1  S   UNL     1       3.172   6.844  18.303  0.00  0.00    +0.000 S 
ATOM      2  C   UNL     1       3.806   5.400  17.759  0.00  0.00    +0.000 C 
ATOM      3  C   UNL     1       4.720   5.299  16.593  0.00  0.00    +0.000 A 
ATOM      4  C   UNL     1       5.187   6.268  15.715  0.00  0.00    +0.000 A 
ATOM      5  C   UNL     1       6.073   5.877  14.707  0.00  0.00    +0.000 A 
ATOM      6  C   UNL     1       6.477   4.538  14.587  0.00  0.00    +0.000 A 
ATOM      7  C   UNL     1       6.002   3.572  15.476  0.00  0.00    +0.000 A 
ATOM      8  C   UNL     1       5.129   3.973  16.475  0.00  0.00    +0.000 A 
ATOM      9  C   UNL     1       4.526   3.150  17.555  0.00  0.00    +0.000 C 
ATOM     10  N   UNL     1       3.695   4.097  18.297  0.00  0.00    +0.000 N 
ENDROOT
BRANCH  10  11
ATOM     11  C   UNL     1       2.870   3.607  19.351  0.00  0.00    +0.000 A 
ATOM     12  C   UNL     1       1.474   3.758  19.270  0.00  0.00    +0.000 A 
ATOM     13  C   UNL     1       0.631   3.354  20.310  0.00  0.00    +0.000 A 
ATOM     14  C   UNL     1       1.170   2.801  21.463  0.00  0.00    +0.000 A 
ATOM     15  C   UNL     1       2.548   2.638  21.565  0.00  0.00    +0.000 A 
ATOM     16  C   UNL     1       3.390   3.036  20.517  0.00  0.00    +0.000 A 
ENDBRANCH  10  11
TORSDOF 1
ENDMDL
MODEL 4
REMARK VINA RESULT:      -6.8      1.196      5.698
REMARK  Name = 
REMARK  1 active torsions:
REMARK  status: ('A' for Active; 'I' for Inactive)
REMARK    1  A    between atoms: N_10  and  C_11
REMARK                            x       y       z     vdW  Elec       q    Type
REMARK                         _______ _______ _______ _____ _____    ______ ____
ROOT
ATOM      1  S   UNL     1       3.535   6.895  17.814  0.00  0.00    +0.000 S 
ATOM      2  C   UNL     1       3.501   5.235  17.982  0.00  0.00    +0.000 C 
ATOM      3  C   UNL     1       2.627   4.533  18.956  0.00  0.00    +0.000 A 
ATOM      4  C   UNL     1       1.750   5.026  19.914  0.00  0.00    +0.000 A 
ATOM      5  C   UNL     1       1.029   4.110  20.686  0.00  0.00    +0.000 A 
ATOM      6  C   UNL     1       1.192   2.728  20.497  0.00  0.00    +0.000 A 
ATOM      7  C   UNL     1       2.075   2.244  19.531  0.00  0.00    +0.000 A 
ATOM      8  C   UNL     1       2.780   3.162  18.767  0.00  0.00    +0.000 A 
ATOM      9  C   UNL     1       3.735   2.897  17.661  0.00  0.00    +0.000 C 
ATOM     10  N   UNL     1       4.163   4.231  17.240  0.00  0.00    +0.000 N 
ENDROOT
BRANCH  10  11
ATOM     11  C   UNL     1       5.186   4.344  16.254  0.00  0.00    +0.000 A 
ATOM     12  C   UNL     1       6.456   4.826  16.620  0.00  0.00    +0.000 A 
ATOM     13  C   UNL     1       7.469   5.017  15.674  0.00  0.00    +0.000 A 
ATOM     14  C   UNL     1       7.227   4.742  14.335  0.00  0.00    +0.000 A 
ATOM     15  C   UNL     1       5.979   4.261  13.950  0.00  0.00    +0.000 A 
ATOM     16  C   UNL     1       4.969   4.062  14.902  0.00  0.00    +0.000 A 
ENDBRANCH  10  11
TORSDOF 1
ENDMDL
MODEL 5
REMARK VINA RESULT:      -6.8      1.584      1.896
REMARK  Name = 
REMARK  1 active torsions:
REMARK  status: ('A' for Active; 'I' for Inactive)
REMARK    1  A    between atoms: N_10  and  C_11
REMARK                            x       y       z     vdW  Elec       q    Type
REMARK                         _______ _______ _______ _____ _____    ______ ____
ROOT
ATOM      1  S   UNL     1       6.662   5.425  19.269  0.00  0.00    +0.000 S 
ATOM      2  C   UNL     1       5.708   4.758  18.073  0.00  0.00    +0.000 C 
ATOM      3  C   UNL     1       6.101   4.724  16.642  0.00  0.00    +0.000 A 
ATOM      4  C   UNL     1       7.217   5.234  15.992  0.00  0.00    +0.000 A 
ATOM      5  C   UNL     1       7.334   5.025  14.614  0.00  0.00    +0.000 A 
ATOM      6  C   UNL     1       6.345   4.320  13.909  0.00  0.00    +0.000 A 
ATOM      7  C   UNL     1       5.228   3.811  14.573  0.00  0.00    +0.000 A 
ATOM      8  C   UNL     1       5.126   4.019  15.940  0.00  0.00    +0.000 A 
ATOM      9  C   UNL     1       4.067   3.544  16.867  0.00  0.00    +0.000 C 
ATOM     10  N   UNL     1       4.480   4.064  18.170  0.00  0.00    +0.000 N 
ENDROOT
BRANCH  10  11
ATOM     11  C   UNL     1       3.612   3.888  19.286  0.00  0.00    +0.000 A 
ATOM     12  C   UNL     1       2.745   4.929  19.667  0.00  0.00    +0.000 A 
ATOM     13  C   UNL     1       1.926   4.826  20.794  0.00  0.00    +0.000 A 
ATOM     14  C   UNL     1       1.965   3.679  21.577  0.00  0.00    +0.000 A 
ATOM     15  C   UNL     1       2.811   2.634  21.218  0.00  0.00    +0.000 A 
ATOM     16  C   UNL     1       3.625   2.738  20.081  0.00  0.00    +0.000 A 
ENDBRANCH  10  11
TORSDOF 1
ENDMDL
MODEL 6
REMARK VINA RESULT:      -6.7      2.482      5.682
REMARK  Name = 
REMARK  1 active torsions:
REMARK  status: ('A' for Active; 'I' for Inactive)
REMARK    1  A    between atoms: N_10  and  C_11
REMARK                            x       y       z     vdW  Elec       q    Type
REMARK                         _______ _______ _______ _____ _____    ______ ____
ROOT
ATOM      1  S   UNL     1       4.620   3.517  16.169  0.00  0.00    +0.000 S 
ATOM      2  C   UNL     1       4.105   4.111  17.640  0.00  0.00    +0.000 C 
ATOM      3  C   UNL     1       2.866   3.649  18.317  0.00  0.00    +0.000 A 
ATOM      4  C   UNL     1       1.894   2.743  17.916  0.00  0.00    +0.000 A 
ATOM      5  C   UNL     1       0.832   2.483  18.788  0.00  0.00    +0.000 A 
ATOM      6  C   UNL     1       0.753   3.126  20.034  0.00  0.00    +0.000 A 
ATOM      7  C   UNL     1       1.737   4.034  20.427  0.00  0.00    +0.000 A 
ATOM      8  C   UNL     1       2.789   4.279  19.556  0.00  0.00    +0.000 A 
ATOM      9  C   UNL     1       3.967   5.160  19.762  0.00  0.00    +0.000 C 
ATOM     10  N   UNL     1       4.726   5.027  18.520  0.00  0.00    +0.000 N 
ENDROOT
BRANCH  10  11
ATOM     11  C   UNL     1       5.880   5.842  18.330  0.00  0.00    +0.000 A 
ATOM     12  C   UNL     1       7.012   5.649  19.142  0.00  0.00    +0.000 A 
ATOM     13  C   UNL     1       8.139   6.469  19.037  0.00  0.00    +0.000 A 
ATOM     14  C   UNL     1       8.153   7.513  18.123  0.00  0.00    +0.000 A 
ATOM     15  C   UNL     1       7.046   7.722  17.305  0.00  0.00    +0.000 A 
ATOM     16  C   UNL     1       5.921   6.892  17.407  0.00  0.00    +0.000 A 
ENDBRANCH  10  11
TORSDOF 1
ENDMDL
MODEL 7
REMARK VINA RESULT:      -6.7      2.218      5.353
REMARK  Name = 
REMARK  1 active torsions:
REMARK  status: ('A' for Active; 'I' for Inactive)
REMARK    1  A    between atoms: N_10  and  C_11
REMARK                            x       y       z     vdW  Elec       q    Type
REMARK                         _______ _______ _______ _____ _____    ______ ____
ROOT
ATOM      1  S   UNL     1       2.715   6.907  19.443  0.00  0.00    +0.000 S 
ATOM      2  C   UNL     1       3.276   5.411  18.962  0.00  0.00    +0.000 C 
ATOM      3  C   UNL     1       2.443   4.182  18.987  0.00  0.00    +0.000 A 
ATOM      4  C   UNL     1       1.141   3.973  19.423  0.00  0.00    +0.000 A 
ATOM      5  C   UNL     1       0.599   2.690  19.299  0.00  0.00    +0.000 A 
ATOM      6  C   UNL     1       1.356   1.642  18.750  0.00  0.00    +0.000 A 
ATOM      7  C   UNL     1       2.664   1.864  18.314  0.00  0.00    +0.000 A 
ATOM      8  C   UNL     1       3.187   3.142  18.437  0.00  0.00    +0.000 A 
ATOM      9  C   UNL     1       4.523   3.633  18.011  0.00  0.00    +0.000 C 
ATOM     10  N   UNL     1       4.517   5.044  18.394  0.00  0.00    +0.000 N 
ENDROOT
BRANCH  10  11
ATOM     11  C   UNL     1       5.712   5.804  18.231  0.00  0.00    +0.000 A 
ATOM     12  C   UNL     1       6.810   5.567  19.077  0.00  0.00    +0.000 A 
ATOM     13  C   UNL     1       7.977   6.334  18.998  0.00  0.00    +0.000 A 
ATOM     14  C   UNL     1       8.065   7.368  18.076  0.00  0.00    +0.000 A 
ATOM     15  C   UNL     1       6.992   7.619  17.225  0.00  0.00    +0.000 A 
ATOM     16  C   UNL     1       5.828   6.843  17.301  0.00  0.00    +0.000 A 
ENDBRANCH  10  11
TORSDOF 1
ENDMDL
MODEL 8
REMARK VINA RESULT:      -6.7      1.154      5.790
REMARK  Name = 
REMARK  1 active torsions:
REMARK  status: ('A' for Active; 'I' for Inactive)
REMARK    1  A    between atoms: N_10  and  C_11
REMARK                            x       y       z     vdW  Elec       q    Type
REMARK                         _______ _______ _______ _____ _____    ______ ____
ROOT
ATOM      1  S   UNL     1       3.321   6.963  17.877  0.00  0.00    +0.000 S 
ATOM      2  C   UNL     1       3.398   5.303  18.025  0.00  0.00    +0.000 C 
ATOM      3  C   UNL     1       2.564   4.531  18.982  0.00  0.00    +0.000 A 
ATOM      4  C   UNL     1       1.648   4.951  19.936  0.00  0.00    +0.000 A 
ATOM      5  C   UNL     1       0.983   3.979  20.690  0.00  0.00    +0.000 A 
ATOM      6  C   UNL     1       1.241   2.614  20.486  0.00  0.00    +0.000 A 
ATOM      7  C   UNL     1       2.164   2.202  19.523  0.00  0.00    +0.000 A 
ATOM      8  C   UNL     1       2.812   3.176  18.778  0.00  0.00    +0.000 A 
ATOM      9  C   UNL     1       3.793   2.991  17.678  0.00  0.00    +0.000 C 
ATOM     10  N   UNL     1       4.134   4.355  17.278  0.00  0.00    +0.000 N 
ENDROOT
BRANCH  10  11
ATOM     11  C   UNL     1       5.156   4.550  16.304  0.00  0.00    +0.000 A 
ATOM     12  C   UNL     1       4.913   4.210  14.961  0.00  0.00    +0.000 A 
ATOM     13  C   UNL     1       5.907   4.320  13.984  0.00  0.00    +0.000 A 
ATOM     14  C   UNL     1       7.176   4.761  14.334  0.00  0.00    +0.000 A 
ATOM     15  C   UNL     1       7.440   5.107  15.656  0.00  0.00    +0.000 A 
ATOM     16  C   UNL     1       6.438   5.004  16.631  0.00  0.00    +0.000 A 
ENDBRANCH  10  11
TORSDOF 1
ENDMDL
MODEL 9
REMARK VINA RESULT:      -6.6      2.495      5.798
REMARK  Name = 
REMARK  1 active torsions:
REMARK  status: ('A' for Active; 'I' for Inactive)
REMARK    1  A    between atoms: N_10  and  C_11
REMARK                            x       y       z     vdW  Elec       q    Type
REMARK                         _______ _______ _______ _____ _____    ______ ____
ROOT
ATOM      1  S   UNL     1       4.981   3.313  16.379  0.00  0.00    +0.000 S 
ATOM      2  C   UNL     1       4.271   4.012  17.718  0.00  0.00    +0.000 C 
ATOM      3  C   UNL     1       2.991   3.535  18.302  0.00  0.00    +0.000 A 
ATOM      4  C   UNL     1       2.122   2.532  17.896  0.00  0.00    +0.000 A 
ATOM      5  C   UNL     1       0.985   2.287  18.671  0.00  0.00    +0.000 A 
ATOM      6  C   UNL     1       0.730   3.040  19.829  0.00  0.00    +0.000 A 
ATOM      7  C   UNL     1       1.611   4.046  20.228  0.00  0.00    +0.000 A 
ATOM      8  C   UNL     1       2.739   4.275  19.454  0.00  0.00    +0.000 A 
ATOM      9  C   UNL     1       3.835   5.249  19.692  0.00  0.00    +0.000 C 
ATOM     10  N   UNL     1       4.736   5.048  18.559  0.00  0.00    +0.000 N 
ENDROOT
BRANCH  10  11
ATOM     11  C   UNL     1       5.856   5.917  18.409  0.00  0.00    +0.000 A 
ATOM     12  C   UNL     1       5.823   6.936  17.440  0.00  0.00    +0.000 A 
ATOM     13  C   UNL     1       6.923   7.768  17.212  0.00  0.00    +0.000 A 
ATOM     14  C   UNL     1       8.090   7.589  17.943  0.00  0.00    +0.000 A 
ATOM     15  C   UNL     1       8.145   6.590  18.911  0.00  0.00    +0.000 A 
ATOM     16  C   UNL     1       7.037   5.763  19.142  0.00  0.00    +0.000 A 
ENDBRANCH  10  11
TORSDOF 1
ENDMDL
