MODEL 1
REMARK VINA RESULT:      -6.9      0.000      0.000
REMARK  Name = 
REMARK  14 active torsions:
REMARK  status: ('A' for Active; 'I' for Inactive)
REMARK    1  A    between atoms: C_1  and  C_2
REMARK    2  A    between atoms: C_2  and  C_3
REMARK    3  A    between atoms: C_3  and  C_4
REMARK    4  A    between atoms: C_4  and  C_5
REMARK    5  A    between atoms: C_5  and  O_6
REMARK    6  A    between atoms: O_6  and  C_7
REMARK    7  A    between atoms: C_9  and  O_10
REMARK    8  A    between atoms: O_10  and  C_11
REMARK    9  A    between atoms: C_12  and  N_13
REMARK   10  A    between atoms: N_16  and  C_17
REMARK   11  A    between atoms: C_17  and  C_18
REMARK   12  A    between atoms: C_17  and  C_19
REMARK   13  A    between atoms: C_25  and  O_26
REMARK   14  A    between atoms: O_26  and  C_27
REMARK                            x       y       z     vdW  Elec       q    Type
REMARK                         _______ _______ _______ _____ _____    ______ ____
ROOT
ATOM      1  C   UNL     1       7.664   7.509  17.484  0.00  0.00    +0.000 A 
ATOM      2  C   UNL     1       7.853   6.879  18.707  0.00  0.00    +0.000 A 
ATOM      3  C   UNL     1       7.238   5.682  19.065  0.00  0.00    +0.000 A 
ATOM      4  C   UNL     1       6.414   5.049  18.122  0.00  0.00    +0.000 A 
ATOM      5  C   UNL     1       6.302   5.612  16.820  0.00  0.00    +0.000 A 
ATOM      6  C   UNL     1       6.896   6.858  16.522  0.00  0.00    +0.000 A 
ENDROOT
BRANCH   4   7
ATOM      7  N   UNL     1       5.664   3.891  18.446  0.00  0.00    +0.000 N 
ATOM      8  C   UNL     1       4.383   3.853  18.945  0.00  0.00    +0.000 C 
ATOM      9  O   UNL     1       3.874   2.802  19.282  0.00  0.00    +0.000 OA
ATOM     10  N   UNL     1       3.787   5.076  19.116  0.00  0.00    +0.000 N 
ATOM     11  H   UNL     1       6.171   3.028  18.598  0.00  0.00    +0.000 HD
ATOM     12  H   UNL     1       4.099   5.779  18.476  0.00  0.00    +0.000 HD
BRANCH  10  13
ATOM     13  C   UNL     1       2.457   5.220  19.694  0.00  0.00    +0.000 C 
ATOM     14  C   UNL     1       2.414   4.643  21.115  0.00  0.00    +0.000 C 
BRANCH  13  15
ATOM     15  C   UNL     1       2.009   6.665  19.689  0.00  0.00    +0.000 A 
ATOM     16  C   UNL     1       1.405   7.202  20.833  0.00  0.00    +0.000 A 
ATOM     17  C   UNL     1       0.973   8.528  20.852  0.00  0.00    +0.000 A 
ATOM     18  C   UNL     1       1.140   9.333  19.727  0.00  0.00    +0.000 A 
ATOM     19  C   UNL     1       1.754   8.817  18.588  0.00  0.00    +0.000 A 
ATOM     20  C   UNL     1       2.188   7.491  18.569  0.00  0.00    +0.000 A 
ENDBRANCH  13  15
ENDBRANCH  10  13
ENDBRANCH   4   7
BRANCH   3  21
ATOM     21  O   UNL     1       7.468   5.154  20.314  0.00  0.00    +0.000 OA
ATOM     22  C   UNL     1       8.861   5.020  20.669  0.00  0.00    +0.000 C 
ENDBRANCH   3  21
BRANCH   5  23
ATOM     23  O   UNL     1       5.690   4.825  15.874  0.00  0.00    +0.000 OA
ATOM     24  C   UNL     1       6.520   4.212  14.896  0.00  0.00    +0.000 C 
ENDBRANCH   5  23
BRANCH   1  25
ATOM     25  O   UNL     1       8.244   8.726  17.201  0.00  0.00    +0.000 OA
BRANCH  25  26
ATOM     26  C   UNL     1       8.677   9.458  18.370  0.00  0.00    +0.000 C 
BRANCH  26  27
ATOM     27  C   UNL     1       8.858  10.937  18.066  0.00  0.00    +0.000 C 
BRANCH  27  28
ATOM     28  C   UNL     1      10.345  11.272  17.887  0.00  0.00    +0.000 C 
BRANCH  28  30
ATOM     29  C   UNL     1      11.692  11.924  19.915  0.00  0.00    +0.000 C 
ATOM     30  C   UNL     1      10.767  12.412  18.811  0.00  0.00    +0.000 C 
ENDBRANCH  28  30
ENDBRANCH  27  28
ENDBRANCH  26  27
ENDBRANCH  25  26
ENDBRANCH   1  25
TORSDOF 10
ENDMDL
MODEL 2
REMARK VINA RESULT:      -6.8      7.806     11.150
REMARK  Name = 
REMARK  14 active torsions:
REMARK  status: ('A' for Active; 'I' for Inactive)
REMARK    1  A    between atoms: C_1  and  C_2
REMARK    2  A    between atoms: C_2  and  C_3
REMARK    3  A    between atoms: C_3  and  C_4
REMARK    4  A    between atoms: C_4  and  C_5
REMARK    5  A    between atoms: C_5  and  O_6
REMARK    6  A    between atoms: O_6  and  C_7
REMARK    7  A    between atoms: C_9  and  O_10
REMARK    8  A    between atoms: O_10  and  C_11
REMARK    9  A    between atoms: C_12  and  N_13
REMARK   10  A    between atoms: N_16  and  C_17
REMARK   11  A    between atoms: C_17  and  C_18
REMARK   12  A    between atoms: C_17  and  C_19
REMARK   13  A    between atoms: C_25  and  O_26
REMARK   14  A    between atoms: O_26  and  C_27
REMARK                            x       y       z     vdW  Elec       q    Type
REMARK                         _______ _______ _______ _____ _____    ______ ____
ROOT
ATOM      1  C   UNL     1      -0.669  10.361  18.692  0.00  0.00    +0.000 A 
ATOM      2  C   UNL     1      -1.332  11.350  19.408  0.00  0.00    +0.000 A 
ATOM      3  C   UNL     1      -2.527  11.933  18.998  0.00  0.00    +0.000 A 
ATOM      4  C   UNL     1      -3.125  11.467  17.817  0.00  0.00    +0.000 A 
ATOM      5  C   UNL     1      -2.528  10.372  17.132  0.00  0.00    +0.000 A 
ATOM      6  C   UNL     1      -1.284   9.852  17.552  0.00  0.00    +0.000 A 
ENDROOT
BRANCH   4   7
ATOM      7  N   UNL     1      -4.280  12.083  17.273  0.00  0.00    +0.000 N 
ATOM      8  C   UNL     1      -5.555  12.037  17.786  0.00  0.00    +0.000 C 
ATOM      9  O   UNL     1      -6.490  12.521  17.178  0.00  0.00    +0.000 OA
ATOM     10  N   UNL     1      -5.690  11.336  18.955  0.00  0.00    +0.000 N 
ATOM     11  H   UNL     1      -4.258  12.347  16.296  0.00  0.00    +0.000 HD
ATOM     12  H   UNL     1      -4.873  11.339  19.534  0.00  0.00    +0.000 HD
BRANCH  10  13
ATOM     13  C   UNL     1      -6.981  11.135  19.599  0.00  0.00    +0.000 C 
ATOM     14  C   UNL     1      -7.222   9.648  19.890  0.00  0.00    +0.000 C 
BRANCH  13  15
ATOM     15  C   UNL     1      -7.097  11.953  20.867  0.00  0.00    +0.000 A 
ATOM     16  C   UNL     1      -7.761  11.414  21.975  0.00  0.00    +0.000 A 
ATOM     17  C   UNL     1      -7.892  12.151  23.152  0.00  0.00    +0.000 A 
ATOM     18  C   UNL     1      -7.359  13.436  23.235  0.00  0.00    +0.000 A 
ATOM     19  C   UNL     1      -6.682  13.979  22.145  0.00  0.00    +0.000 A 
ATOM     20  C   UNL     1      -6.550  13.242  20.967  0.00  0.00    +0.000 A 
ENDBRANCH  13  15
ENDBRANCH  10  13
ENDBRANCH   4   7
BRANCH   3  21
ATOM     21  O   UNL     1      -3.090  12.927  19.765  0.00  0.00    +0.000 OA
ATOM     22  C   UNL     1      -2.147  13.714  20.525  0.00  0.00    +0.000 C 
ENDBRANCH   3  21
BRANCH   5  23
ATOM     23  O   UNL     1      -3.282   9.803  16.133  0.00  0.00    +0.000 OA
ATOM     24  C   UNL     1      -2.971  10.161  14.793  0.00  0.00    +0.000 C 
ENDBRANCH   5  23
BRANCH   1  25
ATOM     25  O   UNL     1       0.546   9.860  19.107  0.00  0.00    +0.000 OA
BRANCH  25  26
ATOM     26  C   UNL     1       0.745   9.909  20.538  0.00  0.00    +0.000 C 
BRANCH  26  27
ATOM     27  C   UNL     1       0.122   8.707  21.229  0.00  0.00    +0.000 C 
BRANCH  27  28
ATOM     28  C   UNL     1      -0.491   9.117  22.575  0.00  0.00    +0.000 C 
BRANCH  28  30
ATOM     29  C   UNL     1      -1.700  11.250  23.161  0.00  0.00    +0.000 C 
ATOM     30  C   UNL     1      -0.362  10.622  22.802  0.00  0.00    +0.000 C 
ENDBRANCH  28  30
ENDBRANCH  27  28
ENDBRANCH  26  27
ENDBRANCH  25  26
ENDBRANCH   1  25
TORSDOF 10
ENDMDL
MODEL 3
REMARK VINA RESULT:      -6.7      0.643      1.139
REMARK  Name = 
REMARK  14 active torsions:
REMARK  status: ('A' for Active; 'I' for Inactive)
REMARK    1  A    between atoms: C_1  and  C_2
REMARK    2  A    between atoms: C_2  and  C_3
REMARK    3  A    between atoms: C_3  and  C_4
REMARK    4  A    between atoms: C_4  and  C_5
REMARK    5  A    between atoms: C_5  and  O_6
REMARK    6  A    between atoms: O_6  and  C_7
REMARK    7  A    between atoms: C_9  and  O_10
REMARK    8  A    between atoms: O_10  and  C_11
REMARK    9  A    between atoms: C_12  and  N_13
REMARK   10  A    between atoms: N_16  and  C_17
REMARK   11  A    between atoms: C_17  and  C_18
REMARK   12  A    between atoms: C_17  and  C_19
REMARK   13  A    between atoms: C_25  and  O_26
REMARK   14  A    between atoms: O_26  and  C_27
REMARK                            x       y       z     vdW  Elec       q    Type
REMARK                         _______ _______ _______ _____ _____    ______ ____
ROOT
ATOM      1  C   UNL     1       7.655   7.558  17.416  0.00  0.00    +0.000 A 
ATOM      2  C   UNL     1       7.805   6.884  18.621  0.00  0.00    +0.000 A 
ATOM      3  C   UNL     1       7.161   5.688  18.924  0.00  0.00    +0.000 A 
ATOM      4  C   UNL     1       6.347   5.104  17.942  0.00  0.00    +0.000 A 
ATOM      5  C   UNL     1       6.273   5.713  16.659  0.00  0.00    +0.000 A 
ATOM      6  C   UNL     1       6.897   6.957  16.416  0.00  0.00    +0.000 A 
ENDROOT
BRANCH   4   7
ATOM      7  N   UNL     1       5.568   3.949  18.210  0.00  0.00    +0.000 N 
ATOM      8  C   UNL     1       4.298   3.918  18.735  0.00  0.00    +0.000 C 
ATOM      9  O   UNL     1       3.764   2.863  19.017  0.00  0.00    +0.000 OA
ATOM     10  N   UNL     1       3.744   5.144  18.998  0.00  0.00    +0.000 N 
ATOM     11  H   UNL     1       6.051   3.064  18.295  0.00  0.00    +0.000 HD
ATOM     12  H   UNL     1       4.063   5.877  18.396  0.00  0.00    +0.000 HD
BRANCH  10  13
ATOM     13  C   UNL     1       2.432   5.290  19.615  0.00  0.00    +0.000 C 
ATOM     14  C   UNL     1       2.426   4.701  21.031  0.00  0.00    +0.000 C 
BRANCH  13  15
ATOM     15  C   UNL     1       1.992   6.738  19.636  0.00  0.00    +0.000 A 
ATOM     16  C   UNL     1       2.187   7.532  18.499  0.00  0.00    +0.000 A 
ATOM     17  C   UNL     1       1.801   8.873  18.495  0.00  0.00    +0.000 A 
ATOM     18  C   UNL     1       1.217   9.435  19.628  0.00  0.00    +0.000 A 
ATOM     19  C   UNL     1       1.003   8.653  20.761  0.00  0.00    +0.000 A 
ATOM     20  C   UNL     1       1.388   7.311  20.765  0.00  0.00    +0.000 A 
ENDBRANCH  13  15
ENDBRANCH  10  13
ENDBRANCH   4   7
BRANCH   3  21
ATOM     21  O   UNL     1       7.353   5.113  20.159  0.00  0.00    +0.000 OA
ATOM     22  C   UNL     1       8.715   5.150  20.640  0.00  0.00    +0.000 C 
ENDBRANCH   3  21
BRANCH   5  23
ATOM     23  O   UNL     1       5.668   4.970  15.673  0.00  0.00    +0.000 OA
ATOM     24  C   UNL     1       6.512   4.314  14.736  0.00  0.00    +0.000 C 
ENDBRANCH   5  23
BRANCH   1  25
ATOM     25  O   UNL     1       8.264   8.773  17.188  0.00  0.00    +0.000 OA
BRANCH  25  26
ATOM     26  C   UNL     1       8.548   9.526  18.390  0.00  0.00    +0.000 C 
BRANCH  26  27
ATOM     27  C   UNL     1       9.058  10.921  18.067  0.00  0.00    +0.000 C 
BRANCH  27  28
ATOM     28  C   UNL     1      10.314  11.239  18.889  0.00  0.00    +0.000 C 
BRANCH  28  30
ATOM     29  C   UNL     1       9.318  12.459  20.857  0.00  0.00    +0.000 C 
ATOM     30  C   UNL     1      10.018  11.194  20.386  0.00  0.00    +0.000 C 
ENDBRANCH  28  30
ENDBRANCH  27  28
ENDBRANCH  26  27
ENDBRANCH  25  26
ENDBRANCH   1  25
TORSDOF 10
ENDMDL
MODEL 4
REMARK VINA RESULT:      -6.4      2.818      6.466
REMARK  Name = 
REMARK  14 active torsions:
REMARK  status: ('A' for Active; 'I' for Inactive)
REMARK    1  A    between atoms: C_1  and  C_2
REMARK    2  A    between atoms: C_2  and  C_3
REMARK    3  A    between atoms: C_3  and  C_4
REMARK    4  A    between atoms: C_4  and  C_5
REMARK    5  A    between atoms: C_5  and  O_6
REMARK    6  A    between atoms: O_6  and  C_7
REMARK    7  A    between atoms: C_9  and  O_10
REMARK    8  A    between atoms: O_10  and  C_11
REMARK    9  A    between atoms: C_12  and  N_13
REMARK   10  A    between atoms: N_16  and  C_17
REMARK   11  A    between atoms: C_17  and  C_18
REMARK   12  A    between atoms: C_17  and  C_19
REMARK   13  A    between atoms: C_25  and  O_26
REMARK   14  A    between atoms: O_26  and  C_27
REMARK                            x       y       z     vdW  Elec       q    Type
REMARK                         _______ _______ _______ _____ _____    ______ ____
ROOT
ATOM      1  C   UNL     1       6.190   4.417  13.994  0.00  0.00    +0.000 A 
ATOM      2  C   UNL     1       7.010   5.366  14.591  0.00  0.00    +0.000 A 
ATOM      3  C   UNL     1       7.162   5.501  15.968  0.00  0.00    +0.000 A 
ATOM      4  C   UNL     1       6.487   4.598  16.804  0.00  0.00    +0.000 A 
ATOM      5  C   UNL     1       5.739   3.543  16.212  0.00  0.00    +0.000 A 
ATOM      6  C   UNL     1       5.564   3.482  14.812  0.00  0.00    +0.000 A 
ENDROOT
BRANCH   4   7
ATOM      7  N   UNL     1       6.499   4.737  18.215  0.00  0.00    +0.000 N 
ATOM      8  C   UNL     1       5.458   5.157  19.009  0.00  0.00    +0.000 C 
ATOM      9  O   UNL     1       5.614   5.335  20.201  0.00  0.00    +0.000 OA
ATOM     10  N   UNL     1       4.295   5.444  18.343  0.00  0.00    +0.000 N 
ATOM     11  H   UNL     1       7.398   4.809  18.674  0.00  0.00    +0.000 HD
ATOM     12  H   UNL     1       4.157   4.913  17.506  0.00  0.00    +0.000 HD
BRANCH  10  13
ATOM     13  C   UNL     1       3.115   5.963  19.024  0.00  0.00    +0.000 C 
ATOM     14  C   UNL     1       2.259   6.805  18.070  0.00  0.00    +0.000 C 
BRANCH  13  15
ATOM     15  C   UNL     1       2.296   4.845  19.632  0.00  0.00    +0.000 A 
ATOM     16  C   UNL     1       2.410   4.575  21.001  0.00  0.00    +0.000 A 
ATOM     17  C   UNL     1       1.674   3.544  21.586  0.00  0.00    +0.000 A 
ATOM     18  C   UNL     1       0.817   2.770  20.807  0.00  0.00    +0.000 A 
ATOM     19  C   UNL     1       0.682   3.037  19.446  0.00  0.00    +0.000 A 
ATOM     20  C   UNL     1       1.416   4.069  18.861  0.00  0.00    +0.000 A 
ENDBRANCH  13  15
ENDBRANCH  10  13
ENDBRANCH   4   7
BRANCH   3  21
ATOM     21  O   UNL     1       7.976   6.494  16.462  0.00  0.00    +0.000 OA
ATOM     22  C   UNL     1       7.281   7.592  17.091  0.00  0.00    +0.000 C 
ENDBRANCH   3  21
BRANCH   5  23
ATOM     23  O   UNL     1       5.310   2.555  17.067  0.00  0.00    +0.000 OA
ATOM     24  C   UNL     1       3.908   2.350  17.179  0.00  0.00    +0.000 C 
ENDBRANCH   5  23
BRANCH   1  25
ATOM     25  O   UNL     1       6.022   4.365  12.627  0.00  0.00    +0.000 OA
BRANCH  25  26
ATOM     26  C   UNL     1       6.365   3.089  12.039  0.00  0.00    +0.000 C 
BRANCH  26  27
ATOM     27  C   UNL     1       5.159   2.433  11.387  0.00  0.00    +0.000 C 
BRANCH  27  28
ATOM     28  C   UNL     1       3.972   3.405  11.351  0.00  0.00    +0.000 C 
BRANCH  28  30
ATOM     29  C   UNL     1       2.803   4.441   9.372  0.00  0.00    +0.000 C 
ATOM     30  C   UNL     1       3.092   3.154  10.128  0.00  0.00    +0.000 C 
ENDBRANCH  28  30
ENDBRANCH  27  28
ENDBRANCH  26  27
ENDBRANCH  25  26
ENDBRANCH   1  25
TORSDOF 10
ENDMDL
MODEL 5
REMARK VINA RESULT:      -6.3      5.628      9.292
REMARK  Name = 
REMARK  14 active torsions:
REMARK  status: ('A' for Active; 'I' for Inactive)
REMARK    1  A    between atoms: C_1  and  C_2
REMARK    2  A    between atoms: C_2  and  C_3
REMARK    3  A    between atoms: C_3  and  C_4
REMARK    4  A    between atoms: C_4  and  C_5
REMARK    5  A    between atoms: C_5  and  O_6
REMARK    6  A    between atoms: O_6  and  C_7
REMARK    7  A    between atoms: C_9  and  O_10
REMARK    8  A    between atoms: O_10  and  C_11
REMARK    9  A    between atoms: C_12  and  N_13
REMARK   10  A    between atoms: N_16  and  C_17
REMARK   11  A    between atoms: C_17  and  C_18
REMARK   12  A    between atoms: C_17  and  C_19
REMARK   13  A    between atoms: C_25  and  O_26
REMARK   14  A    between atoms: O_26  and  C_27
REMARK                            x       y       z     vdW  Elec       q    Type
REMARK                         _______ _______ _______ _____ _____    ______ ____
ROOT
ATOM      1  C   UNL     1       1.078   7.938  20.998  0.00  0.00    +0.000 A 
ATOM      2  C   UNL     1       1.581   8.293  19.753  0.00  0.00    +0.000 A 
ATOM      3  C   UNL     1       1.466   9.568  19.206  0.00  0.00    +0.000 A 
ATOM      4  C   UNL     1       0.845  10.567  19.972  0.00  0.00    +0.000 A 
ATOM      5  C   UNL     1       0.430  10.258  21.297  0.00  0.00    +0.000 A 
ATOM      6  C   UNL     1       0.513   8.936  21.787  0.00  0.00    +0.000 A 
ENDROOT
BRANCH   4   7
ATOM      7  N   UNL     1       0.588  11.857  19.445  0.00  0.00    +0.000 N 
ATOM      8  C   UNL     1      -0.474  12.224  18.651  0.00  0.00    +0.000 C 
ATOM      9  O   UNL     1      -0.539  13.340  18.173  0.00  0.00    +0.000 OA
ATOM     10  N   UNL     1      -1.370  11.225  18.374  0.00  0.00    +0.000 N 
ATOM     11  H   UNL     1       1.360  12.510  19.397  0.00  0.00    +0.000 HD
ATOM     12  H   UNL     1      -1.444  10.528  19.089  0.00  0.00    +0.000 HD
BRANCH  10  13
ATOM     13  C   UNL     1      -2.515  11.426  17.496  0.00  0.00    +0.000 C 
ATOM     14  C   UNL     1      -2.616  10.298  16.462  0.00  0.00    +0.000 C 
BRANCH  13  15
ATOM     15  C   UNL     1      -3.800  11.544  18.288  0.00  0.00    +0.000 A 
ATOM     16  C   UNL     1      -4.953  10.900  17.824  0.00  0.00    +0.000 A 
ATOM     17  C   UNL     1      -6.154  11.000  18.528  0.00  0.00    +0.000 A 
ATOM     18  C   UNL     1      -6.214  11.746  19.703  0.00  0.00    +0.000 A 
ATOM     19  C   UNL     1      -5.070  12.379  20.184  0.00  0.00    +0.000 A 
ATOM     20  C   UNL     1      -3.869  12.278  19.481  0.00  0.00    +0.000 A 
ENDBRANCH  13  15
ENDBRANCH  10  13
ENDBRANCH   4   7
BRANCH   3  21
ATOM     21  O   UNL     1       1.974   9.811  17.952  0.00  0.00    +0.000 OA
ATOM     22  C   UNL     1       2.696   8.707  17.364  0.00  0.00    +0.000 C 
ENDBRANCH   3  21
BRANCH   5  23
ATOM     23  O   UNL     1       0.060  11.327  22.078  0.00  0.00    +0.000 OA
ATOM     24  C   UNL     1      -1.057  11.154  22.939  0.00  0.00    +0.000 C 
ENDBRANCH   5  23
BRANCH   1  25
ATOM     25  O   UNL     1       1.160   6.645  21.468  0.00  0.00    +0.000 OA
BRANCH  25  26
ATOM     26  C   UNL     1       1.844   5.736  20.576  0.00  0.00    +0.000 C 
BRANCH  26  27
ATOM     27  C   UNL     1       1.056   4.450  20.379  0.00  0.00    +0.000 C 
BRANCH  27  28
ATOM     28  C   UNL     1       1.959   3.228  20.595  0.00  0.00    +0.000 C 
BRANCH  28  30
ATOM     29  C   UNL     1       1.893   2.754  18.120  0.00  0.00    +0.000 C 
ATOM     30  C   UNL     1       1.724   2.174  19.515  0.00  0.00    +0.000 C 
ENDBRANCH  28  30
ENDBRANCH  27  28
ENDBRANCH  26  27
ENDBRANCH  25  26
ENDBRANCH   1  25
TORSDOF 10
ENDMDL
MODEL 6
REMARK VINA RESULT:      -6.2      0.865      1.339
REMARK  Name = 
REMARK  14 active torsions:
REMARK  status: ('A' for Active; 'I' for Inactive)
REMARK    1  A    between atoms: C_1  and  C_2
REMARK    2  A    between atoms: C_2  and  C_3
REMARK    3  A    between atoms: C_3  and  C_4
REMARK    4  A    between atoms: C_4  and  C_5
REMARK    5  A    between atoms: C_5  and  O_6
REMARK    6  A    between atoms: O_6  and  C_7
REMARK    7  A    between atoms: C_9  and  O_10
REMARK    8  A    between atoms: O_10  and  C_11
REMARK    9  A    between atoms: C_12  and  N_13
REMARK   10  A    between atoms: N_16  and  C_17
REMARK   11  A    between atoms: C_17  and  C_18
REMARK   12  A    between atoms: C_17  and  C_19
REMARK   13  A    between atoms: C_25  and  O_26
REMARK   14  A    between atoms: O_26  and  C_27
REMARK                            x       y       z     vdW  Elec       q    Type
REMARK                         _______ _______ _______ _____ _____    ______ ____
ROOT
ATOM      1  C   UNL     1       7.707   8.118  17.717  0.00  0.00    +0.000 A 
ATOM      2  C   UNL     1       8.211   7.095  18.509  0.00  0.00    +0.000 A 
ATOM      3  C   UNL     1       7.633   5.832  18.603  0.00  0.00    +0.000 A 
ATOM      4  C   UNL     1       6.503   5.558  17.818  0.00  0.00    +0.000 A 
ATOM      5  C   UNL     1       6.041   6.550  16.909  0.00  0.00    +0.000 A 
ATOM      6  C   UNL     1       6.622   7.837  16.892  0.00  0.00    +0.000 A 
ENDROOT
BRANCH   4   7
ATOM      7  N   UNL     1       5.790   4.339  17.939  0.00  0.00    +0.000 N 
ATOM      8  C   UNL     1       4.526   4.173  18.455  0.00  0.00    +0.000 C 
ATOM      9  O   UNL     1       4.052   3.063  18.602  0.00  0.00    +0.000 OA
ATOM     10  N   UNL     1       3.907   5.324  18.867  0.00  0.00    +0.000 N 
ATOM     11  H   UNL     1       6.321   3.477  17.914  0.00  0.00    +0.000 HD
ATOM     12  H   UNL     1       4.183   6.143  18.362  0.00  0.00    +0.000 HD
BRANCH  10  13
ATOM     13  C   UNL     1       2.593   5.320  19.496  0.00  0.00    +0.000 C 
ATOM     14  C   UNL     1       2.638   4.606  20.852  0.00  0.00    +0.000 C 
BRANCH  13  15
ATOM     15  C   UNL     1       2.052   6.726  19.649  0.00  0.00    +0.000 A 
ATOM     16  C   UNL     1       2.161   7.624  18.581  0.00  0.00    +0.000 A 
ATOM     17  C   UNL     1       1.682   8.929  18.699  0.00  0.00    +0.000 A 
ATOM     18  C   UNL     1       1.088   9.350  19.887  0.00  0.00    +0.000 A 
ATOM     19  C   UNL     1       0.959   8.462  20.952  0.00  0.00    +0.000 A 
ATOM     20  C   UNL     1       1.437   7.157  20.835  0.00  0.00    +0.000 A 
ENDBRANCH  13  15
ENDBRANCH  10  13
ENDBRANCH   4   7
BRANCH   3  21
ATOM     21  O   UNL     1       8.193   4.896  19.440  0.00  0.00    +0.000 OA
ATOM     22  C   UNL     1       8.412   5.346  20.795  0.00  0.00    +0.000 C 
ENDBRANCH   3  21
BRANCH   5  23
ATOM     23  O   UNL     1       5.095   6.140  15.999  0.00  0.00    +0.000 OA
ATOM     24  C   UNL     1       5.557   5.479  14.828  0.00  0.00    +0.000 C 
ENDBRANCH   5  23
BRANCH   1  25
ATOM     25  O   UNL     1       8.278   9.373  17.707  0.00  0.00    +0.000 OA
BRANCH  25  26
ATOM     26  C   UNL     1       9.156   9.629  18.827  0.00  0.00    +0.000 C 
BRANCH  26  27
ATOM     27  C   UNL     1       9.098  11.085  19.259  0.00  0.00    +0.000 C 
BRANCH  27  28
ATOM     28  C   UNL     1       9.496  12.008  18.099  0.00  0.00    +0.000 C 
BRANCH  28  30
ATOM     29  C   UNL     1      11.420  13.069  16.864  0.00  0.00    +0.000 C 
ATOM     30  C   UNL     1      11.010  12.197  18.041  0.00  0.00    +0.000 C 
ENDBRANCH  28  30
ENDBRANCH  27  28
ENDBRANCH  26  27
ENDBRANCH  25  26
ENDBRANCH   1  25
TORSDOF 10
ENDMDL
MODEL 7
REMARK VINA RESULT:      -6.2      1.779      2.603
REMARK  Name = 
REMARK  14 active torsions:
REMARK  status: ('A' for Active; 'I' for Inactive)
REMARK    1  A    between atoms: C_1  and  C_2
REMARK    2  A    between atoms: C_2  and  C_3
REMARK    3  A    between atoms: C_3  and  C_4
REMARK    4  A    between atoms: C_4  and  C_5
REMARK    5  A    between atoms: C_5  and  O_6
REMARK    6  A    between atoms: O_6  and  C_7
REMARK    7  A    between atoms: C_9  and  O_10
REMARK    8  A    between atoms: O_10  and  C_11
REMARK    9  A    between atoms: C_12  and  N_13
REMARK   10  A    between atoms: N_16  and  C_17
REMARK   11  A    between atoms: C_17  and  C_18
REMARK   12  A    between atoms: C_17  and  C_19
REMARK   13  A    between atoms: C_25  and  O_26
REMARK   14  A    between atoms: O_26  and  C_27
REMARK                            x       y       z     vdW  Elec       q    Type
REMARK                         _______ _______ _______ _____ _____    ______ ____
ROOT
ATOM      1  C   UNL     1       7.807   7.892  17.706  0.00  0.00    +0.000 A 
ATOM      2  C   UNL     1       7.870   6.994  18.764  0.00  0.00    +0.000 A 
ATOM      3  C   UNL     1       7.265   5.741  18.754  0.00  0.00    +0.000 A 
ATOM      4  C   UNL     1       6.591   5.338  17.591  0.00  0.00    +0.000 A 
ATOM      5  C   UNL     1       6.616   6.189  16.452  0.00  0.00    +0.000 A 
ATOM      6  C   UNL     1       7.191   7.477  16.529  0.00  0.00    +0.000 A 
ENDROOT
BRANCH   4   7
ATOM      7  N   UNL     1       5.855   4.127  17.539  0.00  0.00    +0.000 N 
ATOM      8  C   UNL     1       4.503   3.977  17.745  0.00  0.00    +0.000 C 
ATOM      9  O   UNL     1       3.995   2.873  17.775  0.00  0.00    +0.000 OA
ATOM     10  N   UNL     1       3.819   5.136  18.004  0.00  0.00    +0.000 N 
ATOM     11  H   UNL     1       6.366   3.259  17.636  0.00  0.00    +0.000 HD
ATOM     12  H   UNL     1       4.215   5.951  17.580  0.00  0.00    +0.000 HD
BRANCH  10  13
ATOM     13  C   UNL     1       2.394   5.148  18.308  0.00  0.00    +0.000 C 
ATOM     14  C   UNL     1       1.571   4.720  17.087  0.00  0.00    +0.000 C 
BRANCH  13  15
ATOM     15  C   UNL     1       2.079   4.270  19.501  0.00  0.00    +0.000 A 
ATOM     16  C   UNL     1       2.656   4.565  20.742  0.00  0.00    +0.000 A 
ATOM     17  C   UNL     1       2.391   3.766  21.855  0.00  0.00    +0.000 A 
ATOM     18  C   UNL     1       1.548   2.663  21.739  0.00  0.00    +0.000 A 
ATOM     19  C   UNL     1       0.955   2.368  20.513  0.00  0.00    +0.000 A 
ATOM     20  C   UNL     1       1.218   3.167  19.400  0.00  0.00    +0.000 A 
ENDBRANCH  13  15
ENDBRANCH  10  13
ENDBRANCH   4   7
BRANCH   3  21
ATOM     21  O   UNL     1       7.362   4.937  19.865  0.00  0.00    +0.000 OA
ATOM     22  C   UNL     1       8.498   5.209  20.715  0.00  0.00    +0.000 C 
ENDBRANCH   3  21
BRANCH   5  23
ATOM     23  O   UNL     1       6.158   5.639  15.278  0.00  0.00    +0.000 OA
ATOM     24  C   UNL     1       7.088   4.905  14.492  0.00  0.00    +0.000 C 
ENDBRANCH   5  23
BRANCH   1  25
ATOM     25  O   UNL     1       8.367   9.148  17.789  0.00  0.00    +0.000 OA
BRANCH  25  26
ATOM     26  C   UNL     1       8.965   9.442  19.073  0.00  0.00    +0.000 C 
BRANCH  26  27
ATOM     27  C   UNL     1       9.495  10.866  19.127  0.00  0.00    +0.000 C 
BRANCH  27  28
ATOM     28  C   UNL     1      10.166  11.242  17.799  0.00  0.00    +0.000 C 
BRANCH  28  30
ATOM     29  C   UNL     1      11.618  12.768  19.183  0.00  0.00    +0.000 C 
ATOM     30  C   UNL     1      11.576  11.780  18.028  0.00  0.00    +0.000 C 
ENDBRANCH  28  30
ENDBRANCH  27  28
ENDBRANCH  26  27
ENDBRANCH  25  26
ENDBRANCH   1  25
TORSDOF 10
ENDMDL
MODEL 8
REMARK VINA RESULT:      -6.1      0.867      2.645
REMARK  Name = 
REMARK  14 active torsions:
REMARK  status: ('A' for Active; 'I' for Inactive)
REMARK    1  A    between atoms: C_1  and  C_2
REMARK    2  A    between atoms: C_2  and  C_3
REMARK    3  A    between atoms: C_3  and  C_4
REMARK    4  A    between atoms: C_4  and  C_5
REMARK    5  A    between atoms: C_5  and  O_6
REMARK    6  A    between atoms: O_6  and  C_7
REMARK    7  A    between atoms: C_9  and  O_10
REMARK    8  A    between atoms: O_10  and  C_11
REMARK    9  A    between atoms: C_12  and  N_13
REMARK   10  A    between atoms: N_16  and  C_17
REMARK   11  A    between atoms: C_17  and  C_18
REMARK   12  A    between atoms: C_17  and  C_19
REMARK   13  A    between atoms: C_25  and  O_26
REMARK   14  A    between atoms: O_26  and  C_27
REMARK                            x       y       z     vdW  Elec       q    Type
REMARK                         _______ _______ _______ _____ _____    ______ ____
ROOT
ATOM      1  C   UNL     1       7.912   7.852  17.680  0.00  0.00    +0.000 A 
ATOM      2  C   UNL     1       6.822   7.452  16.918  0.00  0.00    +0.000 A 
ATOM      3  C   UNL     1       6.088   6.296  17.163  0.00  0.00    +0.000 A 
ATOM      4  C   UNL     1       6.437   5.510  18.272  0.00  0.00    +0.000 A 
ATOM      5  C   UNL     1       7.471   5.963  19.138  0.00  0.00    +0.000 A 
ATOM      6  C   UNL     1       8.227   7.111  18.815  0.00  0.00    +0.000 A 
ENDROOT
BRANCH   4   7
ATOM      7  N   UNL     1       5.814   4.262  18.526  0.00  0.00    +0.000 N 
ATOM      8  C   UNL     1       4.547   4.061  19.023  0.00  0.00    +0.000 C 
ATOM      9  O   UNL     1       4.153   2.944  19.296  0.00  0.00    +0.000 OA
ATOM     10  N   UNL     1       3.828   5.202  19.269  0.00  0.00    +0.000 N 
ATOM     11  H   UNL     1       6.408   3.448  18.625  0.00  0.00    +0.000 HD
ATOM     12  H   UNL     1       4.060   5.971  18.672  0.00  0.00    +0.000 HD
BRANCH  10  13
ATOM     13  C   UNL     1       2.495   5.171  19.856  0.00  0.00    +0.000 C 
ATOM     14  C   UNL     1       2.511   4.450  21.209  0.00  0.00    +0.000 C 
BRANCH  13  15
ATOM     15  C   UNL     1       1.926   6.566  20.000  0.00  0.00    +0.000 A 
ATOM     16  C   UNL     1       2.166   7.513  18.998  0.00  0.00    +0.000 A 
ATOM     17  C   UNL     1       1.663   8.810  19.110  0.00  0.00    +0.000 A 
ATOM     18  C   UNL     1       0.913   9.173  20.227  0.00  0.00    +0.000 A 
ATOM     19  C   UNL     1       0.653   8.236  21.224  0.00  0.00    +0.000 A 
ATOM     20  C   UNL     1       1.155   6.940  21.112  0.00  0.00    +0.000 A 
ENDBRANCH  13  15
ENDBRANCH  10  13
ENDBRANCH   4   7
BRANCH   3  21
ATOM     21  O   UNL     1       5.042   5.972  16.331  0.00  0.00    +0.000 OA
ATOM     22  C   UNL     1       5.426   5.327  15.097  0.00  0.00    +0.000 C 
ENDBRANCH   3  21
BRANCH   5  23
ATOM     23  O   UNL     1       7.598   5.288  20.329  0.00  0.00    +0.000 OA
ATOM     24  C   UNL     1       8.906   4.888  20.717  0.00  0.00    +0.000 C 
ENDBRANCH   5  23
BRANCH   1  25
ATOM     25  O   UNL     1       8.647   8.972  17.358  0.00  0.00    +0.000 OA
BRANCH  25  26
ATOM     26  C   UNL     1       8.810   9.905  18.451  0.00  0.00    +0.000 C 
BRANCH  26  27
ATOM     27  C   UNL     1       9.741  11.047  18.076  0.00  0.00    +0.000 C 
BRANCH  27  28
ATOM     28  C   UNL     1       9.079  12.400  18.367  0.00  0.00    +0.000 C 
BRANCH  28  30
ATOM     29  C   UNL     1      11.104  13.042  17.011  0.00  0.00    +0.000 C 
ATOM     30  C   UNL     1       9.893  13.549  17.778  0.00  0.00    +0.000 C 
ENDBRANCH  28  30
ENDBRANCH  27  28
ENDBRANCH  26  27
ENDBRANCH  25  26
ENDBRANCH   1  25
TORSDOF 10
ENDMDL
MODEL 9
REMARK VINA RESULT:      -6.1      5.709      9.412
REMARK  Name = 
REMARK  14 active torsions:
REMARK  status: ('A' for Active; 'I' for Inactive)
REMARK    1  A    between atoms: C_1  and  C_2
REMARK    2  A    between atoms: C_2  and  C_3
REMARK    3  A    between atoms: C_3  and  C_4
REMARK    4  A    between atoms: C_4  and  C_5
REMARK    5  A    between atoms: C_5  and  O_6
REMARK    6  A    between atoms: O_6  and  C_7
REMARK    7  A    between atoms: C_9  and  O_10
REMARK    8  A    between atoms: O_10  and  C_11
REMARK    9  A    between atoms: C_12  and  N_13
REMARK   10  A    between atoms: N_16  and  C_17
REMARK   11  A    between atoms: C_17  and  C_18
REMARK   12  A    between atoms: C_17  and  C_19
REMARK   13  A    between atoms: C_25  and  O_26
REMARK   14  A    between atoms: O_26  and  C_27
REMARK                            x       y       z     vdW  Elec       q    Type
REMARK                         _______ _______ _______ _____ _____    ______ ____
ROOT
ATOM      1  C   UNL     1       1.273   8.978  19.072  0.00  0.00    +0.000 A 
ATOM      2  C   UNL     1       1.394   9.013  20.455  0.00  0.00    +0.000 A 
ATOM      3  C   UNL     1       0.881  10.032  21.252  0.00  0.00    +0.000 A 
ATOM      4  C   UNL     1       0.161  11.064  20.630  0.00  0.00    +0.000 A 
ATOM      5  C   UNL     1      -0.080  10.987  19.230  0.00  0.00    +0.000 A 
ATOM      6  C   UNL     1       0.510   9.965  18.454  0.00  0.00    +0.000 A 
ENDROOT
BRANCH   4   7
ATOM      7  N   UNL     1      -0.295  12.194  21.354  0.00  0.00    +0.000 N 
ATOM      8  C   UNL     1       0.372  13.385  21.525  0.00  0.00    +0.000 C 
ATOM      9  O   UNL     1      -0.073  14.251  22.252  0.00  0.00    +0.000 OA
ATOM     10  N   UNL     1       1.592  13.466  20.905  0.00  0.00    +0.000 N 
ATOM     11  H   UNL     1      -1.030  12.054  22.035  0.00  0.00    +0.000 HD
ATOM     12  H   UNL     1       1.666  12.918  20.070  0.00  0.00    +0.000 HD
BRANCH  10  13
ATOM     13  C   UNL     1       2.458  14.630  21.037  0.00  0.00    +0.000 C 
ATOM     14  C   UNL     1       3.807  14.240  21.654  0.00  0.00    +0.000 C 
BRANCH  13  15
ATOM     15  C   UNL     1       2.658  15.321  19.705  0.00  0.00    +0.000 A 
ATOM     16  C   UNL     1       1.869  16.431  19.381  0.00  0.00    +0.000 A 
ATOM     17  C   UNL     1       2.025  17.080  18.156  0.00  0.00    +0.000 A 
ATOM     18  C   UNL     1       2.972  16.624  17.241  0.00  0.00    +0.000 A 
ATOM     19  C   UNL     1       3.774  15.531  17.556  0.00  0.00    +0.000 A 
ATOM     20  C   UNL     1       3.619  14.882  18.782  0.00  0.00    +0.000 A 
ENDBRANCH  13  15
ENDBRANCH  10  13
ENDBRANCH   4   7
BRANCH   3  21
ATOM     21  O   UNL     1       1.080   9.989  22.612  0.00  0.00    +0.000 OA
ATOM     22  C   UNL     1      -0.028   9.460  23.371  0.00  0.00    +0.000 C 
ENDBRANCH   3  21
BRANCH   5  23
ATOM     23  O   UNL     1      -0.992  11.883  18.725  0.00  0.00    +0.000 OA
ATOM     24  C   UNL     1      -0.482  13.010  18.025  0.00  0.00    +0.000 C 
ENDBRANCH   5  23
BRANCH   1  25
ATOM     25  O   UNL     1       1.853   7.979  18.320  0.00  0.00    +0.000 OA
BRANCH  25  26
ATOM     26  C   UNL     1       2.668   7.063  19.087  0.00  0.00    +0.000 C 
BRANCH  26  27
ATOM     27  C   UNL     1       2.137   5.641  19.005  0.00  0.00    +0.000 C 
BRANCH  27  28
ATOM     28  C   UNL     1       1.707   5.146  20.393  0.00  0.00    +0.000 C 
BRANCH  28  30
ATOM     29  C   UNL     1       1.507   2.870  21.458  0.00  0.00    +0.000 C 
ATOM     30  C   UNL     1       1.065   3.764  20.309  0.00  0.00    +0.000 C 
ENDBRANCH  28  30
ENDBRANCH  27  28
ENDBRANCH  26  27
ENDBRANCH  25  26
ENDBRANCH   1  25
TORSDOF 10
ENDMDL
