MODEL 1
REMARK VINA RESULT:      -7.6      0.000      0.000
REMARK  Name = 
REMARK  12 active torsions:
REMARK  status: ('A' for Active; 'I' for Inactive)
REMARK    1  A    between atoms: C_1  and  C_2
REMARK    2  A    between atoms: C_2  and  C_3
REMARK    3  A    between atoms: C_3  and  C_4
REMARK    4  A    between atoms: C_3  and  N_15
REMARK    5  A    between atoms: N_6  and  C_7
REMARK    6  A    between atoms: C_7  and  C_8
REMARK    7  A    between atoms: N_15  and  C_16
REMARK    8  A    between atoms: C_16  and  C_17
REMARK    9  A    between atoms: C_17  and  C_18
REMARK   10  A    between atoms: C_24  and  C_26
REMARK   11  A    between atoms: C_29  and  C_30
REMARK   12  A    between atoms: C_33  and  N_34
REMARK                            x       y       z     vdW  Elec       q    Type
REMARK                         _______ _______ _______ _____ _____    ______ ____
ROOT
ATOM      1  N   UNL     1       0.042  11.218  20.354  0.00  0.00    +0.000 N 
ATOM      2  C   UNL     1       0.606  12.497  20.640  0.00  0.00    +0.000 C 
ATOM      3  O   UNL     1       1.726  12.583  21.146  0.00  0.00    +0.000 OA
ENDROOT
BRANCH   2   4
ATOM      4  C   UNL     1      -0.078  13.732  20.269  0.00  0.00    +0.000 A 
ATOM      5  S   UNL     1      -1.389  14.376  21.149  0.00  0.00    +0.000 S 
ATOM      6  N   UNL     1      -1.578  15.754  20.260  0.00  0.00    +0.000 NA
ATOM      7  C   UNL     1      -0.568  15.844  19.380  0.00  0.00    +0.000 A 
ATOM      8  C   UNL     1       0.311  14.694  19.347  0.00  0.00    +0.000 A 
BRANCH   7   9
ATOM      9  C   UNL     1      -0.411  17.071  18.579  0.00  0.00    +0.000 C 
ATOM     10  N   UNL     1      -1.480  17.928  18.618  0.00  0.00    +0.000 N 
ATOM     11  O   UNL     1       0.598  17.354  17.936  0.00  0.00    +0.000 OA
ATOM     12  H   UNL     1      -2.272  17.705  19.209  0.00  0.00    +0.000 HD
ATOM     13  H   UNL     1      -1.410  18.826  18.164  0.00  0.00    +0.000 HD
ENDBRANCH   7   9
BRANCH   8  14
ATOM     14  N   UNL     1       1.393  14.577  18.535  0.00  0.00    +0.000 N 
ATOM     15  H   UNL     1       1.570  15.307  17.838  0.00  0.00    +0.000 HD
ATOM     16  H   UNL     1       2.261  14.184  18.905  0.00  0.00    +0.000 HD
ENDBRANCH   8  14
ENDBRANCH   2   4
BRANCH   1  17
ATOM     17  C   UNL     1       0.782   9.994  20.823  0.00  0.00    +0.000 C 
BRANCH  17  18
ATOM     18  C   UNL     1       1.548   9.269  19.674  0.00  0.00    +0.000 C 
ATOM     19  O   UNL     1       1.777   9.773  18.579  0.00  0.00    +0.000 OA
ATOM     20  N   UNL     1       1.939   7.974  19.983  0.00  0.00    +0.000 N 
ATOM     21  H   UNL     1       1.941   7.671  20.947  0.00  0.00    +0.000 HD
BRANCH  20  22
ATOM     22  C   UNL     1       2.610   7.125  19.020  0.00  0.00    +0.000 C 
BRANCH  22  23
ATOM     23  C   UNL     1       2.068   5.714  19.074  0.00  0.00    +0.000 A 
ATOM     24  C   UNL     1       1.567   5.196  20.280  0.00  0.00    +0.000 A 
ATOM     25  C   UNL     1       1.069   3.889  20.337  0.00  0.00    +0.000 A 
ATOM     26  C   UNL     1       1.085   3.096  19.197  0.00  0.00    +0.000 A 
ATOM     27  F   UNL     1       0.607   1.848  19.258  0.00  0.00    +0.000 F 
ATOM     28  C   UNL     1       1.583   3.586  17.999  0.00  0.00    +0.000 A 
ATOM     29  C   UNL     1       2.078   4.892  17.936  0.00  0.00    +0.000 A 
ENDBRANCH  22  23
ENDBRANCH  20  22
ENDBRANCH  17  18
BRANCH  17  31
ATOM     30  C   UNL     1      -0.419   9.444  23.077  0.00  0.00    +0.000 C 
ATOM     31  C   UNL     1      -0.115   9.030  21.644  0.00  0.00    +0.000 C 
ENDBRANCH  17  31
ENDBRANCH   1  17
BRANCH   1  32
ATOM     32  C   UNL     1      -1.267  11.098  19.672  0.00  0.00    +0.000 C 
BRANCH  32  33
ATOM     33  C   UNL     1      -1.549   9.904  18.751  0.00  0.00    +0.000 C 
BRANCH  33  34
ATOM     34  C   UNL     1      -2.442  10.256  17.574  0.00  0.00    +0.000 A 
ATOM     35  C   UNL     1      -3.547  11.098  17.759  0.00  0.00    +0.000 A 
ATOM     36  C   UNL     1      -4.350  11.480  16.679  0.00  0.00    +0.000 A 
ATOM     37  C   UNL     1      -4.056  11.027  15.394  0.00  0.00    +0.000 A 
ATOM     38  C   UNL     1      -2.964  10.183  15.194  0.00  0.00    +0.000 A 
ATOM     39  C   UNL     1      -2.163   9.799  16.275  0.00  0.00    +0.000 A 
ENDBRANCH  33  34
ENDBRANCH  32  33
ENDBRANCH   1  32
TORSDOF 11
ENDMDL
MODEL 2
REMARK VINA RESULT:      -7.2      4.716      9.582
REMARK  Name = 
REMARK  12 active torsions:
REMARK  status: ('A' for Active; 'I' for Inactive)
REMARK    1  A    between atoms: C_1  and  C_2
REMARK    2  A    between atoms: C_2  and  C_3
REMARK    3  A    between atoms: C_3  and  C_4
REMARK    4  A    between atoms: C_3  and  N_15
REMARK    5  A    between atoms: N_6  and  C_7
REMARK    6  A    between atoms: C_7  and  C_8
REMARK    7  A    between atoms: N_15  and  C_16
REMARK    8  A    between atoms: C_16  and  C_17
REMARK    9  A    between atoms: C_17  and  C_18
REMARK   10  A    between atoms: C_24  and  C_26
REMARK   11  A    between atoms: C_29  and  C_30
REMARK   12  A    between atoms: C_33  and  N_34
REMARK                            x       y       z     vdW  Elec       q    Type
REMARK                         _______ _______ _______ _____ _____    ______ ____
ROOT
ATOM      1  N   UNL     1       3.351   5.916  17.835  0.00  0.00    +0.000 N 
ATOM      2  C   UNL     1       4.664   6.471  17.771  0.00  0.00    +0.000 C 
ATOM      3  O   UNL     1       4.956   7.458  18.449  0.00  0.00    +0.000 OA
ENDROOT
BRANCH   2   4
ATOM      4  C   UNL     1       5.717   5.847  16.976  0.00  0.00    +0.000 A 
ATOM      5  S   UNL     1       6.778   4.663  17.594  0.00  0.00    +0.000 S 
ATOM      6  N   UNL     1       7.589   4.358  16.188  0.00  0.00    +0.000 NA
ATOM      7  C   UNL     1       6.985   5.019  15.187  0.00  0.00    +0.000 A 
ATOM      8  C   UNL     1       5.909   5.895  15.603  0.00  0.00    +0.000 A 
BRANCH   7   9
ATOM      9  C   UNL     1       7.413   4.780  13.798  0.00  0.00    +0.000 C 
ATOM     10  N   UNL     1       6.787   3.735  13.171  0.00  0.00    +0.000 N 
ATOM     11  O   UNL     1       8.245   5.461  13.202  0.00  0.00    +0.000 OA
ATOM     12  H   UNL     1       6.056   3.231  13.660  0.00  0.00    +0.000 HD
ATOM     13  H   UNL     1       6.967   3.565  12.193  0.00  0.00    +0.000 HD
ENDBRANCH   7   9
BRANCH   8  14
ATOM     14  N   UNL     1       5.166   6.653  14.756  0.00  0.00    +0.000 N 
ATOM     15  H   UNL     1       4.226   6.334  14.502  0.00  0.00    +0.000 HD
ATOM     16  H   UNL     1       5.221   7.672  14.811  0.00  0.00    +0.000 HD
ENDBRANCH   8  14
ENDBRANCH   2   4
BRANCH   1  17
ATOM     17  C   UNL     1       2.306   6.653  18.629  0.00  0.00    +0.000 C 
BRANCH  17  18
ATOM     18  C   UNL     1       2.091   8.118  18.139  0.00  0.00    +0.000 C 
ATOM     19  O   UNL     1       2.449   8.532  17.040  0.00  0.00    +0.000 OA
ATOM     20  N   UNL     1       1.472   8.941  19.068  0.00  0.00    +0.000 N 
ATOM     21  H   UNL     1       0.992   8.530  19.857  0.00  0.00    +0.000 HD
BRANCH  20  22
ATOM     22  C   UNL     1       1.242  10.349  18.814  0.00  0.00    +0.000 C 
BRANCH  22  23
ATOM     23  C   UNL     1      -0.230  10.627  18.609  0.00  0.00    +0.000 A 
ATOM     24  C   UNL     1      -0.878  11.605  19.383  0.00  0.00    +0.000 A 
ATOM     25  C   UNL     1      -2.242  11.863  19.202  0.00  0.00    +0.000 A 
ATOM     26  C   UNL     1      -2.961  11.139  18.261  0.00  0.00    +0.000 A 
ATOM     27  F   UNL     1      -4.263  11.391  18.092  0.00  0.00    +0.000 F 
ATOM     28  C   UNL     1      -2.341  10.164  17.492  0.00  0.00    +0.000 A 
ATOM     29  C   UNL     1      -0.979   9.904  17.667  0.00  0.00    +0.000 A 
ENDBRANCH  22  23
ENDBRANCH  20  22
ENDBRANCH  17  18
BRANCH  17  31
ATOM     30  C   UNL     1       1.311   6.331  21.023  0.00  0.00    +0.000 C 
ATOM     31  C   UNL     1       2.544   6.565  20.160  0.00  0.00    +0.000 C 
ENDBRANCH  17  31
ENDBRANCH   1  17
BRANCH   1  32
ATOM     32  C   UNL     1       3.008   4.683  17.091  0.00  0.00    +0.000 C 
BRANCH  32  33
ATOM     33  C   UNL     1       3.323   3.306  17.691  0.00  0.00    +0.000 C 
BRANCH  33  34
ATOM     34  C   UNL     1       2.625   3.059  19.016  0.00  0.00    +0.000 A 
ATOM     35  C   UNL     1       3.381   2.871  20.182  0.00  0.00    +0.000 A 
ATOM     36  C   UNL     1       2.761   2.697  21.424  0.00  0.00    +0.000 A 
ATOM     37  C   UNL     1       1.370   2.712  21.518  0.00  0.00    +0.000 A 
ATOM     38  C   UNL     1       0.603   2.891  20.367  0.00  0.00    +0.000 A 
ATOM     39  C   UNL     1       1.225   3.061  19.125  0.00  0.00    +0.000 A 
ENDBRANCH  33  34
ENDBRANCH  32  33
ENDBRANCH   1  32
TORSDOF 11
ENDMDL
MODEL 3
REMARK VINA RESULT:      -7.2      1.200      1.840
REMARK  Name = 
REMARK  12 active torsions:
REMARK  status: ('A' for Active; 'I' for Inactive)
REMARK    1  A    between atoms: C_1  and  C_2
REMARK    2  A    between atoms: C_2  and  C_3
REMARK    3  A    between atoms: C_3  and  C_4
REMARK    4  A    between atoms: C_3  and  N_15
REMARK    5  A    between atoms: N_6  and  C_7
REMARK    6  A    between atoms: C_7  and  C_8
REMARK    7  A    between atoms: N_15  and  C_16
REMARK    8  A    between atoms: C_16  and  C_17
REMARK    9  A    between atoms: C_17  and  C_18
REMARK   10  A    between atoms: C_24  and  C_26
REMARK   11  A    between atoms: C_29  and  C_30
REMARK   12  A    between atoms: C_33  and  N_34
REMARK                            x       y       z     vdW  Elec       q    Type
REMARK                         _______ _______ _______ _____ _____    ______ ____
ROOT
ATOM      1  N   UNL     1       0.482  11.591  19.366  0.00  0.00    +0.000 N 
ATOM      2  C   UNL     1       1.045  12.750  19.979  0.00  0.00    +0.000 C 
ATOM      3  O   UNL     1       1.921  12.635  20.838  0.00  0.00    +0.000 OA
ENDROOT
BRANCH   2   4
ATOM      4  C   UNL     1       0.669  14.095  19.555  0.00  0.00    +0.000 A 
ATOM      5  S   UNL     1      -0.716  14.905  20.133  0.00  0.00    +0.000 S 
ATOM      6  N   UNL     1      -0.464  16.333  19.344  0.00  0.00    +0.000 NA
ATOM      7  C   UNL     1       0.741  16.296  18.753  0.00  0.00    +0.000 A 
ATOM      8  C   UNL     1       1.420  15.020  18.844  0.00  0.00    +0.000 A 
BRANCH   7   9
ATOM      9  C   UNL     1       1.278  17.515  18.123  0.00  0.00    +0.000 C 
ATOM     10  N   UNL     1       0.485  18.625  18.242  0.00  0.00    +0.000 N 
ATOM     11  O   UNL     1       2.365  17.577  17.551  0.00  0.00    +0.000 OA
ATOM     12  H   UNL     1      -0.374  18.565  18.776  0.00  0.00    +0.000 HD
ATOM     13  H   UNL     1       0.826  19.514  17.910  0.00  0.00    +0.000 HD
ENDBRANCH   7   9
BRANCH   8  14
ATOM     14  N   UNL     1       2.645  14.763  18.319  0.00  0.00    +0.000 N 
ATOM     15  H   UNL     1       2.977  15.333  17.534  0.00  0.00    +0.000 HD
ATOM     16  H   UNL     1       3.410  14.484  18.936  0.00  0.00    +0.000 HD
ENDBRANCH   8  14
ENDBRANCH   2   4
BRANCH   1  17
ATOM     17  C   UNL     1       0.876  10.241  19.902  0.00  0.00    +0.000 C 
BRANCH  17  18
ATOM     18  C   UNL     1       1.585   9.348  18.837  0.00  0.00    +0.000 C 
ATOM     19  O   UNL     1       1.739   9.672  17.664  0.00  0.00    +0.000 OA
ATOM     20  N   UNL     1       2.018   8.122  19.323  0.00  0.00    +0.000 N 
ATOM     21  H   UNL     1       2.083   7.977  20.321  0.00  0.00    +0.000 HD
BRANCH  20  22
ATOM     22  C   UNL     1       2.645   7.135  18.468  0.00  0.00    +0.000 C 
BRANCH  22  23
ATOM     23  C   UNL     1       2.212   5.738  18.848  0.00  0.00    +0.000 A 
ATOM     24  C   UNL     1       2.024   4.762  17.854  0.00  0.00    +0.000 A 
ATOM     25  C   UNL     1       1.618   3.468  18.199  0.00  0.00    +0.000 A 
ATOM     26  C   UNL     1       1.385   3.151  19.530  0.00  0.00    +0.000 A 
ATOM     27  F   UNL     1       0.998   1.912  19.854  0.00  0.00    +0.000 F 
ATOM     28  C   UNL     1       1.557   4.102  20.526  0.00  0.00    +0.000 A 
ATOM     29  C   UNL     1       1.966   5.395  20.187  0.00  0.00    +0.000 A 
ENDBRANCH  22  23
ENDBRANCH  20  22
ENDBRANCH  17  18
BRANCH  17  31
ATOM     30  C   UNL     1      -0.094   9.175  22.081  0.00  0.00    +0.000 C 
ATOM     31  C   UNL     1      -0.296   9.510  20.609  0.00  0.00    +0.000 C 
ENDBRANCH  17  31
ENDBRANCH   1  17
BRANCH   1  32
ATOM     32  C   UNL     1      -0.513  11.713  18.276  0.00  0.00    +0.000 C 
BRANCH  32  33
ATOM     33  C   UNL     1      -1.653  10.693  18.155  0.00  0.00    +0.000 C 
BRANCH  33  34
ATOM     34  C   UNL     1      -3.030  11.331  18.169  0.00  0.00    +0.000 A 
ATOM     35  C   UNL     1      -3.841  11.275  17.027  0.00  0.00    +0.000 A 
ATOM     36  C   UNL     1      -5.135  11.807  17.034  0.00  0.00    +0.000 A 
ATOM     37  C   UNL     1      -5.639  12.402  18.190  0.00  0.00    +0.000 A 
ATOM     38  C   UNL     1      -4.843  12.472  19.333  0.00  0.00    +0.000 A 
ATOM     39  C   UNL     1      -3.548  11.942  19.323  0.00  0.00    +0.000 A 
ENDBRANCH  33  34
ENDBRANCH  32  33
ENDBRANCH   1  32
TORSDOF 11
ENDMDL
MODEL 4
REMARK VINA RESULT:      -7.2      1.204      1.495
REMARK  Name = 
REMARK  12 active torsions:
REMARK  status: ('A' for Active; 'I' for Inactive)
REMARK    1  A    between atoms: C_1  and  C_2
REMARK    2  A    between atoms: C_2  and  C_3
REMARK    3  A    between atoms: C_3  and  C_4
REMARK    4  A    between atoms: C_3  and  N_15
REMARK    5  A    between atoms: N_6  and  C_7
REMARK    6  A    between atoms: C_7  and  C_8
REMARK    7  A    between atoms: N_15  and  C_16
REMARK    8  A    between atoms: C_16  and  C_17
REMARK    9  A    between atoms: C_17  and  C_18
REMARK   10  A    between atoms: C_24  and  C_26
REMARK   11  A    between atoms: C_29  and  C_30
REMARK   12  A    between atoms: C_33  and  N_34
REMARK                            x       y       z     vdW  Elec       q    Type
REMARK                         _______ _______ _______ _____ _____    ______ ____
ROOT
ATOM      1  N   UNL     1       0.615  11.546  19.705  0.00  0.00    +0.000 N 
ATOM      2  C   UNL     1       1.254  12.613  20.405  0.00  0.00    +0.000 C 
ATOM      3  O   UNL     1       2.079  12.370  21.288  0.00  0.00    +0.000 OA
ENDROOT
BRANCH   2   4
ATOM      4  C   UNL     1       1.022  14.008  20.046  0.00  0.00    +0.000 A 
ATOM      5  S   UNL     1      -0.180  14.974  20.776  0.00  0.00    +0.000 S 
ATOM      6  N   UNL     1       0.182  16.381  19.991  0.00  0.00    +0.000 NA
ATOM      7  C   UNL     1       1.307  16.204  19.280  0.00  0.00    +0.000 A 
ATOM      8  C   UNL     1       1.815  14.848  19.279  0.00  0.00    +0.000 A 
BRANCH   7   9
ATOM      9  C   UNL     1       1.938  17.362  18.622  0.00  0.00    +0.000 C 
ATOM     10  N   UNL     1       1.064  18.267  18.080  0.00  0.00    +0.000 N 
ATOM     11  O   UNL     1       3.152  17.550  18.566  0.00  0.00    +0.000 OA
ATOM     12  H   UNL     1       0.067  18.124  18.198  0.00  0.00    +0.000 HD
ATOM     13  H   UNL     1       1.420  19.125  17.688  0.00  0.00    +0.000 HD
ENDBRANCH   7   9
BRANCH   8  14
ATOM     14  N   UNL     1       2.938  14.450  18.627  0.00  0.00    +0.000 N 
ATOM     15  H   UNL     1       2.847  13.829  17.818  0.00  0.00    +0.000 HD
ATOM     16  H   UNL     1       3.717  15.103  18.521  0.00  0.00    +0.000 HD
ENDBRANCH   8  14
ENDBRANCH   2   4
BRANCH   1  17
ATOM     17  C   UNL     1       0.861  10.138  20.176  0.00  0.00    +0.000 C 
BRANCH  17  18
ATOM     18  C   UNL     1       1.393   9.203  19.046  0.00  0.00    +0.000 C 
ATOM     19  O   UNL     1       1.096   9.323  17.861  0.00  0.00    +0.000 OA
ATOM     20  N   UNL     1       2.228   8.190  19.495  0.00  0.00    +0.000 N 
ATOM     21  H   UNL     1       2.631   8.250  20.420  0.00  0.00    +0.000 HD
BRANCH  20  22
ATOM     22  C   UNL     1       2.771   7.189  18.599  0.00  0.00    +0.000 C 
BRANCH  22  23
ATOM     23  C   UNL     1       2.202   5.823  18.906  0.00  0.00    +0.000 A 
ATOM     24  C   UNL     1       1.992   4.896  17.871  0.00  0.00    +0.000 A 
ATOM     25  C   UNL     1       1.461   3.632  18.148  0.00  0.00    +0.000 A 
ATOM     26  C   UNL     1       1.125   3.297  19.453  0.00  0.00    +0.000 A 
ATOM     27  F   UNL     1       0.618   2.086  19.711  0.00  0.00    +0.000 F 
ATOM     28  C   UNL     1       1.317   4.200  20.488  0.00  0.00    +0.000 A 
ATOM     29  C   UNL     1       1.851   5.463  20.217  0.00  0.00    +0.000 A 
ENDBRANCH  22  23
ENDBRANCH  20  22
ENDBRANCH  17  18
BRANCH  17  31
ATOM     30  C   UNL     1      -0.079   8.316  21.795  0.00  0.00    +0.000 C 
ATOM     31  C   UNL     1      -0.356   9.535  20.925  0.00  0.00    +0.000 C 
ENDBRANCH  17  31
ENDBRANCH   1  17
BRANCH   1  32
ATOM     32  C   UNL     1      -0.316  11.819  18.587  0.00  0.00    +0.000 C 
BRANCH  32  33
ATOM     33  C   UNL     1      -1.833  11.792  18.822  0.00  0.00    +0.000 C 
BRANCH  33  34
ATOM     34  C   UNL     1      -2.609  11.222  17.648  0.00  0.00    +0.000 A 
ATOM     35  C   UNL     1      -3.920  11.653  17.399  0.00  0.00    +0.000 A 
ATOM     36  C   UNL     1      -4.635  11.184  16.292  0.00  0.00    +0.000 A 
ATOM     37  C   UNL     1      -4.045  10.277  15.412  0.00  0.00    +0.000 A 
ATOM     38  C   UNL     1      -2.744   9.834  15.649  0.00  0.00    +0.000 A 
ATOM     39  C   UNL     1      -2.031  10.301  16.759  0.00  0.00    +0.000 A 
ENDBRANCH  33  34
ENDBRANCH  32  33
ENDBRANCH   1  32
TORSDOF 11
ENDMDL
MODEL 5
REMARK VINA RESULT:      -7.1      4.720      9.604
REMARK  Name = 
REMARK  12 active torsions:
REMARK  status: ('A' for Active; 'I' for Inactive)
REMARK    1  A    between atoms: C_1  and  C_2
REMARK    2  A    between atoms: C_2  and  C_3
REMARK    3  A    between atoms: C_3  and  C_4
REMARK    4  A    between atoms: C_3  and  N_15
REMARK    5  A    between atoms: N_6  and  C_7
REMARK    6  A    between atoms: C_7  and  C_8
REMARK    7  A    between atoms: N_15  and  C_16
REMARK    8  A    between atoms: C_16  and  C_17
REMARK    9  A    between atoms: C_17  and  C_18
REMARK   10  A    between atoms: C_24  and  C_26
REMARK   11  A    between atoms: C_29  and  C_30
REMARK   12  A    between atoms: C_33  and  N_34
REMARK                            x       y       z     vdW  Elec       q    Type
REMARK                         _______ _______ _______ _____ _____    ______ ____
ROOT
ATOM      1  N   UNL     1       3.360   5.930  17.830  0.00  0.00    +0.000 N 
ATOM      2  C   UNL     1       4.676   6.479  17.766  0.00  0.00    +0.000 C 
ATOM      3  O   UNL     1       4.972   7.461  18.448  0.00  0.00    +0.000 OA
ENDROOT
BRANCH   2   4
ATOM      4  C   UNL     1       5.725   5.852  16.968  0.00  0.00    +0.000 A 
ATOM      5  S   UNL     1       6.779   4.659  17.580  0.00  0.00    +0.000 S 
ATOM      6  N   UNL     1       7.587   4.357  16.173  0.00  0.00    +0.000 NA
ATOM      7  C   UNL     1       6.987   5.026  15.175  0.00  0.00    +0.000 A 
ATOM      8  C   UNL     1       5.916   5.906  15.595  0.00  0.00    +0.000 A 
BRANCH   7   9
ATOM      9  C   UNL     1       7.413   4.790  13.784  0.00  0.00    +0.000 C 
ATOM     10  N   UNL     1       6.784   3.749  13.154  0.00  0.00    +0.000 N 
ATOM     11  O   UNL     1       8.246   5.473  13.191  0.00  0.00    +0.000 OA
ATOM     12  H   UNL     1       6.053   3.245  13.642  0.00  0.00    +0.000 HD
ATOM     13  H   UNL     1       6.963   3.582  12.176  0.00  0.00    +0.000 HD
ENDBRANCH   7   9
BRANCH   8  14
ATOM     14  N   UNL     1       5.177   6.672  14.753  0.00  0.00    +0.000 N 
ATOM     15  H   UNL     1       4.920   7.621  15.043  0.00  0.00    +0.000 HD
ATOM     16  H   UNL     1       5.338   6.612  13.745  0.00  0.00    +0.000 HD
ENDBRANCH   8  14
ENDBRANCH   2   4
BRANCH   1  17
ATOM     17  C   UNL     1       2.319   6.669  18.628  0.00  0.00    +0.000 C 
BRANCH  17  18
ATOM     18  C   UNL     1       2.096   8.130  18.130  0.00  0.00    +0.000 C 
ATOM     19  O   UNL     1       2.457   8.542  17.032  0.00  0.00    +0.000 OA
ATOM     20  N   UNL     1       1.465   8.953  19.052  0.00  0.00    +0.000 N 
ATOM     21  H   UNL     1       0.983   8.541  19.839  0.00  0.00    +0.000 HD
BRANCH  20  22
ATOM     22  C   UNL     1       1.226  10.358  18.790  0.00  0.00    +0.000 C 
BRANCH  22  23
ATOM     23  C   UNL     1      -0.250  10.630  18.608  0.00  0.00    +0.000 A 
ATOM     24  C   UNL     1      -0.986   9.918  17.645  0.00  0.00    +0.000 A 
ATOM     25  C   UNL     1      -2.351  10.169  17.467  0.00  0.00    +0.000 A 
ATOM     26  C   UNL     1      -2.979  11.139  18.238  0.00  0.00    +0.000 A 
ATOM     27  F   UNL     1      -4.284  11.374  18.064  0.00  0.00    +0.000 F 
ATOM     28  C   UNL     1      -2.269  11.858  19.188  0.00  0.00    +0.000 A 
ATOM     29  C   UNL     1      -0.905  11.609  19.371  0.00  0.00    +0.000 A 
ENDBRANCH  22  23
ENDBRANCH  20  22
ENDBRANCH  17  18
BRANCH  17  31
ATOM     30  C   UNL     1       1.355   6.293  21.027  0.00  0.00    +0.000 C 
ATOM     31  C   UNL     1       2.569   6.592  20.157  0.00  0.00    +0.000 C 
ENDBRANCH  17  31
ENDBRANCH   1  17
BRANCH   1  32
ATOM     32  C   UNL     1       3.010   4.702  17.081  0.00  0.00    +0.000 C 
BRANCH  32  33
ATOM     33  C   UNL     1       3.290   3.321  17.689  0.00  0.00    +0.000 C 
BRANCH  33  34
ATOM     34  C   UNL     1       2.642   3.123  19.048  0.00  0.00    +0.000 A 
ATOM     35  C   UNL     1       1.246   3.083  19.159  0.00  0.00    +0.000 A 
ATOM     36  C   UNL     1       0.627   2.846  20.391  0.00  0.00    +0.000 A 
ATOM     37  C   UNL     1       1.400   2.641  21.533  0.00  0.00    +0.000 A 
ATOM     38  C   UNL     1       2.791   2.684  21.441  0.00  0.00    +0.000 A 
ATOM     39  C   UNL     1       3.408   2.925  20.208  0.00  0.00    +0.000 A 
ENDBRANCH  33  34
ENDBRANCH  32  33
ENDBRANCH   1  32
TORSDOF 11
ENDMDL
MODEL 6
REMARK VINA RESULT:      -7.1      0.813      1.278
REMARK  Name = 
REMARK  12 active torsions:
REMARK  status: ('A' for Active; 'I' for Inactive)
REMARK    1  A    between atoms: C_1  and  C_2
REMARK    2  A    between atoms: C_2  and  C_3
REMARK    3  A    between atoms: C_3  and  C_4
REMARK    4  A    between atoms: C_3  and  N_15
REMARK    5  A    between atoms: N_6  and  C_7
REMARK    6  A    between atoms: C_7  and  C_8
REMARK    7  A    between atoms: N_15  and  C_16
REMARK    8  A    between atoms: C_16  and  C_17
REMARK    9  A    between atoms: C_17  and  C_18
REMARK   10  A    between atoms: C_24  and  C_26
REMARK   11  A    between atoms: C_29  and  C_30
REMARK   12  A    between atoms: C_33  and  N_34
REMARK                            x       y       z     vdW  Elec       q    Type
REMARK                         _______ _______ _______ _____ _____    ______ ____
ROOT
ATOM      1  N   UNL     1       0.212  11.077  20.461  0.00  0.00    +0.000 N 
ATOM      2  C   UNL     1       0.875  12.305  20.759  0.00  0.00    +0.000 C 
ATOM      3  O   UNL     1       2.040  12.301  21.161  0.00  0.00    +0.000 OA
ENDROOT
BRANCH   2   4
ATOM      4  C   UNL     1       0.235  13.595  20.520  0.00  0.00    +0.000 A 
ATOM      5  S   UNL     1      -0.914  14.279  21.579  0.00  0.00    +0.000 S 
ATOM      6  N   UNL     1      -1.119  15.703  20.769  0.00  0.00    +0.000 NA
ATOM      7  C   UNL     1      -0.220  15.769  19.774  0.00  0.00    +0.000 A 
ATOM      8  C   UNL     1       0.570  14.569  19.592  0.00  0.00    +0.000 A 
BRANCH   7   9
ATOM      9  C   UNL     1      -0.081  17.018  19.004  0.00  0.00    +0.000 C 
ATOM     10  N   UNL     1      -0.982  17.173  17.984  0.00  0.00    +0.000 N 
ATOM     11  O   UNL     1       0.750  17.891  19.246  0.00  0.00    +0.000 OA
ATOM     12  H   UNL     1      -1.700  16.471  17.848  0.00  0.00    +0.000 HD
ATOM     13  H   UNL     1      -1.002  18.039  17.469  0.00  0.00    +0.000 HD
ENDBRANCH   7   9
BRANCH   8  14
ATOM     14  N   UNL     1       1.535  14.422  18.648  0.00  0.00    +0.000 N 
ATOM     15  H   UNL     1       2.402  13.936  18.897  0.00  0.00    +0.000 HD
ATOM     16  H   UNL     1       1.267  14.250  17.676  0.00  0.00    +0.000 HD
ENDBRANCH   8  14
ENDBRANCH   2   4
BRANCH   1  17
ATOM     17  C   UNL     1       0.919   9.790  20.793  0.00  0.00    +0.000 C 
BRANCH  17  18
ATOM     18  C   UNL     1       1.562   9.110  19.545  0.00  0.00    +0.000 C 
ATOM     19  O   UNL     1       1.649   9.644  18.443  0.00  0.00    +0.000 OA
ATOM     20  N   UNL     1       2.019   7.821  19.776  0.00  0.00    +0.000 N 
ATOM     21  H   UNL     1       2.142   7.497  20.725  0.00  0.00    +0.000 HD
BRANCH  20  22
ATOM     22  C   UNL     1       2.594   7.010  18.721  0.00  0.00    +0.000 C 
BRANCH  22  23
ATOM     23  C   UNL     1       2.280   5.547  18.932  0.00  0.00    +0.000 A 
ATOM     24  C   UNL     1       2.417   4.972  20.207  0.00  0.00    +0.000 A 
ATOM     25  C   UNL     1       2.134   3.616  20.408  0.00  0.00    +0.000 A 
ATOM     26  C   UNL     1       1.729   2.831  19.336  0.00  0.00    +0.000 A 
ATOM     27  F   UNL     1       1.458   1.537  19.535  0.00  0.00    +0.000 F 
ATOM     28  C   UNL     1       1.595   3.378  18.068  0.00  0.00    +0.000 A 
ATOM     29  C   UNL     1       1.874   4.732  17.863  0.00  0.00    +0.000 A 
ENDBRANCH  22  23
ENDBRANCH  20  22
ENDBRANCH  17  18
BRANCH  17  31
ATOM     30  C   UNL     1      -0.337   9.259  23.022  0.00  0.00    +0.000 C 
ATOM     31  C   UNL     1       0.033   8.815  21.613  0.00  0.00    +0.000 C 
ENDBRANCH  17  31
ENDBRANCH   1  17
BRANCH   1  32
ATOM     32  C   UNL     1      -1.158  11.068  19.901  0.00  0.00    +0.000 C 
BRANCH  32  33
ATOM     33  C   UNL     1      -1.375  11.248  18.393  0.00  0.00    +0.000 C 
BRANCH  33  34
ATOM     34  C   UNL     1      -2.830  11.477  18.021  0.00  0.00    +0.000 A 
ATOM     35  C   UNL     1      -3.278  11.179  16.728  0.00  0.00    +0.000 A 
ATOM     36  C   UNL     1      -4.625  11.330  16.379  0.00  0.00    +0.000 A 
ATOM     37  C   UNL     1      -5.545  11.779  17.324  0.00  0.00    +0.000 A 
ATOM     38  C   UNL     1      -5.114  12.087  18.615  0.00  0.00    +0.000 A 
ATOM     39  C   UNL     1      -3.766  11.939  18.961  0.00  0.00    +0.000 A 
ENDBRANCH  33  34
ENDBRANCH  32  33
ENDBRANCH   1  32
TORSDOF 11
ENDMDL
MODEL 7
REMARK VINA RESULT:      -7.1      0.853      1.475
REMARK  Name = 
REMARK  12 active torsions:
REMARK  status: ('A' for Active; 'I' for Inactive)
REMARK    1  A    between atoms: C_1  and  C_2
REMARK    2  A    between atoms: C_2  and  C_3
REMARK    3  A    between atoms: C_3  and  C_4
REMARK    4  A    between atoms: C_3  and  N_15
REMARK    5  A    between atoms: N_6  and  C_7
REMARK    6  A    between atoms: C_7  and  C_8
REMARK    7  A    between atoms: N_15  and  C_16
REMARK    8  A    between atoms: C_16  and  C_17
REMARK    9  A    between atoms: C_17  and  C_18
REMARK   10  A    between atoms: C_24  and  C_26
REMARK   11  A    between atoms: C_29  and  C_30
REMARK   12  A    between atoms: C_33  and  N_34
REMARK                            x       y       z     vdW  Elec       q    Type
REMARK                         _______ _______ _______ _____ _____    ______ ____
ROOT
ATOM      1  N   UNL     1       0.292  10.726  20.384  0.00  0.00    +0.000 N 
ATOM      2  C   UNL     1       0.781  12.024  20.720  0.00  0.00    +0.000 C 
ATOM      3  O   UNL     1       1.858  12.150  21.305  0.00  0.00    +0.000 OA
ENDROOT
BRANCH   2   4
ATOM      4  C   UNL     1       0.074  13.234  20.311  0.00  0.00    +0.000 A 
ATOM      5  S   UNL     1      -1.312  13.823  21.111  0.00  0.00    +0.000 S 
ATOM      6  N   UNL     1      -1.499  15.198  20.216  0.00  0.00    +0.000 NA
ATOM      7  C   UNL     1      -0.441  15.330  19.400  0.00  0.00    +0.000 A 
ATOM      8  C   UNL     1       0.482  14.214  19.418  0.00  0.00    +0.000 A 
BRANCH   7   9
ATOM      9  C   UNL     1      -0.282  16.567  18.614  0.00  0.00    +0.000 C 
ATOM     10  N   UNL     1       1.009  16.876  18.275  0.00  0.00    +0.000 N 
ATOM     11  O   UNL     1      -1.215  17.279  18.247  0.00  0.00    +0.000 OA
ATOM     12  H   UNL     1       1.753  16.238  18.531  0.00  0.00    +0.000 HD
ATOM     13  H   UNL     1       1.187  17.660  17.667  0.00  0.00    +0.000 HD
ENDBRANCH   7   9
BRANCH   8  14
ATOM     14  N   UNL     1       1.614  14.143  18.673  0.00  0.00    +0.000 N 
ATOM     15  H   UNL     1       1.544  13.863  17.690  0.00  0.00    +0.000 HD
ATOM     16  H   UNL     1       2.360  14.826  18.822  0.00  0.00    +0.000 HD
ENDBRANCH   8  14
ENDBRANCH   2   4
BRANCH   1  17
ATOM     17  C   UNL     1       1.047   9.528  20.894  0.00  0.00    +0.000 C 
BRANCH  17  18
ATOM     18  C   UNL     1       1.789   8.751  19.764  0.00  0.00    +0.000 C 
ATOM     19  O   UNL     1       1.892   9.153  18.609  0.00  0.00    +0.000 OA
ATOM     20  N   UNL     1       2.317   7.533  20.167  0.00  0.00    +0.000 N 
ATOM     21  H   UNL     1       2.416   7.334  21.153  0.00  0.00    +0.000 HD
BRANCH  20  22
ATOM     22  C   UNL     1       2.990   6.644  19.242  0.00  0.00    +0.000 C 
BRANCH  22  23
ATOM     23  C   UNL     1       2.253   5.329  19.122  0.00  0.00    +0.000 A 
ATOM     24  C   UNL     1       2.095   4.720  17.866  0.00  0.00    +0.000 A 
ATOM     25  C   UNL     1       1.409   3.506  17.748  0.00  0.00    +0.000 A 
ATOM     26  C   UNL     1       0.868   2.907  18.879  0.00  0.00    +0.000 A 
ATOM     27  F   UNL     1       0.215   1.747  18.760  0.00  0.00    +0.000 F 
ATOM     28  C   UNL     1       1.007   3.497  20.127  0.00  0.00    +0.000 A 
ATOM     29  C   UNL     1       1.694   4.708  20.250  0.00  0.00    +0.000 A 
ENDBRANCH  22  23
ENDBRANCH  20  22
ENDBRANCH  17  18
BRANCH  17  31
ATOM     30  C   UNL     1      -0.356   9.207  23.074  0.00  0.00    +0.000 C 
ATOM     31  C   UNL     1       0.173   8.602  21.780  0.00  0.00    +0.000 C 
ENDBRANCH  17  31
ENDBRANCH   1  17
BRANCH   1  32
ATOM     32  C   UNL     1      -0.959  10.561  19.609  0.00  0.00    +0.000 C 
BRANCH  32  33
ATOM     33  C   UNL     1      -1.021  11.002  18.141  0.00  0.00    +0.000 C 
BRANCH  33  34
ATOM     34  C   UNL     1      -2.439  11.200  17.636  0.00  0.00    +0.000 A 
ATOM     35  C   UNL     1      -2.782  10.804  16.336  0.00  0.00    +0.000 A 
ATOM     36  C   UNL     1      -4.095  10.925  15.868  0.00  0.00    +0.000 A 
ATOM     37  C   UNL     1      -5.088  11.442  16.698  0.00  0.00    +0.000 A 
ATOM     38  C   UNL     1      -4.762  11.847  17.992  0.00  0.00    +0.000 A 
ATOM     39  C   UNL     1      -3.448  11.729  18.458  0.00  0.00    +0.000 A 
ENDBRANCH  33  34
ENDBRANCH  32  33
ENDBRANCH   1  32
TORSDOF 11
ENDMDL
MODEL 8
REMARK VINA RESULT:      -7.1      2.156      2.751
REMARK  Name = 
REMARK  12 active torsions:
REMARK  status: ('A' for Active; 'I' for Inactive)
REMARK    1  A    between atoms: C_1  and  C_2
REMARK    2  A    between atoms: C_2  and  C_3
REMARK    3  A    between atoms: C_3  and  C_4
REMARK    4  A    between atoms: C_3  and  N_15
REMARK    5  A    between atoms: N_6  and  C_7
REMARK    6  A    between atoms: C_7  and  C_8
REMARK    7  A    between atoms: N_15  and  C_16
REMARK    8  A    between atoms: C_16  and  C_17
REMARK    9  A    between atoms: C_17  and  C_18
REMARK   10  A    between atoms: C_24  and  C_26
REMARK   11  A    between atoms: C_29  and  C_30
REMARK   12  A    between atoms: C_33  and  N_34
REMARK                            x       y       z     vdW  Elec       q    Type
REMARK                         _______ _______ _______ _____ _____    ______ ____
ROOT
ATOM      1  N   UNL     1       0.410  10.565  20.167  0.00  0.00    +0.000 N 
ATOM      2  C   UNL     1       0.820  11.867  20.584  0.00  0.00    +0.000 C 
ATOM      3  O   UNL     1       1.942  12.041  21.062  0.00  0.00    +0.000 OA
ENDROOT
BRANCH   2   4
ATOM      4  C   UNL     1      -0.031  13.035  20.381  0.00  0.00    +0.000 A 
ATOM      5  S   UNL     1      -1.364  13.405  21.378  0.00  0.00    +0.000 S 
ATOM      6  N   UNL     1      -1.770  14.835  20.658  0.00  0.00    +0.000 NA
ATOM      7  C   UNL     1      -0.826  15.149  19.756  0.00  0.00    +0.000 A 
ATOM      8  C   UNL     1       0.187  14.132  19.561  0.00  0.00    +0.000 A 
BRANCH   7   9
ATOM      9  C   UNL     1      -0.864  16.465  19.095  0.00  0.00    +0.000 C 
ATOM     10  N   UNL     1      -2.056  17.133  19.204  0.00  0.00    +0.000 N 
ATOM     11  O   UNL     1       0.088  16.972  18.505  0.00  0.00    +0.000 OA
ATOM     12  H   UNL     1      -2.804  16.725  19.752  0.00  0.00    +0.000 HD
ATOM     13  H   UNL     1      -2.129  18.074  18.850  0.00  0.00    +0.000 HD
ENDBRANCH   7   9
BRANCH   8  14
ATOM     14  N   UNL     1       1.231  14.245  18.700  0.00  0.00    +0.000 N 
ATOM     15  H   UNL     1       1.111  13.928  17.732  0.00  0.00    +0.000 HD
ATOM     16  H   UNL     1       1.851  15.055  18.762  0.00  0.00    +0.000 HD
ENDBRANCH   8  14
ENDBRANCH   2   4
BRANCH   1  17
ATOM     17  C   UNL     1       1.319   9.403  20.466  0.00  0.00    +0.000 C 
BRANCH  17  18
ATOM     18  C   UNL     1       1.835   8.688  19.180  0.00  0.00    +0.000 C 
ATOM     19  O   UNL     1       2.032   9.258  18.111  0.00  0.00    +0.000 OA
ATOM     20  N   UNL     1       2.039   7.324  19.334  0.00  0.00    +0.000 N 
ATOM     21  H   UNL     1       2.090   6.929  20.262  0.00  0.00    +0.000 HD
BRANCH  20  22
ATOM     22  C   UNL     1       2.461   6.482  18.232  0.00  0.00    +0.000 C 
BRANCH  22  23
ATOM     23  C   UNL     1       3.953   6.240  18.277  0.00  0.00    +0.000 A 
ATOM     24  C   UNL     1       4.787   6.786  17.287  0.00  0.00    +0.000 A 
ATOM     25  C   UNL     1       6.168   6.560  17.320  0.00  0.00    +0.000 A 
ATOM     26  C   UNL     1       6.714   5.780  18.330  0.00  0.00    +0.000 A 
ATOM     27  F   UNL     1       8.035   5.569  18.357  0.00  0.00    +0.000 F 
ATOM     28  C   UNL     1       5.906   5.225  19.313  0.00  0.00    +0.000 A 
ATOM     29  C   UNL     1       4.527   5.450  19.286  0.00  0.00    +0.000 A 
ENDBRANCH  22  23
ENDBRANCH  20  22
ENDBRANCH  17  18
BRANCH  17  31
ATOM     30  C   UNL     1      -0.062   9.034  22.653  0.00  0.00    +0.000 C 
ATOM     31  C   UNL     1       0.709   8.414  21.495  0.00  0.00    +0.000 C 
ENDBRANCH  17  31
ENDBRANCH   1  17
BRANCH   1  32
ATOM     32  C   UNL     1      -0.903  10.352  19.516  0.00  0.00    +0.000 C 
BRANCH  32  33
ATOM     33  C   UNL     1      -1.069  10.611  18.013  0.00  0.00    +0.000 C 
BRANCH  33  34
ATOM     34  C   UNL     1      -2.477  11.030  17.630  0.00  0.00    +0.000 A 
ATOM     35  C   UNL     1      -2.946  10.808  16.328  0.00  0.00    +0.000 A 
ATOM     36  C   UNL     1      -4.257  11.134  15.968  0.00  0.00    +0.000 A 
ATOM     37  C   UNL     1      -5.123  11.687  16.910  0.00  0.00    +0.000 A 
ATOM     38  C   UNL     1      -4.671  11.922  18.209  0.00  0.00    +0.000 A 
ATOM     39  C   UNL     1      -3.357  11.597  18.566  0.00  0.00    +0.000 A 
ENDBRANCH  33  34
ENDBRANCH  32  33
ENDBRANCH   1  32
TORSDOF 11
ENDMDL
MODEL 9
REMARK VINA RESULT:      -7.1      2.958      5.019
REMARK  Name = 
REMARK  12 active torsions:
REMARK  status: ('A' for Active; 'I' for Inactive)
REMARK    1  A    between atoms: C_1  and  C_2
REMARK    2  A    between atoms: C_2  and  C_3
REMARK    3  A    between atoms: C_3  and  C_4
REMARK    4  A    between atoms: C_3  and  N_15
REMARK    5  A    between atoms: N_6  and  C_7
REMARK    6  A    between atoms: C_7  and  C_8
REMARK    7  A    between atoms: N_15  and  C_16
REMARK    8  A    between atoms: C_16  and  C_17
REMARK    9  A    between atoms: C_17  and  C_18
REMARK   10  A    between atoms: C_24  and  C_26
REMARK   11  A    between atoms: C_29  and  C_30
REMARK   12  A    between atoms: C_33  and  N_34
REMARK                            x       y       z     vdW  Elec       q    Type
REMARK                         _______ _______ _______ _____ _____    ______ ____
ROOT
ATOM      1  N   UNL     1      -0.357  11.510  18.646  0.00  0.00    +0.000 N 
ATOM      2  C   UNL     1      -1.425  10.592  18.413  0.00  0.00    +0.000 C 
ATOM      3  O   UNL     1      -1.378   9.453  18.881  0.00  0.00    +0.000 OA
ENDROOT
BRANCH   2   4
ATOM      4  C   UNL     1      -2.631  10.992  17.696  0.00  0.00    +0.000 A 
ATOM      5  S   UNL     1      -3.040  10.398  16.150  0.00  0.00    +0.000 S 
ATOM      6  N   UNL     1      -4.497  11.163  16.014  0.00  0.00    +0.000 NA
ATOM      7  C   UNL     1      -4.786  11.756  17.183  0.00  0.00    +0.000 A 
ATOM      8  C   UNL     1      -3.732  11.688  18.174  0.00  0.00    +0.000 A 
BRANCH   7   9
ATOM      9  C   UNL     1      -6.114  12.365  17.379  0.00  0.00    +0.000 C 
ATOM     10  N   UNL     1      -6.236  13.648  16.915  0.00  0.00    +0.000 N 
ATOM     11  O   UNL     1      -7.072  11.788  17.889  0.00  0.00    +0.000 OA
ATOM     12  H   UNL     1      -5.453  14.078  16.438  0.00  0.00    +0.000 HD
ATOM     13  H   UNL     1      -7.138  14.098  16.938  0.00  0.00    +0.000 HD
ENDBRANCH   7   9
BRANCH   8  14
ATOM     14  N   UNL     1      -3.814  12.219  19.420  0.00  0.00    +0.000 N 
ATOM     15  H   UNL     1      -3.818  11.588  20.228  0.00  0.00    +0.000 HD
ATOM     16  H   UNL     1      -3.337  13.099  19.626  0.00  0.00    +0.000 HD
ENDBRANCH   8  14
ENDBRANCH   2   4
BRANCH   1  17
ATOM     17  C   UNL     1       0.878  11.002  19.342  0.00  0.00    +0.000 C 
BRANCH  17  18
ATOM     18  C   UNL     1       1.710  10.019  18.462  0.00  0.00    +0.000 C 
ATOM     19  O   UNL     1       2.194  10.315  17.374  0.00  0.00    +0.000 OA
ATOM     20  N   UNL     1       1.846   8.750  19.006  0.00  0.00    +0.000 N 
ATOM     21  H   UNL     1       1.640   8.602  19.984  0.00  0.00    +0.000 HD
BRANCH  20  22
ATOM     22  C   UNL     1       2.536   7.685  18.306  0.00  0.00    +0.000 C 
BRANCH  22  23
ATOM     23  C   UNL     1       2.112   6.331  18.828  0.00  0.00    +0.000 A 
ATOM     24  C   UNL     1       1.947   6.128  20.209  0.00  0.00    +0.000 A 
ATOM     25  C   UNL     1       1.560   4.876  20.699  0.00  0.00    +0.000 A 
ATOM     26  C   UNL     1       1.354   3.824  19.816  0.00  0.00    +0.000 A 
ATOM     27  F   UNL     1       0.983   2.630  20.291  0.00  0.00    +0.000 F 
ATOM     28  C   UNL     1       1.520   4.002  18.450  0.00  0.00    +0.000 A 
ATOM     29  C   UNL     1       1.903   5.252  17.955  0.00  0.00    +0.000 A 
ENDBRANCH  22  23
ENDBRANCH  20  22
ENDBRANCH  17  18
BRANCH  17  31
ATOM     30  C   UNL     1      -0.114  11.374  21.730  0.00  0.00    +0.000 C 
ATOM     31  C   UNL     1       0.579  10.432  20.753  0.00  0.00    +0.000 C 
ENDBRANCH  17  31
ENDBRANCH   1  17
BRANCH   1  32
ATOM     32  C   UNL     1      -0.434  12.906  18.161  0.00  0.00    +0.000 C 
BRANCH  32  33
ATOM     33  C   UNL     1      -0.198  14.073  19.129  0.00  0.00    +0.000 C 
BRANCH  33  34
ATOM     34  C   UNL     1       0.928  14.994  18.692  0.00  0.00    +0.000 A 
ATOM     35  C   UNL     1       0.684  16.362  18.508  0.00  0.00    +0.000 A 
ATOM     36  C   UNL     1       1.717  17.238  18.160  0.00  0.00    +0.000 A 
ATOM     37  C   UNL     1       3.015  16.757  17.994  0.00  0.00    +0.000 A 
ATOM     38  C   UNL     1       3.274  15.398  18.167  0.00  0.00    +0.000 A 
ATOM     39  C   UNL     1       2.238  14.522  18.512  0.00  0.00    +0.000 A 
ENDBRANCH  33  34
ENDBRANCH  32  33
ENDBRANCH   1  32
TORSDOF 11
ENDMDL
