MODEL 1
REMARK VINA RESULT:      -6.3      0.000      0.000
REMARK  Name = 
REMARK  8 active torsions:
REMARK  status: ('A' for Active; 'I' for Inactive)
REMARK    1  A    between atoms: C_1  and  C_2
REMARK    2  A    between atoms: C_2  and  C_3
REMARK    3  A    between atoms: C_3  and  C_4
REMARK    4  A    between atoms: C_4  and  C_5
REMARK    5  A    between atoms: C_4  and  S_6
REMARK    6  A    between atoms: S_6  and  C_7
REMARK    7  A    between atoms: N_12  and  C_13
REMARK    8  A    between atoms: N_16  and  C_17
REMARK                            x       y       z     vdW  Elec       q    Type
REMARK                         _______ _______ _______ _____ _____    ______ ____
ROOT
ATOM      1  C   UNL     1       5.731   4.699  15.447  0.00  0.00    +0.000 A 
ATOM      2  N   UNL     1       5.316   3.647  16.104  0.00  0.00    +0.000 NA
ATOM      3  C   UNL     1       4.431   4.133  17.050  0.00  0.00    +0.000 A 
ATOM      4  C   UNL     1       3.630   3.416  18.015  0.00  0.00    +0.000 A 
ATOM      5  S   UNL     1       3.749   1.746  17.995  0.00  0.00    +0.000 S 
ATOM      6  N   UNL     1       2.829   4.202  18.851  0.00  0.00    +0.000 N 
ATOM      7  C   UNL     1       1.976   3.625  19.885  0.00  0.00    +0.000 C 
ATOM      8  C   UNL     1       2.762   5.603  18.797  0.00  0.00    +0.000 A 
ATOM      9  O   UNL     1       2.073   6.300  19.530  0.00  0.00    +0.000 OA
ATOM     10  N   UNL     1       3.569   6.262  17.795  0.00  0.00    +0.000 N 
ATOM     11  C   UNL     1       3.532   7.728  17.709  0.00  0.00    +0.000 C 
ATOM     12  C   UNL     1       4.362   5.502  16.965  0.00  0.00    +0.000 A 
ATOM     13  N   UNL     1       5.193   5.860  15.939  0.00  0.00    +0.000 N 
ATOM     14  H   UNL     1       5.355   6.777  15.559  0.00  0.00    +0.000 HD
ENDROOT
BRANCH   1  15
ATOM     15  S   UNL     1       6.753   4.756  14.054  0.00  0.00    +0.000 S 
BRANCH  15  16
ATOM     16  C   UNL     1       6.067   3.398  13.007  0.00  0.00    +0.000 C 
ATOM     17  C   UNL     1       7.046   3.133  11.854  0.00  0.00    +0.000 C 
BRANCH  16  18
ATOM     18  C   UNL     1       4.673   3.803  12.487  0.00  0.00    +0.000 C 
BRANCH  18  20
ATOM     19  C   UNL     1       3.330   3.848  10.337  0.00  0.00    +0.000 C 
ATOM     20  C   UNL     1       4.225   3.020  11.247  0.00  0.00    +0.000 C 
ENDBRANCH  18  20
ENDBRANCH  16  18
ENDBRANCH  15  16
ENDBRANCH   1  15
TORSDOF 4
ENDMDL
MODEL 2
REMARK VINA RESULT:      -6.2      3.298      4.503
REMARK  Name = 
REMARK  8 active torsions:
REMARK  status: ('A' for Active; 'I' for Inactive)
REMARK    1  A    between atoms: C_1  and  C_2
REMARK    2  A    between atoms: C_2  and  C_3
REMARK    3  A    between atoms: C_3  and  C_4
REMARK    4  A    between atoms: C_4  and  C_5
REMARK    5  A    between atoms: C_4  and  S_6
REMARK    6  A    between atoms: S_6  and  C_7
REMARK    7  A    between atoms: N_12  and  C_13
REMARK    8  A    between atoms: N_16  and  C_17
REMARK                            x       y       z     vdW  Elec       q    Type
REMARK                         _______ _______ _______ _____ _____    ______ ____
ROOT
ATOM      1  C   UNL     1       6.069   5.103  19.001  0.00  0.00    +0.000 A 
ATOM      2  N   UNL     1       5.004   5.772  19.361  0.00  0.00    +0.000 NA
ATOM      3  C   UNL     1       3.989   4.834  19.428  0.00  0.00    +0.000 A 
ATOM      4  C   UNL     1       2.611   4.996  19.828  0.00  0.00    +0.000 A 
ATOM      5  S   UNL     1       2.147   6.530  20.313  0.00  0.00    +0.000 S 
ATOM      6  N   UNL     1       1.819   3.843  19.781  0.00  0.00    +0.000 N 
ATOM      7  C   UNL     1       0.405   3.851  20.141  0.00  0.00    +0.000 C 
ATOM      8  C   UNL     1       2.282   2.579  19.384  0.00  0.00    +0.000 A 
ATOM      9  O   UNL     1       1.596   1.567  19.330  0.00  0.00    +0.000 OA
ATOM     10  N   UNL     1       3.677   2.474  19.017  0.00  0.00    +0.000 N 
ATOM     11  C   UNL     1       4.200   1.170  18.590  0.00  0.00    +0.000 C 
ATOM     12  C   UNL     1       4.468   3.600  19.059  0.00  0.00    +0.000 A 
ATOM     13  N   UNL     1       5.797   3.776  18.788  0.00  0.00    +0.000 N 
ATOM     14  H   UNL     1       6.479   3.082  18.535  0.00  0.00    +0.000 HD
ENDROOT
BRANCH   1  15
ATOM     15  S   UNL     1       7.694   5.674  18.862  0.00  0.00    +0.000 S 
BRANCH  15  16
ATOM     16  C   UNL     1       7.652   6.596  17.262  0.00  0.00    +0.000 C 
ATOM     17  C   UNL     1       7.470   8.090  17.568  0.00  0.00    +0.000 C 
BRANCH  16  18
ATOM     18  C   UNL     1       6.508   6.052  16.383  0.00  0.00    +0.000 C 
BRANCH  18  20
ATOM     19  C   UNL     1       5.941   3.902  15.166  0.00  0.00    +0.000 C 
ATOM     20  C   UNL     1       6.962   5.015  15.350  0.00  0.00    +0.000 C 
ENDBRANCH  18  20
ENDBRANCH  16  18
ENDBRANCH  15  16
ENDBRANCH   1  15
TORSDOF 4
ENDMDL
MODEL 3
REMARK VINA RESULT:      -6.2      1.322      1.664
REMARK  Name = 
REMARK  8 active torsions:
REMARK  status: ('A' for Active; 'I' for Inactive)
REMARK    1  A    between atoms: C_1  and  C_2
REMARK    2  A    between atoms: C_2  and  C_3
REMARK    3  A    between atoms: C_3  and  C_4
REMARK    4  A    between atoms: C_4  and  C_5
REMARK    5  A    between atoms: C_4  and  S_6
REMARK    6  A    between atoms: S_6  and  C_7
REMARK    7  A    between atoms: N_12  and  C_13
REMARK    8  A    between atoms: N_16  and  C_17
REMARK                            x       y       z     vdW  Elec       q    Type
REMARK                         _______ _______ _______ _____ _____    ______ ____
ROOT
ATOM      1  C   UNL     1       4.826   5.470  16.554  0.00  0.00    +0.000 A 
ATOM      2  N   UNL     1       4.643   4.227  16.914  0.00  0.00    +0.000 NA
ATOM      3  C   UNL     1       3.754   4.280  17.974  0.00  0.00    +0.000 A 
ATOM      4  C   UNL     1       3.156   3.203  18.727  0.00  0.00    +0.000 A 
ATOM      5  S   UNL     1       3.558   1.647  18.260  0.00  0.00    +0.000 S 
ATOM      6  N   UNL     1       2.289   3.585  19.759  0.00  0.00    +0.000 N 
ATOM      7  C   UNL     1       1.620   2.613  20.617  0.00  0.00    +0.000 C 
ATOM      8  C   UNL     1       1.979   4.915  20.082  0.00  0.00    +0.000 A 
ATOM      9  O   UNL     1       1.231   5.260  20.987  0.00  0.00    +0.000 OA
ATOM     10  N   UNL     1       2.591   5.948  19.276  0.00  0.00    +0.000 N 
ATOM     11  C   UNL     1       2.297   7.354  19.585  0.00  0.00    +0.000 C 
ATOM     12  C   UNL     1       3.445   5.588  18.258  0.00  0.00    +0.000 A 
ATOM     13  N   UNL     1       4.131   6.345  17.349  0.00  0.00    +0.000 N 
ATOM     14  H   UNL     1       4.107   7.343  17.224  0.00  0.00    +0.000 HD
ENDROOT
BRANCH   1  15
ATOM     15  S   UNL     1       5.727   6.072  15.207  0.00  0.00    +0.000 S 
BRANCH  15  16
ATOM     16  C   UNL     1       6.426   4.526  14.479  0.00  0.00    +0.000 C 
ATOM     17  C   UNL     1       7.574   4.910  13.535  0.00  0.00    +0.000 C 
BRANCH  16  18
ATOM     18  C   UNL     1       5.314   3.756  13.738  0.00  0.00    +0.000 C 
BRANCH  18  20
ATOM     19  C   UNL     1       4.477   3.212  11.408  0.00  0.00    +0.000 C 
ATOM     20  C   UNL     1       5.694   3.345  12.311  0.00  0.00    +0.000 C 
ENDBRANCH  18  20
ENDBRANCH  16  18
ENDBRANCH  15  16
ENDBRANCH   1  15
TORSDOF 4
ENDMDL
MODEL 4
REMARK VINA RESULT:      -6.1      3.081      3.920
REMARK  Name = 
REMARK  8 active torsions:
REMARK  status: ('A' for Active; 'I' for Inactive)
REMARK    1  A    between atoms: C_1  and  C_2
REMARK    2  A    between atoms: C_2  and  C_3
REMARK    3  A    between atoms: C_3  and  C_4
REMARK    4  A    between atoms: C_4  and  C_5
REMARK    5  A    between atoms: C_4  and  S_6
REMARK    6  A    between atoms: S_6  and  C_7
REMARK    7  A    between atoms: N_12  and  C_13
REMARK    8  A    between atoms: N_16  and  C_17
REMARK                            x       y       z     vdW  Elec       q    Type
REMARK                         _______ _______ _______ _____ _____    ______ ____
ROOT
ATOM      1  C   UNL     1       5.961   5.086  19.141  0.00  0.00    +0.000 A 
ATOM      2  N   UNL     1       5.582   3.866  18.862  0.00  0.00    +0.000 NA
ATOM      3  C   UNL     1       4.223   3.837  19.124  0.00  0.00    +0.000 A 
ATOM      4  C   UNL     1       3.274   2.764  18.942  0.00  0.00    +0.000 A 
ATOM      5  S   UNL     1       3.868   1.338  18.299  0.00  0.00    +0.000 S 
ATOM      6  N   UNL     1       1.953   3.045  19.312  0.00  0.00    +0.000 N 
ATOM      7  C   UNL     1       0.884   2.059  19.202  0.00  0.00    +0.000 C 
ATOM      8  C   UNL     1       1.519   4.277  19.827  0.00  0.00    +0.000 A 
ATOM      9  O   UNL     1       0.370   4.530  20.163  0.00  0.00    +0.000 OA
ATOM     10  N   UNL     1       2.512   5.320  19.963  0.00  0.00    +0.000 N 
ATOM     11  C   UNL     1       2.100   6.622  20.503  0.00  0.00    +0.000 C 
ATOM     12  C   UNL     1       3.814   5.058  19.603  0.00  0.00    +0.000 A 
ATOM     13  N   UNL     1       4.927   5.852  19.611  0.00  0.00    +0.000 N 
ATOM     14  H   UNL     1       4.996   6.826  19.855  0.00  0.00    +0.000 HD
ENDROOT
BRANCH   1  15
ATOM     15  S   UNL     1       7.516   5.802  18.905  0.00  0.00    +0.000 S 
BRANCH  15  16
ATOM     16  C   UNL     1       7.299   6.697  17.304  0.00  0.00    +0.000 C 
ATOM     17  C   UNL     1       7.721   8.160  17.505  0.00  0.00    +0.000 C 
BRANCH  16  18
ATOM     18  C   UNL     1       5.830   6.588  16.848  0.00  0.00    +0.000 C 
BRANCH  18  20
ATOM     19  C   UNL     1       6.893   4.924  15.259  0.00  0.00    +0.000 C 
ATOM     20  C   UNL     1       5.628   5.682  15.628  0.00  0.00    +0.000 C 
ENDBRANCH  18  20
ENDBRANCH  16  18
ENDBRANCH  15  16
ENDBRANCH   1  15
TORSDOF 4
ENDMDL
MODEL 5
REMARK VINA RESULT:      -6.1      1.930      2.194
REMARK  Name = 
REMARK  8 active torsions:
REMARK  status: ('A' for Active; 'I' for Inactive)
REMARK    1  A    between atoms: C_1  and  C_2
REMARK    2  A    between atoms: C_2  and  C_3
REMARK    3  A    between atoms: C_3  and  C_4
REMARK    4  A    between atoms: C_4  and  C_5
REMARK    5  A    between atoms: C_4  and  S_6
REMARK    6  A    between atoms: S_6  and  C_7
REMARK    7  A    between atoms: N_12  and  C_13
REMARK    8  A    between atoms: N_16  and  C_17
REMARK                            x       y       z     vdW  Elec       q    Type
REMARK                         _______ _______ _______ _____ _____    ______ ____
ROOT
ATOM      1  C   UNL     1       6.239   3.999  14.605  0.00  0.00    +0.000 A 
ATOM      2  N   UNL     1       5.132   3.558  15.143  0.00  0.00    +0.000 NA
ATOM      3  C   UNL     1       5.164   3.996  16.455  0.00  0.00    +0.000 A 
ATOM      4  C   UNL     1       4.177   3.849  17.499  0.00  0.00    +0.000 A 
ATOM      5  S   UNL     1       2.762   3.056  17.086  0.00  0.00    +0.000 S 
ATOM      6  N   UNL     1       4.510   4.403  18.741  0.00  0.00    +0.000 N 
ATOM      7  C   UNL     1       3.623   4.322  19.896  0.00  0.00    +0.000 C 
ATOM      8  C   UNL     1       5.711   5.076  19.011  0.00  0.00    +0.000 A 
ATOM      9  O   UNL     1       6.018   5.555  20.095  0.00  0.00    +0.000 OA
ATOM     10  N   UNL     1       6.650   5.213  17.920  0.00  0.00    +0.000 N 
ATOM     11  C   UNL     1       7.922   5.906  18.163  0.00  0.00    +0.000 C 
ATOM     12  C   UNL     1       6.336   4.673  16.693  0.00  0.00    +0.000 A 
ATOM     13  N   UNL     1       7.019   4.673  15.508  0.00  0.00    +0.000 N 
ATOM     14  H   UNL     1       7.895   5.119  15.294  0.00  0.00    +0.000 HD
ENDROOT
BRANCH   1  15
ATOM     15  S   UNL     1       6.739   3.898  12.953  0.00  0.00    +0.000 S 
BRANCH  15  16
ATOM     16  C   UNL     1       5.393   2.886  12.196  0.00  0.00    +0.000 C 
ATOM     17  C   UNL     1       6.019   1.945  11.156  0.00  0.00    +0.000 C 
BRANCH  16  18
ATOM     18  C   UNL     1       4.343   3.818  11.558  0.00  0.00    +0.000 C 
BRANCH  18  20
ATOM     19  C   UNL     1       2.884   4.097   9.504  0.00  0.00    +0.000 C 
ATOM     20  C   UNL     1       3.443   3.124  10.531  0.00  0.00    +0.000 C 
ENDBRANCH  18  20
ENDBRANCH  16  18
ENDBRANCH  15  16
ENDBRANCH   1  15
TORSDOF 4
ENDMDL
MODEL 6
REMARK VINA RESULT:      -6.0      1.804      2.622
REMARK  Name = 
REMARK  8 active torsions:
REMARK  status: ('A' for Active; 'I' for Inactive)
REMARK    1  A    between atoms: C_1  and  C_2
REMARK    2  A    between atoms: C_2  and  C_3
REMARK    3  A    between atoms: C_3  and  C_4
REMARK    4  A    between atoms: C_4  and  C_5
REMARK    5  A    between atoms: C_4  and  S_6
REMARK    6  A    between atoms: S_6  and  C_7
REMARK    7  A    between atoms: N_12  and  C_13
REMARK    8  A    between atoms: N_16  and  C_17
REMARK                            x       y       z     vdW  Elec       q    Type
REMARK                         _______ _______ _______ _____ _____    ______ ____
ROOT
ATOM      1  C   UNL     1       5.471   4.670  15.771  0.00  0.00    +0.000 A 
ATOM      2  N   UNL     1       4.748   5.606  16.330  0.00  0.00    +0.000 NA
ATOM      3  C   UNL     1       4.022   4.965  17.319  0.00  0.00    +0.000 A 
ATOM      4  C   UNL     1       3.103   5.514  18.288  0.00  0.00    +0.000 A 
ATOM      5  S   UNL     1       2.878   7.172  18.251  0.00  0.00    +0.000 S 
ATOM      6  N   UNL     1       2.513   4.594  19.163  0.00  0.00    +0.000 N 
ATOM      7  C   UNL     1       1.552   4.994  20.186  0.00  0.00    +0.000 C 
ATOM      8  C   UNL     1       2.766   3.214  19.150  0.00  0.00    +0.000 A 
ATOM      9  O   UNL     1       2.248   2.400  19.904  0.00  0.00    +0.000 OA
ATOM     10  N   UNL     1       3.714   2.727  18.173  0.00  0.00    +0.000 N 
ATOM     11  C   UNL     1       4.002   1.288  18.123  0.00  0.00    +0.000 C 
ATOM     12  C   UNL     1       4.302   3.620  17.306  0.00  0.00    +0.000 A 
ATOM     13  N   UNL     1       5.228   3.436  16.317  0.00  0.00    +0.000 N 
ATOM     14  H   UNL     1       5.700   2.587  16.054  0.00  0.00    +0.000 HD
ENDROOT
BRANCH   1  15
ATOM     15  S   UNL     1       6.686   4.841  14.554  0.00  0.00    +0.000 S 
BRANCH  15  16
ATOM     16  C   UNL     1       6.224   3.520  13.349  0.00  0.00    +0.000 C 
ATOM     17  C   UNL     1       7.244   3.532  12.201  0.00  0.00    +0.000 C 
BRANCH  16  18
ATOM     18  C   UNL     1       4.791   3.768  12.836  0.00  0.00    +0.000 C 
BRANCH  18  20
ATOM     19  C   UNL     1       3.256   3.075  10.941  0.00  0.00    +0.000 C 
ATOM     20  C   UNL     1       4.636   3.589  11.322  0.00  0.00    +0.000 C 
ENDBRANCH  18  20
ENDBRANCH  16  18
ENDBRANCH  15  16
ENDBRANCH   1  15
TORSDOF 4
ENDMDL
MODEL 7
REMARK VINA RESULT:      -6.0      3.630      5.316
REMARK  Name = 
REMARK  8 active torsions:
REMARK  status: ('A' for Active; 'I' for Inactive)
REMARK    1  A    between atoms: C_1  and  C_2
REMARK    2  A    between atoms: C_2  and  C_3
REMARK    3  A    between atoms: C_3  and  C_4
REMARK    4  A    between atoms: C_4  and  C_5
REMARK    5  A    between atoms: C_4  and  S_6
REMARK    6  A    between atoms: S_6  and  C_7
REMARK    7  A    between atoms: N_12  and  C_13
REMARK    8  A    between atoms: N_16  and  C_17
REMARK                            x       y       z     vdW  Elec       q    Type
REMARK                         _______ _______ _______ _____ _____    ______ ____
ROOT
ATOM      1  C   UNL     1       5.500   5.196  17.147  0.00  0.00    +0.000 A 
ATOM      2  N   UNL     1       4.619   5.952  17.748  0.00  0.00    +0.000 NA
ATOM      3  C   UNL     1       3.745   5.074  18.366  0.00  0.00    +0.000 A 
ATOM      4  C   UNL     1       2.610   5.351  19.216  0.00  0.00    +0.000 A 
ATOM      5  S   UNL     1       2.293   6.962  19.541  0.00  0.00    +0.000 S 
ATOM      6  N   UNL     1       1.910   4.233  19.687  0.00  0.00    +0.000 N 
ATOM      7  C   UNL     1       0.734   4.351  20.542  0.00  0.00    +0.000 C 
ATOM      8  C   UNL     1       2.248   2.904  19.390  0.00  0.00    +0.000 A 
ATOM      9  O   UNL     1       1.638   1.920  19.787  0.00  0.00    +0.000 OA
ATOM     10  N   UNL     1       3.408   2.690  18.553  0.00  0.00    +0.000 N 
ATOM     11  C   UNL     1       3.792   1.314  18.214  0.00  0.00    +0.000 C 
ATOM     12  C   UNL     1       4.106   3.780  18.083  0.00  0.00    +0.000 A 
ATOM     13  N   UNL     1       5.228   3.862  17.306  0.00  0.00    +0.000 N 
ATOM     14  H   UNL     1       5.797   3.112  16.951  0.00  0.00    +0.000 HD
ENDROOT
BRANCH   1  15
ATOM     15  S   UNL     1       6.929   5.682  16.305  0.00  0.00    +0.000 S 
BRANCH  15  16
ATOM     16  C   UNL     1       7.912   6.501  17.637  0.00  0.00    +0.000 C 
ATOM     17  C   UNL     1       7.518   5.876  18.984  0.00  0.00    +0.000 C 
BRANCH  16  18
ATOM     18  C   UNL     1       7.646   8.019  17.616  0.00  0.00    +0.000 C 
BRANCH  18  20
ATOM     19  C   UNL     1       8.748  10.256  18.070  0.00  0.00    +0.000 C 
ATOM     20  C   UNL     1       8.567   8.821  18.541  0.00  0.00    +0.000 C 
ENDBRANCH  18  20
ENDBRANCH  16  18
ENDBRANCH  15  16
ENDBRANCH   1  15
TORSDOF 4
ENDMDL
MODEL 8
REMARK VINA RESULT:      -5.9      2.098      3.246
REMARK  Name = 
REMARK  8 active torsions:
REMARK  status: ('A' for Active; 'I' for Inactive)
REMARK    1  A    between atoms: C_1  and  C_2
REMARK    2  A    between atoms: C_2  and  C_3
REMARK    3  A    between atoms: C_3  and  C_4
REMARK    4  A    between atoms: C_4  and  C_5
REMARK    5  A    between atoms: C_4  and  S_6
REMARK    6  A    between atoms: S_6  and  C_7
REMARK    7  A    between atoms: N_12  and  C_13
REMARK    8  A    between atoms: N_16  and  C_17
REMARK                            x       y       z     vdW  Elec       q    Type
REMARK                         _______ _______ _______ _____ _____    ______ ____
ROOT
ATOM      1  C   UNL     1       5.690   4.724  17.208  0.00  0.00    +0.000 A 
ATOM      2  N   UNL     1       4.860   5.599  17.714  0.00  0.00    +0.000 NA
ATOM      3  C   UNL     1       3.912   4.853  18.393  0.00  0.00    +0.000 A 
ATOM      4  C   UNL     1       2.790   5.295  19.187  0.00  0.00    +0.000 A 
ATOM      5  S   UNL     1       2.591   6.949  19.349  0.00  0.00    +0.000 S 
ATOM      6  N   UNL     1       2.000   4.284  19.748  0.00  0.00    +0.000 N 
ATOM      7  C   UNL     1       0.824   4.572  20.562  0.00  0.00    +0.000 C 
ATOM      8  C   UNL     1       2.239   2.911  19.588  0.00  0.00    +0.000 A 
ATOM      9  O   UNL     1       1.550   2.019  20.065  0.00  0.00    +0.000 OA
ATOM     10  N   UNL     1       3.392   2.530  18.802  0.00  0.00    +0.000 N 
ATOM     11  C   UNL     1       3.675   1.102  18.606  0.00  0.00    +0.000 C 
ATOM     12  C   UNL     1       4.178   3.513  18.245  0.00  0.00    +0.000 A 
ATOM     13  N   UNL     1       5.314   3.435  17.488  0.00  0.00    +0.000 N 
ATOM     14  H   UNL     1       5.830   2.614  17.220  0.00  0.00    +0.000 HD
ENDROOT
BRANCH   1  15
ATOM     15  S   UNL     1       7.163   5.017  16.354  0.00  0.00    +0.000 S 
BRANCH  15  16
ATOM     16  C   UNL     1       6.588   5.129  14.603  0.00  0.00    +0.000 C 
ATOM     17  C   UNL     1       5.346   6.031  14.557  0.00  0.00    +0.000 C 
BRANCH  16  18
ATOM     18  C   UNL     1       6.283   3.715  14.069  0.00  0.00    +0.000 C 
BRANCH  18  20
ATOM     19  C   UNL     1       4.989   3.290  11.932  0.00  0.00    +0.000 C 
ATOM     20  C   UNL     1       6.346   3.605  12.542  0.00  0.00    +0.000 C 
ENDBRANCH  18  20
ENDBRANCH  16  18
ENDBRANCH  15  16
ENDBRANCH   1  15
TORSDOF 4
ENDMDL
MODEL 9
REMARK VINA RESULT:      -5.9      2.134      2.789
REMARK  Name = 
REMARK  8 active torsions:
REMARK  status: ('A' for Active; 'I' for Inactive)
REMARK    1  A    between atoms: C_1  and  C_2
REMARK    2  A    between atoms: C_2  and  C_3
REMARK    3  A    between atoms: C_3  and  C_4
REMARK    4  A    between atoms: C_4  and  C_5
REMARK    5  A    between atoms: C_4  and  S_6
REMARK    6  A    between atoms: S_6  and  C_7
REMARK    7  A    between atoms: N_12  and  C_13
REMARK    8  A    between atoms: N_16  and  C_17
REMARK                            x       y       z     vdW  Elec       q    Type
REMARK                         _______ _______ _______ _____ _____    ______ ____
ROOT
ATOM      1  C   UNL     1       5.995   5.295  18.197  0.00  0.00    +0.000 A 
ATOM      2  N   UNL     1       5.782   4.117  18.722  0.00  0.00    +0.000 NA
ATOM      3  C   UNL     1       4.533   4.201  19.313  0.00  0.00    +0.000 A 
ATOM      4  C   UNL     1       3.766   3.183  19.992  0.00  0.00    +0.000 A 
ATOM      5  S   UNL     1       4.450   1.657  20.072  0.00  0.00    +0.000 S 
ATOM      6  N   UNL     1       2.523   3.586  20.495  0.00  0.00    +0.000 N 
ATOM      7  C   UNL     1       1.640   2.676  21.217  0.00  0.00    +0.000 C 
ATOM      8  C   UNL     1       2.000   4.882  20.371  0.00  0.00    +0.000 A 
ATOM      9  O   UNL     1       0.920   5.248  20.815  0.00  0.00    +0.000 OA
ATOM     10  N   UNL     1       2.805   5.851  19.660  0.00  0.00    +0.000 N 
ATOM     11  C   UNL     1       2.296   7.221  19.513  0.00  0.00    +0.000 C 
ATOM     12  C   UNL     1       4.029   5.470  19.160  0.00  0.00    +0.000 A 
ATOM     13  N   UNL     1       4.965   6.165  18.446  0.00  0.00    +0.000 N 
ATOM     14  H   UNL     1       4.915   7.110  18.106  0.00  0.00    +0.000 HD
ENDROOT
BRANCH   1  15
ATOM     15  S   UNL     1       7.321   5.801  17.210  0.00  0.00    +0.000 S 
BRANCH  15  16
ATOM     16  C   UNL     1       6.624   5.646  15.506  0.00  0.00    +0.000 C 
ATOM     17  C   UNL     1       5.254   6.338  15.477  0.00  0.00    +0.000 C 
BRANCH  16  18
ATOM     18  C   UNL     1       6.515   4.155  15.128  0.00  0.00    +0.000 C 
BRANCH  18  20
ATOM     19  C   UNL     1       6.311   3.585  12.667  0.00  0.00    +0.000 C 
ATOM     20  C   UNL     1       5.564   3.882  13.958  0.00  0.00    +0.000 C 
ENDBRANCH  18  20
ENDBRANCH  16  18
ENDBRANCH  15  16
ENDBRANCH   1  15
TORSDOF 4
ENDMDL
