MODEL 1
REMARK VINA RESULT:      -9.0      0.000      0.000
REMARK  Name = 
REMARK  2 active torsions:
REMARK  status: ('A' for Active; 'I' for Inactive)
REMARK    1  A    between atoms: C_13  and  C_14
REMARK    2  A    between atoms: C_19  and  C_20
REMARK                            x       y       z     vdW  Elec       q    Type
REMARK                         _______ _______ _______ _____ _____    ______ ____
ROOT
ATOM      1  O   UNL     1       2.337  10.882  17.256  0.00  0.00    +0.000 OA
ATOM      2  C   UNL     1       1.953  10.304  18.265  0.00  0.00    +0.000 C 
ATOM      3  C   UNL     1       1.268  11.039  19.370  0.00  0.00    +0.000 A 
ATOM      4  C   UNL     1       1.086  12.421  19.233  0.00  0.00    +0.000 A 
ATOM      5  C   UNL     1       0.449  13.144  20.240  0.00  0.00    +0.000 A 
ATOM      6  C   UNL     1      -0.009  12.493  21.386  0.00  0.00    +0.000 A 
ATOM      7  C   UNL     1       0.169  11.116  21.534  0.00  0.00    +0.000 A 
ATOM      8  C   UNL     1       0.807  10.378  20.530  0.00  0.00    +0.000 A 
ATOM      9  C   UNL     1       0.991   8.896  20.704  0.00  0.00    +0.000 C 
ATOM     10  O   UNL     1       0.570   8.326  21.705  0.00  0.00    +0.000 OA
ATOM     11  C   UNL     1       1.676   8.266  19.605  0.00  0.00    +0.000 A 
ATOM     12  O   UNL     1       1.981   6.940  19.576  0.00  0.00    +0.000 OA
ATOM     13  C   UNL     1       2.628   6.703  18.383  0.00  0.00    +0.000 A 
ATOM     14  C   UNL     1       2.740   7.895  17.680  0.00  0.00    +0.000 A 
ATOM     15  C   UNL     1       2.128   8.891  18.466  0.00  0.00    +0.000 A 
ENDROOT
BRANCH  13  16
ATOM     16  C   UNL     1       3.180   5.402  18.045  0.00  0.00    +0.000 C 
ATOM     17  O   UNL     1       2.681   4.381  18.526  0.00  0.00    +0.000 OA
ATOM     18  N   UNL     1       4.290   5.310  17.199  0.00  0.00    +0.000 N 
ATOM     19  C   UNL     1       4.632   4.007  16.634  0.00  0.00    +0.000 C 
ATOM     20  C   UNL     1       6.112   3.694  16.820  0.00  0.00    +0.000 C 
ATOM     21  C   UNL     1       7.008   4.797  16.217  0.00  0.00    +0.000 C 
ATOM     22  C   UNL     1       6.593   6.145  16.837  0.00  0.00    +0.000 C 
ATOM     23  C   UNL     1       5.092   6.438  16.737  0.00  0.00    +0.000 C 
BRANCH  21  24
ATOM     24  C   UNL     1       7.066   4.737  14.692  0.00  0.00    +0.000 A 
ATOM     25  C   UNL     1       7.895   5.560  13.916  0.00  0.00    +0.000 A 
ATOM     26  C   UNL     1       7.884   5.495  12.519  0.00  0.00    +0.000 A 
ATOM     27  C   UNL     1       7.063   4.581  11.869  0.00  0.00    +0.000 A 
ATOM     28  C   UNL     1       6.267   3.724  12.620  0.00  0.00    +0.000 A 
ATOM     29 CL   UNL     1       5.268   2.570  11.825  0.00  0.00    +0.000 Cl
ATOM     30  C   UNL     1       6.271   3.793  14.015  0.00  0.00    +0.000 A 
ENDBRANCH  21  24
ENDBRANCH  13  16
TORSDOF 2
ENDMDL
MODEL 2
REMARK VINA RESULT:      -8.8      4.461      9.375
REMARK  Name = 
REMARK  2 active torsions:
REMARK  status: ('A' for Active; 'I' for Inactive)
REMARK    1  A    between atoms: C_13  and  C_14
REMARK    2  A    between atoms: C_19  and  C_20
REMARK                            x       y       z     vdW  Elec       q    Type
REMARK                         _______ _______ _______ _____ _____    ______ ____
ROOT
ATOM      1  O   UNL     1       1.127   3.789  21.078  0.00  0.00    +0.000 OA
ATOM      2  C   UNL     1       1.735   4.502  20.289  0.00  0.00    +0.000 C 
ATOM      3  C   UNL     1       2.565   3.918  19.193  0.00  0.00    +0.000 A 
ATOM      4  C   UNL     1       2.648   2.523  19.096  0.00  0.00    +0.000 A 
ATOM      5  C   UNL     1       3.409   1.937  18.086  0.00  0.00    +0.000 A 
ATOM      6  C   UNL     1       4.091   2.739  17.171  0.00  0.00    +0.000 A 
ATOM      7  C   UNL     1       4.018   4.131  17.259  0.00  0.00    +0.000 A 
ATOM      8  C   UNL     1       3.257   4.731  18.268  0.00  0.00    +0.000 A 
ATOM      9  C   UNL     1       3.188   6.231  18.350  0.00  0.00    +0.000 C 
ATOM     10  O   UNL     1       3.775   6.930  17.531  0.00  0.00    +0.000 OA
ATOM     11  C   UNL     1       2.385   6.713  19.444  0.00  0.00    +0.000 A 
ATOM     12  O   UNL     1       2.220   8.035  19.724  0.00  0.00    +0.000 OA
ATOM     13  C   UNL     1       1.397   8.112  20.826  0.00  0.00    +0.000 A 
ATOM     14  C   UNL     1       1.067   6.828  21.241  0.00  0.00    +0.000 A 
ATOM     15  C   UNL     1       1.700   5.938  20.352  0.00  0.00    +0.000 A 
ENDROOT
BRANCH  13  16
ATOM     16  C   UNL     1       1.071   9.376  21.465  0.00  0.00    +0.000 C 
ATOM     17  O   UNL     1       0.912   9.422  22.687  0.00  0.00    +0.000 OA
ATOM     18  N   UNL     1       0.913  10.531  20.692  0.00  0.00    +0.000 N 
ATOM     19  C   UNL     1       0.893  11.827  21.367  0.00  0.00    +0.000 C 
ATOM     20  C   UNL     1      -0.291  12.670  20.912  0.00  0.00    +0.000 C 
ATOM     21  C   UNL     1      -0.303  12.859  19.380  0.00  0.00    +0.000 C 
ATOM     22  C   UNL     1      -0.266  11.465  18.725  0.00  0.00    +0.000 C 
ATOM     23  C   UNL     1       0.868  10.569  19.234  0.00  0.00    +0.000 C 
BRANCH  21  24
ATOM     24  C   UNL     1       0.746  13.862  18.905  0.00  0.00    +0.000 A 
ATOM     25  C   UNL     1       1.949  13.492  18.285  0.00  0.00    +0.000 A 
ATOM     26  C   UNL     1       2.896  14.447  17.903  0.00  0.00    +0.000 A 
ATOM     27  C   UNL     1       2.645  15.799  18.105  0.00  0.00    +0.000 A 
ATOM     28  C   UNL     1       1.439  16.192  18.676  0.00  0.00    +0.000 A 
ATOM     29 CL   UNL     1       1.109  17.865  18.905  0.00  0.00    +0.000 Cl
ATOM     30  C   UNL     1       0.496  15.239  19.066  0.00  0.00    +0.000 A 
ENDBRANCH  21  24
ENDBRANCH  13  16
TORSDOF 2
ENDMDL
MODEL 3
REMARK VINA RESULT:      -8.8      4.541      9.313
REMARK  Name = 
REMARK  2 active torsions:
REMARK  status: ('A' for Active; 'I' for Inactive)
REMARK    1  A    between atoms: C_13  and  C_14
REMARK    2  A    between atoms: C_19  and  C_20
REMARK                            x       y       z     vdW  Elec       q    Type
REMARK                         _______ _______ _______ _____ _____    ______ ____
ROOT
ATOM      1  O   UNL     1       3.936   6.498  17.463  0.00  0.00    +0.000 OA
ATOM      2  C   UNL     1       3.311   5.881  18.317  0.00  0.00    +0.000 C 
ATOM      3  C   UNL     1       3.315   4.388  18.357  0.00  0.00    +0.000 A 
ATOM      4  C   UNL     1       4.043   3.701  17.377  0.00  0.00    +0.000 A 
ATOM      5  C   UNL     1       4.075   2.307  17.380  0.00  0.00    +0.000 A 
ATOM      6  C   UNL     1       3.382   1.594  18.359  0.00  0.00    +0.000 A 
ATOM      7  C   UNL     1       2.651   2.269  19.340  0.00  0.00    +0.000 A 
ATOM      8  C   UNL     1       2.611   3.668  19.347  0.00  0.00    +0.000 A 
ATOM      9  C   UNL     1       1.819   4.379  20.410  0.00  0.00    +0.000 C 
ATOM     10  O   UNL     1       1.228   3.747  21.278  0.00  0.00    +0.000 OA
ATOM     11  C   UNL     1       1.851   5.815  20.289  0.00  0.00    +0.000 A 
ATOM     12  O   UNL     1       1.171   6.649  21.122  0.00  0.00    +0.000 OA
ATOM     13  C   UNL     1       1.438   7.936  20.706  0.00  0.00    +0.000 A 
ATOM     14  C   UNL     1       2.272   7.893  19.596  0.00  0.00    +0.000 A 
ATOM     15  C   UNL     1       2.534   6.534  19.336  0.00  0.00    +0.000 A 
ENDROOT
BRANCH  13  16
ATOM     16  C   UNL     1       0.808   9.094  21.315  0.00  0.00    +0.000 C 
ATOM     17  O   UNL     1       0.431   9.040  22.488  0.00  0.00    +0.000 OA
ATOM     18  N   UNL     1       0.605  10.257  20.565  0.00  0.00    +0.000 N 
ATOM     19  C   UNL     1       0.259  11.491  21.268  0.00  0.00    +0.000 C 
ATOM     20  C   UNL     1      -0.947  12.171  20.631  0.00  0.00    +0.000 C 
ATOM     21  C   UNL     1      -0.719  12.450  19.130  0.00  0.00    +0.000 C 
ATOM     22  C   UNL     1      -0.345  11.120  18.447  0.00  0.00    +0.000 C 
ATOM     23  C   UNL     1       0.811  10.377  19.126  0.00  0.00    +0.000 C 
BRANCH  21  24
ATOM     24  C   UNL     1       0.223  13.628  18.889  0.00  0.00    +0.000 A 
ATOM     25  C   UNL     1       1.555  13.483  18.474  0.00  0.00    +0.000 A 
ATOM     26  C   UNL     1       2.389  14.593  18.304  0.00  0.00    +0.000 A 
ATOM     27  C   UNL     1       1.898  15.875  18.516  0.00  0.00    +0.000 A 
ATOM     28  C   UNL     1       0.568  16.045  18.883  0.00  0.00    +0.000 A 
ATOM     29 CL   UNL     1      -0.056  17.631  19.122  0.00  0.00    +0.000 Cl
ATOM     30  C   UNL     1      -0.265  14.938  19.062  0.00  0.00    +0.000 A 
ENDBRANCH  21  24
ENDBRANCH  13  16
TORSDOF 2
ENDMDL
MODEL 4
REMARK VINA RESULT:      -8.7      4.009      9.117
REMARK  Name = 
REMARK  2 active torsions:
REMARK  status: ('A' for Active; 'I' for Inactive)
REMARK    1  A    between atoms: C_13  and  C_14
REMARK    2  A    between atoms: C_19  and  C_20
REMARK                            x       y       z     vdW  Elec       q    Type
REMARK                         _______ _______ _______ _____ _____    ______ ____
ROOT
ATOM      1  O   UNL     1       3.943   6.636  17.536  0.00  0.00    +0.000 OA
ATOM      2  C   UNL     1       3.323   5.987  18.370  0.00  0.00    +0.000 C 
ATOM      3  C   UNL     1       3.351   4.494  18.371  0.00  0.00    +0.000 A 
ATOM      4  C   UNL     1       4.095   3.844  17.377  0.00  0.00    +0.000 A 
ATOM      5  C   UNL     1       4.150   2.452  17.344  0.00  0.00    +0.000 A 
ATOM      6  C   UNL     1       3.463   1.703  18.299  0.00  0.00    +0.000 A 
ATOM      7  C   UNL     1       2.716   2.339  19.293  0.00  0.00    +0.000 A 
ATOM      8  C   UNL     1       2.654   3.737  19.337  0.00  0.00    +0.000 A 
ATOM      9  C   UNL     1       1.845   4.408  20.414  0.00  0.00    +0.000 C 
ATOM     10  O   UNL     1       1.258   3.744  21.261  0.00  0.00    +0.000 OA
ATOM     11  C   UNL     1       1.854   5.846  20.330  0.00  0.00    +0.000 A 
ATOM     12  O   UNL     1       1.156   6.648  21.182  0.00  0.00    +0.000 OA
ATOM     13  C   UNL     1       1.405   7.948  20.801  0.00  0.00    +0.000 A 
ATOM     14  C   UNL     1       2.245   7.948  19.695  0.00  0.00    +0.000 A 
ATOM     15  C   UNL     1       2.530   6.601  19.400  0.00  0.00    +0.000 A 
ENDROOT
BRANCH  13  16
ATOM     16  C   UNL     1       0.753   9.081  21.436  0.00  0.00    +0.000 C 
ATOM     17  O   UNL     1       0.386   8.995  22.611  0.00  0.00    +0.000 OA
ATOM     18  N   UNL     1       0.518  10.252  20.710  0.00  0.00    +0.000 N 
ATOM     19  C   UNL     1       0.149  11.464  21.439  0.00  0.00    +0.000 C 
ATOM     20  C   UNL     1      -1.076  12.129  20.824  0.00  0.00    +0.000 C 
ATOM     21  C   UNL     1      -0.866  12.441  19.327  0.00  0.00    +0.000 C 
ATOM     22  C   UNL     1      -0.466  11.134  18.616  0.00  0.00    +0.000 C 
ATOM     23  C   UNL     1       0.711  10.404  19.273  0.00  0.00    +0.000 C 
BRANCH  21  24
ATOM     24  C   UNL     1       0.047  13.645  19.102  0.00  0.00    +0.000 A 
ATOM     25  C   UNL     1      -0.376  14.975  19.244  0.00  0.00    +0.000 A 
ATOM     26  C   UNL     1       0.487  16.045  18.988  0.00  0.00    +0.000 A 
ATOM     27  C   UNL     1       1.804  15.806  18.614  0.00  0.00    +0.000 A 
ATOM     28  C   UNL     1       2.257  14.495  18.511  0.00  0.00    +0.000 A 
ATOM     29 CL   UNL     1       3.894  14.190  18.074  0.00  0.00    +0.000 Cl
ATOM     30  C   UNL     1       1.395  13.425  18.758  0.00  0.00    +0.000 A 
ENDBRANCH  21  24
ENDBRANCH  13  16
TORSDOF 2
ENDMDL
MODEL 5
REMARK VINA RESULT:      -8.7      1.417      2.583
REMARK  Name = 
REMARK  2 active torsions:
REMARK  status: ('A' for Active; 'I' for Inactive)
REMARK    1  A    between atoms: C_13  and  C_14
REMARK    2  A    between atoms: C_19  and  C_20
REMARK                            x       y       z     vdW  Elec       q    Type
REMARK                         _______ _______ _______ _____ _____    ______ ____
ROOT
ATOM      1  O   UNL     1       0.015   9.297  22.490  0.00  0.00    +0.000 OA
ATOM      2  C   UNL     1       0.419   9.533  21.358  0.00  0.00    +0.000 C 
ATOM      3  C   UNL     1       0.165  10.850  20.701  0.00  0.00    +0.000 A 
ATOM      4  C   UNL     1      -0.567  11.813  21.407  0.00  0.00    +0.000 A 
ATOM      5  C   UNL     1      -0.824  13.056  20.831  0.00  0.00    +0.000 A 
ATOM      6  C   UNL     1      -0.354  13.343  19.549  0.00  0.00    +0.000 A 
ATOM      7  C   UNL     1       0.375  12.389  18.834  0.00  0.00    +0.000 A 
ATOM      8  C   UNL     1       0.639  11.137  19.402  0.00  0.00    +0.000 A 
ATOM      9  C   UNL     1       1.425  10.121  18.619  0.00  0.00    +0.000 C 
ATOM     10  O   UNL     1       1.851  10.386  17.500  0.00  0.00    +0.000 OA
ATOM     11  C   UNL     1       1.609   8.874  19.316  0.00  0.00    +0.000 A 
ATOM     12  O   UNL     1       2.256   7.805  18.774  0.00  0.00    +0.000 OA
ATOM     13  C   UNL     1       2.237   6.804  19.721  0.00  0.00    +0.000 A 
ATOM     14  C   UNL     1       1.556   7.251  20.846  0.00  0.00    +0.000 A 
ATOM     15  C   UNL     1       1.159   8.576  20.581  0.00  0.00    +0.000 A 
ENDROOT
BRANCH  13  16
ATOM     16  C   UNL     1       2.765   5.476  19.456  0.00  0.00    +0.000 C 
ATOM     17  O   UNL     1       2.299   4.502  20.053  0.00  0.00    +0.000 OA
ATOM     18  N   UNL     1       3.815   5.308  18.549  0.00  0.00    +0.000 N 
ATOM     19  C   UNL     1       4.118   3.960  18.072  0.00  0.00    +0.000 C 
ATOM     20  C   UNL     1       5.607   3.655  18.184  0.00  0.00    +0.000 C 
ATOM     21  C   UNL     1       6.461   4.698  17.433  0.00  0.00    +0.000 C 
ATOM     22  C   UNL     1       6.089   6.096  17.966  0.00  0.00    +0.000 C 
ATOM     23  C   UNL     1       4.584   6.389  17.942  0.00  0.00    +0.000 C 
BRANCH  21  24
ATOM     24  C   UNL     1       6.416   4.513  15.918  0.00  0.00    +0.000 A 
ATOM     25  C   UNL     1       5.457   3.728  15.261  0.00  0.00    +0.000 A 
ATOM     26  C   UNL     1       5.482   3.557  13.874  0.00  0.00    +0.000 A 
ATOM     27  C   UNL     1       6.451   4.195  13.108  0.00  0.00    +0.000 A 
ATOM     28  C   UNL     1       7.384   5.015  13.733  0.00  0.00    +0.000 A 
ATOM     29 CL   UNL     1       8.570   5.830  12.791  0.00  0.00    +0.000 Cl
ATOM     30  C   UNL     1       7.366   5.180  15.120  0.00  0.00    +0.000 A 
ENDBRANCH  21  24
ENDBRANCH  13  16
TORSDOF 2
ENDMDL
MODEL 6
REMARK VINA RESULT:      -8.7      3.876      9.418
REMARK  Name = 
REMARK  2 active torsions:
REMARK  status: ('A' for Active; 'I' for Inactive)
REMARK    1  A    between atoms: C_13  and  C_14
REMARK    2  A    between atoms: C_19  and  C_20
REMARK                            x       y       z     vdW  Elec       q    Type
REMARK                         _______ _______ _______ _____ _____    ______ ____
ROOT
ATOM      1  O   UNL     1       1.874   4.755  21.228  0.00  0.00    +0.000 OA
ATOM      2  C   UNL     1       2.186   5.517  20.322  0.00  0.00    +0.000 C 
ATOM      3  C   UNL     1       2.963   5.042  19.138  0.00  0.00    +0.000 A 
ATOM      4  C   UNL     1       3.347   3.696  19.095  0.00  0.00    +0.000 A 
ATOM      5  C   UNL     1       4.072   3.211  18.006  0.00  0.00    +0.000 A 
ATOM      6  C   UNL     1       4.416   4.067  16.960  0.00  0.00    +0.000 A 
ATOM      7  C   UNL     1       4.041   5.412  16.993  0.00  0.00    +0.000 A 
ATOM      8  C   UNL     1       3.313   5.910  18.080  0.00  0.00    +0.000 A 
ATOM      9  C   UNL     1       2.916   7.361  18.102  0.00  0.00    +0.000 C 
ATOM     10  O   UNL     1       3.206   8.103  17.170  0.00  0.00    +0.000 OA
ATOM     11  C   UNL     1       2.187   7.741  19.284  0.00  0.00    +0.000 A 
ATOM     12  O   UNL     1       1.767   9.014  19.525  0.00  0.00    +0.000 OA
ATOM     13  C   UNL     1       1.112   8.997  20.737  0.00  0.00    +0.000 A 
ATOM     14  C   UNL     1       1.146   7.710  21.257  0.00  0.00    +0.000 A 
ATOM     15  C   UNL     1       1.833   6.911  20.322  0.00  0.00    +0.000 A 
ENDROOT
BRANCH  13  16
ATOM     16  C   UNL     1       0.600  10.207  21.359  0.00  0.00    +0.000 C 
ATOM     17  O   UNL     1       0.293  10.198  22.554  0.00  0.00    +0.000 OA
ATOM     18  N   UNL     1       0.432  11.368  20.599  0.00  0.00    +0.000 N 
ATOM     19  C   UNL     1       0.215  12.635  21.295  0.00  0.00    +0.000 C 
ATOM     20  C   UNL     1      -0.977  13.387  20.717  0.00  0.00    +0.000 C 
ATOM     21  C   UNL     1      -0.823  13.624  19.200  0.00  0.00    +0.000 C 
ATOM     22  C   UNL     1      -0.583  12.260  18.524  0.00  0.00    +0.000 C 
ATOM     23  C   UNL     1       0.559  11.450  19.148  0.00  0.00    +0.000 C 
BRANCH  21  24
ATOM     24  C   UNL     1       0.181  14.730  18.879  0.00  0.00    +0.000 A 
ATOM     25  C   UNL     1      -0.151  16.092  18.848  0.00  0.00    +0.000 A 
ATOM     26  C   UNL     1       0.795  17.065  18.510  0.00  0.00    +0.000 A 
ATOM     27  C   UNL     1       2.104  16.696  18.224  0.00  0.00    +0.000 A 
ATOM     28  C   UNL     1       2.467  15.356  18.293  0.00  0.00    +0.000 A 
ATOM     29 CL   UNL     1       4.092  14.893  17.968  0.00  0.00    +0.000 Cl
ATOM     30  C   UNL     1       1.521  14.382  18.623  0.00  0.00    +0.000 A 
ENDBRANCH  21  24
ENDBRANCH  13  16
TORSDOF 2
ENDMDL
MODEL 7
REMARK VINA RESULT:      -8.5      4.663      9.922
REMARK  Name = 
REMARK  2 active torsions:
REMARK  status: ('A' for Active; 'I' for Inactive)
REMARK    1  A    between atoms: C_13  and  C_14
REMARK    2  A    between atoms: C_19  and  C_20
REMARK                            x       y       z     vdW  Elec       q    Type
REMARK                         _______ _______ _______ _____ _____    ______ ____
ROOT
ATOM      1  O   UNL     1       3.447   7.693  17.505  0.00  0.00    +0.000 OA
ATOM      2  C   UNL     1       3.010   6.903  18.333  0.00  0.00    +0.000 C 
ATOM      3  C   UNL     1       3.241   5.433  18.203  0.00  0.00    +0.000 A 
ATOM      4  C   UNL     1       3.961   4.971  17.094  0.00  0.00    +0.000 A 
ATOM      5  C   UNL     1       4.202   3.607  16.937  0.00  0.00    +0.000 A 
ATOM      6  C   UNL     1       3.725   2.700  17.883  0.00  0.00    +0.000 A 
ATOM      7  C   UNL     1       3.003   3.149  18.992  0.00  0.00    +0.000 A 
ATOM      8  C   UNL     1       2.756   4.516  19.161  0.00  0.00    +0.000 A 
ATOM      9  C   UNL     1       1.977   4.984  20.360  0.00  0.00    +0.000 C 
ATOM     10  O   UNL     1       1.576   4.183  21.197  0.00  0.00    +0.000 OA
ATOM     11  C   UNL     1       1.781   6.411  20.399  0.00  0.00    +0.000 A 
ATOM     12  O   UNL     1       1.071   7.040  21.376  0.00  0.00    +0.000 OA
ATOM     13  C   UNL     1       1.100   8.387  21.087  0.00  0.00    +0.000 A 
ATOM     14  C   UNL     1       1.815   8.588  19.913  0.00  0.00    +0.000 A 
ATOM     15  C   UNL     1       2.250   7.320  19.480  0.00  0.00    +0.000 A 
ENDROOT
BRANCH  13  16
ATOM     16  C   UNL     1       0.367   9.365  21.874  0.00  0.00    +0.000 C 
ATOM     17  O   UNL     1       0.160   9.155  23.072  0.00  0.00    +0.000 OA
ATOM     18  N   UNL     1      -0.125  10.525  21.268  0.00  0.00    +0.000 N 
ATOM     19  C   UNL     1      -0.579  11.621  22.122  0.00  0.00    +0.000 C 
ATOM     20  C   UNL     1      -1.955  12.120  21.697  0.00  0.00    +0.000 C 
ATOM     21  C   UNL     1      -1.974  12.547  20.214  0.00  0.00    +0.000 C 
ATOM     22  C   UNL     1      -1.473  11.362  19.367  0.00  0.00    +0.000 C 
ATOM     23  C   UNL     1      -0.130  10.789  19.834  0.00  0.00    +0.000 C 
BRANCH  21  24
ATOM     24  C   UNL     1      -1.284  13.890  19.982  0.00  0.00    +0.000 A 
ATOM     25  C   UNL     1      -0.379  14.126  18.937  0.00  0.00    +0.000 A 
ATOM     26  C   UNL     1       0.257  15.362  18.789  0.00  0.00    +0.000 A 
ATOM     27  C   UNL     1      -0.024  16.402  19.668  0.00  0.00    +0.000 A 
ATOM     28  C   UNL     1      -0.952  16.204  20.684  0.00  0.00    +0.000 A 
ATOM     29 CL   UNL     1      -1.325  17.494  21.761  0.00  0.00    +0.000 Cl
ATOM     30  C   UNL     1      -1.582  14.968  20.839  0.00  0.00    +0.000 A 
ENDBRANCH  21  24
ENDBRANCH  13  16
TORSDOF 2
ENDMDL
MODEL 8
REMARK VINA RESULT:      -8.5      4.067      9.441
REMARK  Name = 
REMARK  2 active torsions:
REMARK  status: ('A' for Active; 'I' for Inactive)
REMARK    1  A    between atoms: C_13  and  C_14
REMARK    2  A    between atoms: C_19  and  C_20
REMARK                            x       y       z     vdW  Elec       q    Type
REMARK                         _______ _______ _______ _____ _____    ______ ____
ROOT
ATOM      1  O   UNL     1       4.434   5.601  16.680  0.00  0.00    +0.000 OA
ATOM      2  C   UNL     1       3.738   5.677  17.686  0.00  0.00    +0.000 C 
ATOM      3  C   UNL     1       3.487   4.485  18.550  0.00  0.00    +0.000 A 
ATOM      4  C   UNL     1       4.055   3.262  18.173  0.00  0.00    +0.000 A 
ATOM      5  C   UNL     1       3.848   2.125  18.953  0.00  0.00    +0.000 A 
ATOM      6  C   UNL     1       3.073   2.204  20.110  0.00  0.00    +0.000 A 
ATOM      7  C   UNL     1       2.499   3.418  20.495  0.00  0.00    +0.000 A 
ATOM      8  C   UNL     1       2.700   4.567  19.720  0.00  0.00    +0.000 A 
ATOM      9  C   UNL     1       2.075   5.866  20.147  0.00  0.00    +0.000 C 
ATOM     10  O   UNL     1       1.410   5.933  21.175  0.00  0.00    +0.000 OA
ATOM     11  C   UNL     1       2.350   6.960  19.251  0.00  0.00    +0.000 A 
ATOM     12  O   UNL     1       1.849   8.214  19.428  0.00  0.00    +0.000 OA
ATOM     13  C   UNL     1       2.320   8.984  18.386  0.00  0.00    +0.000 A 
ATOM     14  C   UNL     1       3.100   8.195  17.551  0.00  0.00    +0.000 A 
ATOM     15  C   UNL     1       3.116   6.902  18.110  0.00  0.00    +0.000 A 
ENDROOT
BRANCH  13  16
ATOM     16  C   UNL     1       1.917  10.368  18.201  0.00  0.00    +0.000 C 
ATOM     17  O   UNL     1       2.667  11.151  17.613  0.00  0.00    +0.000 OA
ATOM     18  N   UNL     1       0.694  10.815  18.711  0.00  0.00    +0.000 N 
ATOM     19  C   UNL     1       0.176  12.103  18.255  0.00  0.00    +0.000 C 
ATOM     20  C   UNL     1      -0.253  12.974  19.429  0.00  0.00    +0.000 C 
ATOM     21  C   UNL     1      -1.290  12.260  20.321  0.00  0.00    +0.000 C 
ATOM     22  C   UNL     1      -0.696  10.907  20.758  0.00  0.00    +0.000 C 
ATOM     23  C   UNL     1      -0.179  10.052  19.596  0.00  0.00    +0.000 C 
BRANCH  21  24
ATOM     24  C   UNL     1      -2.680  12.222  19.690  0.00  0.00    +0.000 A 
ATOM     25  C   UNL     1      -3.827  12.740  20.309  0.00  0.00    +0.000 A 
ATOM     26  C   UNL     1      -5.085  12.645  19.706  0.00  0.00    +0.000 A 
ATOM     27  C   UNL     1      -5.218  12.056  18.454  0.00  0.00    +0.000 A 
ATOM     28  C   UNL     1      -4.088  11.577  17.802  0.00  0.00    +0.000 A 
ATOM     29 CL   UNL     1      -4.239  10.870  16.241  0.00  0.00    +0.000 Cl
ATOM     30  C   UNL     1      -2.831  11.663  18.406  0.00  0.00    +0.000 A 
ENDBRANCH  21  24
ENDBRANCH  13  16
TORSDOF 2
ENDMDL
MODEL 9
REMARK VINA RESULT:      -8.4      0.701      2.017
REMARK  Name = 
REMARK  2 active torsions:
REMARK  status: ('A' for Active; 'I' for Inactive)
REMARK    1  A    between atoms: C_13  and  C_14
REMARK    2  A    between atoms: C_19  and  C_20
REMARK                            x       y       z     vdW  Elec       q    Type
REMARK                         _______ _______ _______ _____ _____    ______ ____
ROOT
ATOM      1  O   UNL     1       0.557   8.872  22.083  0.00  0.00    +0.000 OA
ATOM      2  C   UNL     1       0.916   9.245  20.973  0.00  0.00    +0.000 C 
ATOM      3  C   UNL     1       0.771  10.669  20.547  0.00  0.00    +0.000 A 
ATOM      4  C   UNL     1       0.194  11.575  21.446  0.00  0.00    +0.000 A 
ATOM      5  C   UNL     1       0.043  12.914  21.089  0.00  0.00    +0.000 A 
ATOM      6  C   UNL     1       0.465  13.354  19.835  0.00  0.00    +0.000 A 
ATOM      7  C   UNL     1       1.039  12.460  18.928  0.00  0.00    +0.000 A 
ATOM      8  C   UNL     1       1.196  11.113  19.275  0.00  0.00    +0.000 A 
ATOM      9  C   UNL     1       1.816  10.162  18.288  0.00  0.00    +0.000 C 
ATOM     10  O   UNL     1       2.202  10.560  17.194  0.00  0.00    +0.000 OA
ATOM     11  C   UNL     1       1.902   8.807  18.768  0.00  0.00    +0.000 A 
ATOM     12  O   UNL     1       2.393   7.780  18.021  0.00  0.00    +0.000 OA
ATOM     13  C   UNL     1       2.319   6.646  18.802  0.00  0.00    +0.000 A 
ATOM     14  C   UNL     1       1.760   6.973  20.030  0.00  0.00    +0.000 A 
ATOM     15  C   UNL     1       1.497   8.356  20.003  0.00  0.00    +0.000 A 
ENDROOT
BRANCH  13  16
ATOM     16  C   UNL     1       2.679   5.332  18.297  0.00  0.00    +0.000 C 
ATOM     17  O   UNL     1       1.962   4.361  18.550  0.00  0.00    +0.000 OA
ATOM     18  N   UNL     1       3.849   5.166  17.548  0.00  0.00    +0.000 N 
ATOM     19  C   UNL     1       4.030   3.923  16.801  0.00  0.00    +0.000 C 
ATOM     20  C   UNL     1       5.403   3.317  17.060  0.00  0.00    +0.000 C 
ATOM     21  C   UNL     1       6.537   4.312  16.736  0.00  0.00    +0.000 C 
ATOM     22  C   UNL     1       6.286   5.603  17.538  0.00  0.00    +0.000 C 
ATOM     23  C   UNL     1       4.878   6.182  17.358  0.00  0.00    +0.000 C 
BRANCH  21  24
ATOM     24  C   UNL     1       6.763   4.476  15.234  0.00  0.00    +0.000 A 
ATOM     25  C   UNL     1       7.682   5.381  14.683  0.00  0.00    +0.000 A 
ATOM     26  C   UNL     1       7.824   5.522  13.299  0.00  0.00    +0.000 A 
ATOM     27  C   UNL     1       7.069   4.737  12.435  0.00  0.00    +0.000 A 
ATOM     28  C   UNL     1       6.185   3.802  12.960  0.00  0.00    +0.000 A 
ATOM     29 CL   UNL     1       5.266   2.806  11.899  0.00  0.00    +0.000 Cl
ATOM     30  C   UNL     1       6.035   3.665  14.342  0.00  0.00    +0.000 A 
ENDBRANCH  21  24
ENDBRANCH  13  16
TORSDOF 2
ENDMDL
