MODEL 1
REMARK VINA RESULT:      -7.4      0.000      0.000
REMARK  Name = 
REMARK  2 active torsions:
REMARK  status: ('A' for Active; 'I' for Inactive)
REMARK    1  A    between atoms: C_15  and  O_16
REMARK    2  A    between atoms: C_17  and  O_18
REMARK                            x       y       z     vdW  Elec       q    Type
REMARK                         _______ _______ _______ _____ _____    ______ ____
ROOT
ATOM      1  O   UNL     1       3.216   1.716  17.937  0.00  0.00    +0.000 OA
ATOM      2  C   UNL     1       2.763   2.691  18.527  0.00  0.00    +0.000 A 
ATOM      3  C   UNL     1       1.879   2.515  19.752  0.00  0.00    +0.000 A 
ATOM      4  C   UNL     1       1.438   3.573  20.478  0.00  0.00    +0.000 A 
ATOM      5  C   UNL     1       1.778   4.880  20.065  0.00  0.00    +0.000 A 
ATOM      6  N   UNL     1       1.596   6.091  20.652  0.00  0.00    +0.000 NA
ATOM      7  N   UNL     1       2.215   7.012  19.887  0.00  0.00    +0.000 NA
ATOM      8  N   UNL     1       2.811   6.372  18.846  0.00  0.00    +0.000 N 
ATOM      9  C   UNL     1       2.514   5.020  18.937  0.00  0.00    +0.000 A 
ATOM     10  N   UNL     1       3.011   3.985  18.142  0.00  0.00    +0.000 N 
ATOM     11  C   UNL     1       3.986   4.436  17.246  0.00  0.00    +0.000 C 
ATOM     12  O   UNL     1       4.934   5.119  18.104  0.00  0.00    +0.000 OA
ATOM     13  C   UNL     1       5.006   6.365  17.433  0.00  0.00    +0.000 C 
ATOM     14  C   UNL     1       3.645   7.081  17.840  0.00  0.00    +0.000 C 
ATOM     15  C   UNL     1       5.257   5.775  15.976  0.00  0.00    +0.000 C 
ATOM     16  C   UNL     1       4.857   4.207  16.063  0.00  0.00    +0.000 C 
ENDROOT
BRANCH  15  17
ATOM     17  O   UNL     1       6.634   5.900  15.628  0.00  0.00    +0.000 OA
ATOM     18  H   UNL     1       6.895   6.798  15.929  0.00  0.00    +0.000 HD
ENDBRANCH  15  17
BRANCH  16  19
ATOM     19  O   UNL     1       6.010   3.408  16.348  0.00  0.00    +0.000 OA
ATOM     20  H   UNL     1       5.697   2.630  16.852  0.00  0.00    +0.000 HD
ENDBRANCH  16  19
TORSDOF 2
ENDMDL
MODEL 2
REMARK VINA RESULT:      -7.2      1.284      1.284
REMARK  Name = 
REMARK  2 active torsions:
REMARK  status: ('A' for Active; 'I' for Inactive)
REMARK    1  A    between atoms: C_15  and  O_16
REMARK    2  A    between atoms: C_17  and  O_18
REMARK                            x       y       z     vdW  Elec       q    Type
REMARK                         _______ _______ _______ _____ _____    ______ ____
ROOT
ATOM      1  O   UNL     1       4.832   2.138  19.652  0.00  0.00    +0.000 OA
ATOM      2  C   UNL     1       4.041   3.063  19.807  0.00  0.00    +0.000 A 
ATOM      3  C   UNL     1       3.011   3.024  20.925  0.00  0.00    +0.000 A 
ATOM      4  C   UNL     1       2.185   4.070  21.177  0.00  0.00    +0.000 A 
ATOM      5  C   UNL     1       2.256   5.216  20.357  0.00  0.00    +0.000 A 
ATOM      6  N   UNL     1       1.664   6.434  20.449  0.00  0.00    +0.000 NA
ATOM      7  N   UNL     1       2.165   7.208  19.466  0.00  0.00    +0.000 NA
ATOM      8  N   UNL     1       3.093   6.485  18.785  0.00  0.00    +0.000 N 
ATOM      9  C   UNL     1       3.136   5.209  19.327  0.00  0.00    +0.000 A 
ATOM     10  N   UNL     1       4.023   4.179  19.007  0.00  0.00    +0.000 N 
ATOM     11  C   UNL     1       5.006   4.597  18.105  0.00  0.00    +0.000 C 
ATOM     12  O   UNL     1       5.566   5.771  18.744  0.00  0.00    +0.000 OA
ATOM     13  C   UNL     1       5.448   6.700  17.680  0.00  0.00    +0.000 C 
ATOM     14  C   UNL     1       3.898   7.057  17.674  0.00  0.00    +0.000 C 
ATOM     15  C   UNL     1       6.117   5.785  16.562  0.00  0.00    +0.000 C 
ATOM     16  C   UNL     1       6.119   4.282  17.170  0.00  0.00    +0.000 C 
ENDROOT
BRANCH  15  17
ATOM     17  O   UNL     1       7.458   6.206  16.323  0.00  0.00    +0.000 OA
ATOM     18  H   UNL     1       7.522   6.319  15.349  0.00  0.00    +0.000 HD
ENDBRANCH  15  17
BRANCH  16  19
ATOM     19  O   UNL     1       7.359   4.006  17.828  0.00  0.00    +0.000 OA
ATOM     20  H   UNL     1       7.706   3.177  17.440  0.00  0.00    +0.000 HD
ENDBRANCH  16  19
TORSDOF 2
ENDMDL
MODEL 3
REMARK VINA RESULT:      -6.6      1.752      4.359
REMARK  Name = 
REMARK  2 active torsions:
REMARK  status: ('A' for Active; 'I' for Inactive)
REMARK    1  A    between atoms: C_15  and  O_16
REMARK    2  A    between atoms: C_17  and  O_18
REMARK                            x       y       z     vdW  Elec       q    Type
REMARK                         _______ _______ _______ _____ _____    ______ ____
ROOT
ATOM      1  O   UNL     1       5.021   3.502  17.408  0.00  0.00    +0.000 OA
ATOM      2  C   UNL     1       4.605   4.649  17.532  0.00  0.00    +0.000 A 
ATOM      3  C   UNL     1       4.925   5.707  16.488  0.00  0.00    +0.000 A 
ATOM      4  C   UNL     1       4.404   6.958  16.551  0.00  0.00    +0.000 A 
ATOM      5  C   UNL     1       3.570   7.303  17.637  0.00  0.00    +0.000 A 
ATOM      6  N   UNL     1       2.820   8.406  17.888  0.00  0.00    +0.000 NA
ATOM      7  N   UNL     1       2.118   8.176  19.015  0.00  0.00    +0.000 NA
ATOM      8  N   UNL     1       2.403   6.917  19.445  0.00  0.00    +0.000 N 
ATOM      9  C   UNL     1       3.346   6.367  18.590  0.00  0.00    +0.000 A 
ATOM     10  N   UNL     1       3.836   5.059  18.593  0.00  0.00    +0.000 N 
ATOM     11  C   UNL     1       3.177   4.256  19.529  0.00  0.00    +0.000 C 
ATOM     12  O   UNL     1       1.778   4.432  19.192  0.00  0.00    +0.000 OA
ATOM     13  C   UNL     1       1.271   4.797  20.463  0.00  0.00    +0.000 C 
ATOM     14  C   UNL     1       1.745   6.307  20.630  0.00  0.00    +0.000 C 
ATOM     15  C   UNL     1       1.935   3.600  21.277  0.00  0.00    +0.000 C 
ATOM     16  C   UNL     1       3.078   2.989  20.301  0.00  0.00    +0.000 C 
ENDROOT
BRANCH  15  17
ATOM     17  O   UNL     1       0.960   2.599  21.558  0.00  0.00    +0.000 OA
ATOM     18  H   UNL     1       0.114   2.960  21.211  0.00  0.00    +0.000 HD
ENDBRANCH  15  17
BRANCH  16  19
ATOM     19  O   UNL     1       2.557   1.895  19.540  0.00  0.00    +0.000 OA
ATOM     20  H   UNL     1       2.894   1.075  19.958  0.00  0.00    +0.000 HD
ENDBRANCH  16  19
TORSDOF 2
ENDMDL
MODEL 4
REMARK VINA RESULT:      -6.5      2.546      4.879
REMARK  Name = 
REMARK  2 active torsions:
REMARK  status: ('A' for Active; 'I' for Inactive)
REMARK    1  A    between atoms: C_15  and  O_16
REMARK    2  A    between atoms: C_17  and  O_18
REMARK                            x       y       z     vdW  Elec       q    Type
REMARK                         _______ _______ _______ _____ _____    ______ ____
ROOT
ATOM      1  O   UNL     1       7.385   4.876  20.531  0.00  0.00    +0.000 OA
ATOM      2  C   UNL     1       7.035   5.461  19.511  0.00  0.00    +0.000 A 
ATOM      3  C   UNL     1       7.934   6.505  18.868  0.00  0.00    +0.000 A 
ATOM      4  C   UNL     1       7.614   7.102  17.693  0.00  0.00    +0.000 A 
ATOM      5  C   UNL     1       6.393   6.773  17.063  0.00  0.00    +0.000 A 
ATOM      6  N   UNL     1       5.883   7.101  15.849  0.00  0.00    +0.000 NA
ATOM      7  N   UNL     1       4.728   6.425  15.694  0.00  0.00    +0.000 NA
ATOM      8  N   UNL     1       4.537   5.650  16.796  0.00  0.00    +0.000 N 
ATOM      9  C   UNL     1       5.576   5.887  17.682  0.00  0.00    +0.000 A 
ATOM     10  N   UNL     1       5.837   5.226  18.884  0.00  0.00    +0.000 N 
ATOM     11  C   UNL     1       4.962   4.154  19.091  0.00  0.00    +0.000 C 
ATOM     12  O   UNL     1       5.093   3.379  17.873  0.00  0.00    +0.000 OA
ATOM     13  C   UNL     1       3.727   3.273  17.510  0.00  0.00    +0.000 C 
ATOM     14  C   UNL     1       3.389   4.715  16.928  0.00  0.00    +0.000 C 
ATOM     15  C   UNL     1       3.198   2.780  18.928  0.00  0.00    +0.000 C 
ATOM     16  C   UNL     1       4.389   3.107  19.978  0.00  0.00    +0.000 C 
ENDROOT
BRANCH  15  17
ATOM     17  O   UNL     1       2.957   1.375  18.899  0.00  0.00    +0.000 OA
ATOM     18  H   UNL     1       2.077   1.274  18.474  0.00  0.00    +0.000 HD
ENDBRANCH  15  17
BRANCH  16  19
ATOM     19  O   UNL     1       5.241   1.969  20.144  0.00  0.00    +0.000 OA
ATOM     20  H   UNL     1       6.053   2.287  20.590  0.00  0.00    +0.000 HD
ENDBRANCH  16  19
TORSDOF 2
ENDMDL
MODEL 5
REMARK VINA RESULT:      -6.5      2.184      5.197
REMARK  Name = 
REMARK  2 active torsions:
REMARK  status: ('A' for Active; 'I' for Inactive)
REMARK    1  A    between atoms: C_15  and  O_16
REMARK    2  A    between atoms: C_17  and  O_18
REMARK                            x       y       z     vdW  Elec       q    Type
REMARK                         _______ _______ _______ _____ _____    ______ ____
ROOT
ATOM      1  O   UNL     1       2.595   7.535  18.955  0.00  0.00    +0.000 OA
ATOM      2  C   UNL     1       3.226   6.824  18.179  0.00  0.00    +0.000 A 
ATOM      3  C   UNL     1       4.097   7.440  17.096  0.00  0.00    +0.000 A 
ATOM      4  C   UNL     1       4.874   6.682  16.283  0.00  0.00    +0.000 A 
ATOM      5  C   UNL     1       4.850   5.277  16.420  0.00  0.00    +0.000 A 
ATOM      6  N   UNL     1       5.600   4.298  15.853  0.00  0.00    +0.000 NA
ATOM      7  N   UNL     1       5.241   3.128  16.419  0.00  0.00    +0.000 NA
ATOM      8  N   UNL     1       4.295   3.383  17.362  0.00  0.00    +0.000 N 
ATOM      9  C   UNL     1       4.021   4.742  17.349  0.00  0.00    +0.000 A 
ATOM     10  N   UNL     1       3.198   5.452  18.226  0.00  0.00    +0.000 N 
ATOM     11  C   UNL     1       2.718   4.644  19.262  0.00  0.00    +0.000 C 
ATOM     12  O   UNL     1       3.925   4.063  19.817  0.00  0.00    +0.000 OA
ATOM     13  C   UNL     1       3.571   2.692  19.773  0.00  0.00    +0.000 C 
ATOM     14  C   UNL     1       3.726   2.322  18.233  0.00  0.00    +0.000 C 
ATOM     15  C   UNL     1       2.150   2.846  20.474  0.00  0.00    +0.000 C 
ATOM     16  C   UNL     1       1.799   4.428  20.411  0.00  0.00    +0.000 C 
ENDROOT
BRANCH  15  17
ATOM     17  O   UNL     1       2.228   2.427  21.835  0.00  0.00    +0.000 OA
ATOM     18  H   UNL     1       1.867   1.512  21.842  0.00  0.00    +0.000 HD
ENDBRANCH  15  17
BRANCH  16  19
ATOM     19  O   UNL     1       2.219   5.085  21.611  0.00  0.00    +0.000 OA
ATOM     20  H   UNL     1       1.683   5.900  21.688  0.00  0.00    +0.000 HD
ENDBRANCH  16  19
TORSDOF 2
ENDMDL
MODEL 6
REMARK VINA RESULT:      -6.4      1.364      4.189
REMARK  Name = 
REMARK  2 active torsions:
REMARK  status: ('A' for Active; 'I' for Inactive)
REMARK    1  A    between atoms: C_15  and  O_16
REMARK    2  A    between atoms: C_17  and  O_18
REMARK                            x       y       z     vdW  Elec       q    Type
REMARK                         _______ _______ _______ _____ _____    ______ ____
ROOT
ATOM      1  O   UNL     1       5.468   3.384  16.352  0.00  0.00    +0.000 OA
ATOM      2  C   UNL     1       5.051   4.495  16.661  0.00  0.00    +0.000 A 
ATOM      3  C   UNL     1       5.366   5.710  15.803  0.00  0.00    +0.000 A 
ATOM      4  C   UNL     1       4.844   6.933  16.070  0.00  0.00    +0.000 A 
ATOM      5  C   UNL     1       4.011   7.094  17.198  0.00  0.00    +0.000 A 
ATOM      6  N   UNL     1       3.260   8.140  17.627  0.00  0.00    +0.000 NA
ATOM      7  N   UNL     1       2.560   7.728  18.703  0.00  0.00    +0.000 NA
ATOM      8  N   UNL     1       2.849   6.417  18.922  0.00  0.00    +0.000 N 
ATOM      9  C   UNL     1       3.791   6.015  17.987  0.00  0.00    +0.000 A 
ATOM     10  N   UNL     1       4.283   4.725  17.776  0.00  0.00    +0.000 N 
ATOM     11  C   UNL     1       3.627   3.779  18.570  0.00  0.00    +0.000 C 
ATOM     12  O   UNL     1       2.227   4.005  18.268  0.00  0.00    +0.000 OA
ATOM     13  C   UNL     1       1.722   4.157  19.583  0.00  0.00    +0.000 C 
ATOM     14  C   UNL     1       2.193   5.620  19.992  0.00  0.00    +0.000 C 
ATOM     15  C   UNL     1       2.390   2.844  20.189  0.00  0.00    +0.000 C 
ATOM     16  C   UNL     1       3.531   2.403  19.126  0.00  0.00    +0.000 C 
ENDROOT
BRANCH  15  17
ATOM     17  O   UNL     1       1.417   1.809  20.305  0.00  0.00    +0.000 OA
ATOM     18  H   UNL     1       1.459   1.321  19.453  0.00  0.00    +0.000 HD
ENDBRANCH  15  17
BRANCH  16  19
ATOM     19  O   UNL     1       3.011   1.446  18.197  0.00  0.00    +0.000 OA
ATOM     20  H   UNL     1       3.738   1.229  17.579  0.00  0.00    +0.000 HD
ENDBRANCH  16  19
TORSDOF 2
ENDMDL
MODEL 7
REMARK VINA RESULT:      -6.4      1.793      3.296
REMARK  Name = 
REMARK  2 active torsions:
REMARK  status: ('A' for Active; 'I' for Inactive)
REMARK    1  A    between atoms: C_15  and  O_16
REMARK    2  A    between atoms: C_17  and  O_18
REMARK                            x       y       z     vdW  Elec       q    Type
REMARK                         _______ _______ _______ _____ _____    ______ ____
ROOT
ATOM      1  O   UNL     1       1.995   6.650  20.239  0.00  0.00    +0.000 OA
ATOM      2  C   UNL     1       2.140   5.446  20.055  0.00  0.00    +0.000 A 
ATOM      3  C   UNL     1       1.221   4.442  20.733  0.00  0.00    +0.000 A 
ATOM      4  C   UNL     1       1.299   3.112  20.478  0.00  0.00    +0.000 A 
ATOM      5  C   UNL     1       2.285   2.638  19.585  0.00  0.00    +0.000 A 
ATOM      6  N   UNL     1       2.509   1.410  19.051  0.00  0.00    +0.000 NA
ATOM      7  N   UNL     1       3.515   1.528  18.162  0.00  0.00    +0.000 NA
ATOM      8  N   UNL     1       3.893   2.834  18.117  0.00  0.00    +0.000 N 
ATOM      9  C   UNL     1       3.135   3.540  19.039  0.00  0.00    +0.000 A 
ATOM     10  N   UNL     1       3.115   4.922  19.243  0.00  0.00    +0.000 N 
ATOM     11  C   UNL     1       3.900   5.600  18.305  0.00  0.00    +0.000 C 
ATOM     12  O   UNL     1       3.393   5.117  17.036  0.00  0.00    +0.000 OA
ATOM     13  C   UNL     1       4.607   4.700  16.437  0.00  0.00    +0.000 C 
ATOM     14  C   UNL     1       4.936   3.334  17.184  0.00  0.00    +0.000 C 
ATOM     15  C   UNL     1       5.419   6.042  16.717  0.00  0.00    +0.000 C 
ATOM     16  C   UNL     1       4.565   6.845  17.836  0.00  0.00    +0.000 C 
ENDROOT
BRANCH  15  17
ATOM     17  O   UNL     1       5.500   6.822  15.526  0.00  0.00    +0.000 OA
ATOM     18  H   UNL     1       6.023   7.616  15.775  0.00  0.00    +0.000 HD
ENDBRANCH  15  17
BRANCH  16  19
ATOM     19  O   UNL     1       3.669   7.773  17.216  0.00  0.00    +0.000 OA
ATOM     20  H   UNL     1       2.976   7.980  17.876  0.00  0.00    +0.000 HD
ENDBRANCH  16  19
TORSDOF 2
ENDMDL
MODEL 8
REMARK VINA RESULT:      -6.3      1.771      4.185
REMARK  Name = 
REMARK  2 active torsions:
REMARK  status: ('A' for Active; 'I' for Inactive)
REMARK    1  A    between atoms: C_15  and  O_16
REMARK    2  A    between atoms: C_17  and  O_18
REMARK                            x       y       z     vdW  Elec       q    Type
REMARK                         _______ _______ _______ _____ _____    ______ ____
ROOT
ATOM      1  O   UNL     1       6.858   3.946  18.170  0.00  0.00    +0.000 OA
ATOM      2  C   UNL     1       6.104   4.909  18.073  0.00  0.00    +0.000 A 
ATOM      3  C   UNL     1       6.593   6.223  17.485  0.00  0.00    +0.000 A 
ATOM      4  C   UNL     1       5.760   7.273  17.282  0.00  0.00    +0.000 A 
ATOM      5  C   UNL     1       4.405   7.161  17.662  0.00  0.00    +0.000 A 
ATOM      6  N   UNL     1       3.338   7.976  17.464  0.00  0.00    +0.000 NA
ATOM      7  N   UNL     1       2.244   7.339  17.928  0.00  0.00    +0.000 NA
ATOM      8  N   UNL     1       2.625   6.115  18.382  0.00  0.00    +0.000 N 
ATOM      9  C   UNL     1       4.000   6.005  18.241  0.00  0.00    +0.000 A 
ATOM     10  N   UNL     1       4.791   4.878  18.476  0.00  0.00    +0.000 N 
ATOM     11  C   UNL     1       4.020   3.754  18.786  0.00  0.00    +0.000 C 
ATOM     12  O   UNL     1       3.082   3.679  17.683  0.00  0.00    +0.000 OA
ATOM     13  C   UNL     1       1.867   3.617  18.409  0.00  0.00    +0.000 C 
ATOM     14  C   UNL     1       1.654   5.115  18.900  0.00  0.00    +0.000 C 
ATOM     15  C   UNL     1       2.303   2.449  19.399  0.00  0.00    +0.000 C 
ATOM     16  C   UNL     1       3.918   2.354  19.280  0.00  0.00    +0.000 C 
ENDROOT
BRANCH  15  17
ATOM     17  O   UNL     1       1.720   1.215  18.987  0.00  0.00    +0.000 OA
ATOM     18  H   UNL     1       2.326   0.519  19.327  0.00  0.00    +0.000 HD
ENDBRANCH  15  17
BRANCH  16  19
ATOM     19  O   UNL     1       4.295   1.375  18.307  0.00  0.00    +0.000 OA
ATOM     20  H   UNL     1       3.706   1.503  17.536  0.00  0.00    +0.000 HD
ENDBRANCH  16  19
TORSDOF 2
ENDMDL
MODEL 9
REMARK VINA RESULT:      -6.1      1.835      3.202
REMARK  Name = 
REMARK  2 active torsions:
REMARK  status: ('A' for Active; 'I' for Inactive)
REMARK    1  A    between atoms: C_15  and  O_16
REMARK    2  A    between atoms: C_17  and  O_18
REMARK                            x       y       z     vdW  Elec       q    Type
REMARK                         _______ _______ _______ _____ _____    ______ ____
ROOT
ATOM      1  O   UNL     1       2.332   7.796  19.069  0.00  0.00    +0.000 OA
ATOM      2  C   UNL     1       2.532   6.663  19.492  0.00  0.00    +0.000 A 
ATOM      3  C   UNL     1       1.598   6.041  20.519  0.00  0.00    +0.000 A 
ATOM      4  C   UNL     1       1.742   4.759  20.937  0.00  0.00    +0.000 A 
ATOM      5  C   UNL     1       2.810   3.986  20.433  0.00  0.00    +0.000 A 
ATOM      6  N   UNL     1       3.118   2.670  20.564  0.00  0.00    +0.000 NA
ATOM      7  N   UNL     1       4.186   2.419  19.781  0.00  0.00    +0.000 NA
ATOM      8  N   UNL     1       4.521   3.569  19.136  0.00  0.00    +0.000 N 
ATOM      9  C   UNL     1       3.669   4.575  19.566  0.00  0.00    +0.000 A 
ATOM     10  N   UNL     1       3.585   5.883  19.083  0.00  0.00    +0.000 N 
ATOM     11  C   UNL     1       4.417   6.085  17.977  0.00  0.00    +0.000 C 
ATOM     12  O   UNL     1       4.028   5.024  17.070  0.00  0.00    +0.000 OA
ATOM     13  C   UNL     1       5.300   4.456  16.808  0.00  0.00    +0.000 C 
ATOM     14  C   UNL     1       5.616   3.635  18.133  0.00  0.00    +0.000 C 
ATOM     15  C   UNL     1       6.040   5.821  16.453  0.00  0.00    +0.000 C 
ATOM     16  C   UNL     1       5.073   7.000  17.005  0.00  0.00    +0.000 C 
ENDROOT
BRANCH  15  17
ATOM     17  O   UNL     1       6.187   5.945  15.040  0.00  0.00    +0.000 OA
ATOM     18  H   UNL     1       7.098   6.290  14.907  0.00  0.00    +0.000 HD
ENDBRANCH  15  17
BRANCH  16  19
ATOM     19  O   UNL     1       4.198   7.459  15.970  0.00  0.00    +0.000 OA
ATOM     20  H   UNL     1       3.822   6.661  15.545  0.00  0.00    +0.000 HD
ENDBRANCH  16  19
TORSDOF 2
ENDMDL
