MODEL 1
REMARK VINA RESULT:      -7.7      0.000      0.000
REMARK  Name = 
REMARK  4 active torsions:
REMARK  status: ('A' for Active; 'I' for Inactive)
REMARK    1  A    between atoms: C_2  and  O_3
REMARK    2  A    between atoms: C_2  and  C_4
REMARK    3  A    between atoms: C_6  and  C_7
REMARK    4  A    between atoms: N_13  and  C_14
REMARK                            x       y       z     vdW  Elec       q    Type
REMARK                         _______ _______ _______ _____ _____    ______ ____
ROOT
ATOM      1  C   UNL     1       6.189   4.534  17.660  0.00  0.00    +0.000 A 
ATOM      2  C   UNL     1       5.227   4.318  18.631  0.00  0.00    +0.000 A 
ATOM      3  C   UNL     1       4.053   3.963  17.946  0.00  0.00    +0.000 A 
ATOM      4  N   UNL     1       4.230   4.008  16.623  0.00  0.00    +0.000 NA
ATOM      5  N   UNL     1       5.550   4.308  16.447  0.00  0.00    +0.000 N 
ENDROOT
BRANCH   5   6
ATOM      6  C   UNL     1       6.092   4.306  15.131  0.00  0.00    +0.000 A 
ATOM      7  C   UNL     1       7.186   5.116  14.793  0.00  0.00    +0.000 A 
ATOM      8  C   UNL     1       7.653   5.159  13.477  0.00  0.00    +0.000 A 
ATOM      9  C   UNL     1       7.031   4.397  12.493  0.00  0.00    +0.000 A 
ATOM     10  C   UNL     1       5.968   3.561  12.833  0.00  0.00    +0.000 A 
ATOM     11 CL   UNL     1       5.193   2.633  11.606  0.00  0.00    +0.000 Cl
ATOM     12  C   UNL     1       5.509   3.489  14.149  0.00  0.00    +0.000 A 
ENDBRANCH   5   6
BRANCH   3  13
ATOM     13  C   UNL     1       2.752   3.583  18.595  0.00  0.00    +0.000 A 
ATOM     14  C   UNL     1       1.864   2.657  18.089  0.00  0.00    +0.000 A 
ATOM     15  C   UNL     1       0.728   2.479  18.938  0.00  0.00    +0.000 A 
ATOM     16  C   UNL     1       0.785   3.285  20.054  0.00  0.00    +0.000 A 
ATOM     17  S   UNL     1       2.206   4.232  20.084  0.00  0.00    +0.000 S 
ENDBRANCH   3  13
BRANCH   1  19
ATOM     18  O   UNL     1       7.857   6.183  18.023  0.00  0.00    +0.000 OA
ATOM     19  C   UNL     1       7.527   5.024  17.834  0.00  0.00    +0.000 C 
BRANCH  19  20
ATOM     20  O   UNL     1       8.442   4.025  17.774  0.00  0.00    +0.000 OA
ATOM     21  H   UNL     1       8.208   3.302  17.166  0.00  0.00    +0.000 HD
ENDBRANCH  19  20
ENDBRANCH   1  19
TORSDOF 4
ENDMDL
MODEL 2
REMARK VINA RESULT:      -7.7      3.352      6.178
REMARK  Name = 
REMARK  4 active torsions:
REMARK  status: ('A' for Active; 'I' for Inactive)
REMARK    1  A    between atoms: C_2  and  O_3
REMARK    2  A    between atoms: C_2  and  C_4
REMARK    3  A    between atoms: C_6  and  C_7
REMARK    4  A    between atoms: N_13  and  C_14
REMARK                            x       y       z     vdW  Elec       q    Type
REMARK                         _______ _______ _______ _____ _____    ______ ____
ROOT
ATOM      1  C   UNL     1       6.642   5.324  17.801  0.00  0.00    +0.000 A 
ATOM      2  C   UNL     1       7.251   5.110  16.577  0.00  0.00    +0.000 A 
ATOM      3  C   UNL     1       6.244   4.640  15.716  0.00  0.00    +0.000 A 
ATOM      4  N   UNL     1       5.081   4.503  16.359  0.00  0.00    +0.000 NA
ATOM      5  N   UNL     1       5.311   4.969  17.621  0.00  0.00    +0.000 N 
ENDROOT
BRANCH   5   6
ATOM      6  C   UNL     1       4.221   5.074  18.530  0.00  0.00    +0.000 A 
ATOM      7  C   UNL     1       3.481   6.259  18.646  0.00  0.00    +0.000 A 
ATOM      8  C   UNL     1       2.465   6.368  19.600  0.00  0.00    +0.000 A 
ATOM      9  C   UNL     1       2.185   5.296  20.442  0.00  0.00    +0.000 A 
ATOM     10  C   UNL     1       2.892   4.103  20.303  0.00  0.00    +0.000 A 
ATOM     11 CL   UNL     1       2.549   2.787  21.361  0.00  0.00    +0.000 Cl
ATOM     12  C   UNL     1       3.890   3.973  19.337  0.00  0.00    +0.000 A 
ENDBRANCH   5   6
BRANCH   3  13
ATOM     13  C   UNL     1       6.427   4.322  14.260  0.00  0.00    +0.000 A 
ATOM     14  C   UNL     1       5.595   3.506  13.523  0.00  0.00    +0.000 A 
ATOM     15  C   UNL     1       6.001   3.413  12.156  0.00  0.00    +0.000 A 
ATOM     16  C   UNL     1       7.135   4.151  11.902  0.00  0.00    +0.000 A 
ATOM     17  S   UNL     1       7.693   4.963  13.298  0.00  0.00    +0.000 S 
ENDBRANCH   3  13
BRANCH   1  19
ATOM     18  O   UNL     1       7.071   5.182  20.131  0.00  0.00    +0.000 OA
ATOM     19  C   UNL     1       7.259   5.698  19.042  0.00  0.00    +0.000 C 
BRANCH  19  20
ATOM     20  O   UNL     1       8.123   6.732  18.885  0.00  0.00    +0.000 OA
ATOM     21  H   UNL     1       8.674   6.676  18.084  0.00  0.00    +0.000 HD
ENDBRANCH  19  20
ENDBRANCH   1  19
TORSDOF 4
ENDMDL
MODEL 3
REMARK VINA RESULT:      -7.6      3.372      6.239
REMARK  Name = 
REMARK  4 active torsions:
REMARK  status: ('A' for Active; 'I' for Inactive)
REMARK    1  A    between atoms: C_2  and  O_3
REMARK    2  A    between atoms: C_2  and  C_4
REMARK    3  A    between atoms: C_6  and  C_7
REMARK    4  A    between atoms: N_13  and  C_14
REMARK                            x       y       z     vdW  Elec       q    Type
REMARK                         _______ _______ _______ _____ _____    ______ ____
ROOT
ATOM      1  C   UNL     1       6.827   5.223  17.913  0.00  0.00    +0.000 A 
ATOM      2  C   UNL     1       7.348   5.202  16.631  0.00  0.00    +0.000 A 
ATOM      3  C   UNL     1       6.412   4.514  15.840  0.00  0.00    +0.000 A 
ATOM      4  N   UNL     1       5.389   4.070  16.574  0.00  0.00    +0.000 NA
ATOM      5  N   UNL     1       5.616   4.546  17.833  0.00  0.00    +0.000 N 
ENDROOT
BRANCH   5   6
ATOM      6  C   UNL     1       4.628   4.348  18.838  0.00  0.00    +0.000 A 
ATOM      7  C   UNL     1       4.436   3.092  19.433  0.00  0.00    +0.000 A 
ATOM      8  C   UNL     1       3.408   2.899  20.360  0.00  0.00    +0.000 A 
ATOM      9  C   UNL     1       2.568   3.957  20.697  0.00  0.00    +0.000 A 
ATOM     10  C   UNL     1       2.781   5.216  20.137  0.00  0.00    +0.000 A 
ATOM     11 CL   UNL     1       1.726   6.514  20.547  0.00  0.00    +0.000 Cl
ATOM     12  C   UNL     1       3.820   5.428  19.230  0.00  0.00    +0.000 A 
ENDBRANCH   5   6
BRANCH   3  13
ATOM     13  C   UNL     1       6.527   4.290  14.359  0.00  0.00    +0.000 A 
ATOM     14  C   UNL     1       5.675   3.501  13.616  0.00  0.00    +0.000 A 
ATOM     15  C   UNL     1       6.012   3.502  12.227  0.00  0.00    +0.000 A 
ATOM     16  C   UNL     1       7.117   4.281  11.963  0.00  0.00    +0.000 A 
ATOM     17  S   UNL     1       7.728   5.019  13.377  0.00  0.00    +0.000 S 
ENDBRANCH   3  13
BRANCH   1  19
ATOM     18  O   UNL     1       7.366   5.216  20.224  0.00  0.00    +0.000 OA
ATOM     19  C   UNL     1       7.447   5.710  19.112  0.00  0.00    +0.000 C 
BRANCH  19  20
ATOM     20  O   UNL     1       8.179   6.829  18.883  0.00  0.00    +0.000 OA
ATOM     21  H   UNL     1       8.391   7.340  19.684  0.00  0.00    +0.000 HD
ENDBRANCH  19  20
ENDBRANCH   1  19
TORSDOF 4
ENDMDL
MODEL 4
REMARK VINA RESULT:      -7.5      1.174      1.596
REMARK  Name = 
REMARK  4 active torsions:
REMARK  status: ('A' for Active; 'I' for Inactive)
REMARK    1  A    between atoms: C_2  and  O_3
REMARK    2  A    between atoms: C_2  and  C_4
REMARK    3  A    between atoms: C_6  and  C_7
REMARK    4  A    between atoms: N_13  and  C_14
REMARK                            x       y       z     vdW  Elec       q    Type
REMARK                         _______ _______ _______ _____ _____    ______ ____
ROOT
ATOM      1  C   UNL     1       6.131   4.543  17.437  0.00  0.00    +0.000 A 
ATOM      2  C   UNL     1       5.219   4.339  18.457  0.00  0.00    +0.000 A 
ATOM      3  C   UNL     1       4.008   3.989  17.834  0.00  0.00    +0.000 A 
ATOM      4  N   UNL     1       4.119   4.026  16.504  0.00  0.00    +0.000 NA
ATOM      5  N   UNL     1       5.430   4.315  16.259  0.00  0.00    +0.000 N 
ENDROOT
BRANCH   5   6
ATOM      6  C   UNL     1       5.903   4.303  14.917  0.00  0.00    +0.000 A 
ATOM      7  C   UNL     1       5.314   3.482  13.944  0.00  0.00    +0.000 A 
ATOM      8  C   UNL     1       5.844   3.426  12.653  0.00  0.00    +0.000 A 
ATOM      9  C   UNL     1       6.963   4.187  12.326  0.00  0.00    +0.000 A 
ATOM     10  C   UNL     1       7.527   5.033  13.279  0.00  0.00    +0.000 A 
ATOM     11 CL   UNL     1       8.922   5.958  12.871  0.00  0.00    +0.000 Cl
ATOM     12  C   UNL     1       6.991   5.118  14.565  0.00  0.00    +0.000 A 
ENDBRANCH   5   6
BRANCH   3  13
ATOM     13  C   UNL     1       2.740   3.622  18.551  0.00  0.00    +0.000 A 
ATOM     14  C   UNL     1       1.839   2.673  18.116  0.00  0.00    +0.000 A 
ATOM     15  C   UNL     1       0.743   2.515  19.019  0.00  0.00    +0.000 A 
ATOM     16  C   UNL     1       0.839   3.359  20.102  0.00  0.00    +0.000 A 
ATOM     17  S   UNL     1       2.252   4.318  20.039  0.00  0.00    +0.000 S 
ENDBRANCH   3  13
BRANCH   1  19
ATOM     18  O   UNL     1       7.838   6.190  17.531  0.00  0.00    +0.000 OA
ATOM     19  C   UNL     1       7.480   5.024  17.539  0.00  0.00    +0.000 C 
BRANCH  19  20
ATOM     20  O   UNL     1       8.370   4.008  17.660  0.00  0.00    +0.000 OA
ATOM     21  H   UNL     1       8.185   3.242  17.090  0.00  0.00    +0.000 HD
ENDBRANCH  19  20
ENDBRANCH   1  19
TORSDOF 4
ENDMDL
MODEL 5
REMARK VINA RESULT:      -7.4      3.501      6.183
REMARK  Name = 
REMARK  4 active torsions:
REMARK  status: ('A' for Active; 'I' for Inactive)
REMARK    1  A    between atoms: C_2  and  O_3
REMARK    2  A    between atoms: C_2  and  C_4
REMARK    3  A    between atoms: C_6  and  C_7
REMARK    4  A    between atoms: N_13  and  C_14
REMARK                            x       y       z     vdW  Elec       q    Type
REMARK                         _______ _______ _______ _____ _____    ______ ____
ROOT
ATOM      1  C   UNL     1       6.736   5.541  17.695  0.00  0.00    +0.000 A 
ATOM      2  C   UNL     1       7.334   5.107  16.525  0.00  0.00    +0.000 A 
ATOM      3  C   UNL     1       6.288   4.866  15.618  0.00  0.00    +0.000 A 
ATOM      4  N   UNL     1       5.097   5.074  16.185  0.00  0.00    +0.000 NA
ATOM      5  N   UNL     1       5.370   5.535  17.439  0.00  0.00    +0.000 N 
ENDROOT
BRANCH   5   6
ATOM      6  C   UNL     1       4.298   5.972  18.267  0.00  0.00    +0.000 A 
ATOM      7  C   UNL     1       3.887   5.226  19.381  0.00  0.00    +0.000 A 
ATOM      8  C   UNL     1       2.782   5.631  20.134  0.00  0.00    +0.000 A 
ATOM      9  C   UNL     1       2.081   6.780  19.778  0.00  0.00    +0.000 A 
ATOM     10  C   UNL     1       2.511   7.545  18.695  0.00  0.00    +0.000 A 
ATOM     11 CL   UNL     1       1.628   8.957  18.252  0.00  0.00    +0.000 Cl
ATOM     12  C   UNL     1       3.629   7.166  17.951  0.00  0.00    +0.000 A 
ENDBRANCH   5   6
BRANCH   3  13
ATOM     13  C   UNL     1       6.462   4.428  14.191  0.00  0.00    +0.000 A 
ATOM     14  C   UNL     1       5.618   3.563  13.528  0.00  0.00    +0.000 A 
ATOM     15  C   UNL     1       6.017   3.355  12.171  0.00  0.00    +0.000 A 
ATOM     16  C   UNL     1       7.157   4.059  11.853  0.00  0.00    +0.000 A 
ATOM     17  S   UNL     1       7.728   4.977  13.175  0.00  0.00    +0.000 S 
ENDBRANCH   3  13
BRANCH   1  19
ATOM     18  O   UNL     1       7.190   5.199  19.999  0.00  0.00    +0.000 OA
ATOM     19  C   UNL     1       7.360   5.813  18.959  0.00  0.00    +0.000 C 
BRANCH  19  20
ATOM     20  O   UNL     1       8.209   6.869  18.887  0.00  0.00    +0.000 OA
ATOM     21  H   UNL     1       7.781   7.736  18.998  0.00  0.00    +0.000 HD
ENDBRANCH  19  20
ENDBRANCH   1  19
TORSDOF 4
ENDMDL
MODEL 6
REMARK VINA RESULT:      -7.4      3.338      3.784
REMARK  Name = 
REMARK  4 active torsions:
REMARK  status: ('A' for Active; 'I' for Inactive)
REMARK    1  A    between atoms: C_2  and  O_3
REMARK    2  A    between atoms: C_2  and  C_4
REMARK    3  A    between atoms: C_6  and  C_7
REMARK    4  A    between atoms: N_13  and  C_14
REMARK                            x       y       z     vdW  Elec       q    Type
REMARK                         _______ _______ _______ _____ _____    ______ ____
ROOT
ATOM      1  C   UNL     1       3.745   4.573  18.320  0.00  0.00    +0.000 A 
ATOM      2  C   UNL     1       2.849   5.386  18.991  0.00  0.00    +0.000 A 
ATOM      3  C   UNL     1       2.981   6.665  18.424  0.00  0.00    +0.000 A 
ATOM      4  N   UNL     1       3.940   6.687  17.494  0.00  0.00    +0.000 NA
ATOM      5  N   UNL     1       4.373   5.396  17.393  0.00  0.00    +0.000 N 
ENDROOT
BRANCH   5   6
ATOM      6  C   UNL     1       5.320   5.060  16.386  0.00  0.00    +0.000 A 
ATOM      7  C   UNL     1       6.686   5.334  16.548  0.00  0.00    +0.000 A 
ATOM      8  C   UNL     1       7.588   5.068  15.515  0.00  0.00    +0.000 A 
ATOM      9  C   UNL     1       7.132   4.528  14.316  0.00  0.00    +0.000 A 
ATOM     10  C   UNL     1       5.781   4.218  14.165  0.00  0.00    +0.000 A 
ATOM     11 CL   UNL     1       5.223   3.565  12.672  0.00  0.00    +0.000 Cl
ATOM     12  C   UNL     1       4.875   4.454  15.199  0.00  0.00    +0.000 A 
ENDBRANCH   5   6
BRANCH   3  13
ATOM     13  C   UNL     1       2.165   7.869  18.800  0.00  0.00    +0.000 A 
ATOM     14  C   UNL     1       1.780   8.861  17.924  0.00  0.00    +0.000 A 
ATOM     15  C   UNL     1       0.983   9.863  18.560  0.00  0.00    +0.000 A 
ATOM     16  C   UNL     1       0.802   9.606  19.901  0.00  0.00    +0.000 A 
ATOM     17  S   UNL     1       1.569   8.157  20.382  0.00  0.00    +0.000 S 
ENDBRANCH   3  13
BRANCH   1  19
ATOM     18  O   UNL     1       3.447   2.219  18.241  0.00  0.00    +0.000 OA
ATOM     19  C   UNL     1       4.075   3.203  18.596  0.00  0.00    +0.000 C 
BRANCH  19  20
ATOM     20  O   UNL     1       5.215   3.095  19.323  0.00  0.00    +0.000 OA
ATOM     21  H   UNL     1       5.639   2.220  19.277  0.00  0.00    +0.000 HD
ENDBRANCH  19  20
ENDBRANCH   1  19
TORSDOF 4
ENDMDL
MODEL 7
REMARK VINA RESULT:      -7.4      3.274      3.907
REMARK  Name = 
REMARK  4 active torsions:
REMARK  status: ('A' for Active; 'I' for Inactive)
REMARK    1  A    between atoms: C_2  and  O_3
REMARK    2  A    between atoms: C_2  and  C_4
REMARK    3  A    between atoms: C_6  and  C_7
REMARK    4  A    between atoms: N_13  and  C_14
REMARK                            x       y       z     vdW  Elec       q    Type
REMARK                         _______ _______ _______ _____ _____    ______ ____
ROOT
ATOM      1  C   UNL     1       3.551   4.148  18.785  0.00  0.00    +0.000 A 
ATOM      2  C   UNL     1       2.660   4.901  19.528  0.00  0.00    +0.000 A 
ATOM      3  C   UNL     1       2.849   6.236  19.131  0.00  0.00    +0.000 A 
ATOM      4  N   UNL     1       3.836   6.341  18.237  0.00  0.00    +0.000 NA
ATOM      5  N   UNL     1       4.232   5.059  17.987  0.00  0.00    +0.000 N 
ENDROOT
BRANCH   5   6
ATOM      6  C   UNL     1       5.199   4.818  16.971  0.00  0.00    +0.000 A 
ATOM      7  C   UNL     1       6.567   5.026  17.202  0.00  0.00    +0.000 A 
ATOM      8  C   UNL     1       7.492   4.860  16.168  0.00  0.00    +0.000 A 
ATOM      9  C   UNL     1       7.058   4.487  14.900  0.00  0.00    +0.000 A 
ATOM     10  C   UNL     1       5.703   4.242  14.676  0.00  0.00    +0.000 A 
ATOM     11 CL   UNL     1       5.173   3.798  13.098  0.00  0.00    +0.000 Cl
ATOM     12  C   UNL     1       4.773   4.379  15.707  0.00  0.00    +0.000 A 
ENDBRANCH   5   6
BRANCH   3  13
ATOM     13  C   UNL     1       2.059   7.411  19.634  0.00  0.00    +0.000 A 
ATOM     14  C   UNL     1       1.534   7.517  20.905  0.00  0.00    +0.000 A 
ATOM     15  C   UNL     1       0.859   8.761  21.107  0.00  0.00    +0.000 A 
ATOM     16  C   UNL     1       0.882   9.551  19.980  0.00  0.00    +0.000 A 
ATOM     17  S   UNL     1       1.728   8.806  18.696  0.00  0.00    +0.000 S 
ENDBRANCH   3  13
BRANCH   1  19
ATOM     18  O   UNL     1       3.169   1.834  18.421  0.00  0.00    +0.000 OA
ATOM     19  C   UNL     1       3.829   2.744  18.895  0.00  0.00    +0.000 C 
BRANCH  19  20
ATOM     20  O   UNL     1       4.959   2.508  19.607  0.00  0.00    +0.000 OA
ATOM     21  H   UNL     1       5.556   1.852  19.206  0.00  0.00    +0.000 HD
ENDBRANCH  19  20
ENDBRANCH   1  19
TORSDOF 4
ENDMDL
MODEL 8
REMARK VINA RESULT:      -7.4      3.745      4.606
REMARK  Name = 
REMARK  4 active torsions:
REMARK  status: ('A' for Active; 'I' for Inactive)
REMARK    1  A    between atoms: C_2  and  O_3
REMARK    2  A    between atoms: C_2  and  C_4
REMARK    3  A    between atoms: C_6  and  C_7
REMARK    4  A    between atoms: N_13  and  C_14
REMARK                            x       y       z     vdW  Elec       q    Type
REMARK                         _______ _______ _______ _____ _____    ______ ____
ROOT
ATOM      1  C   UNL     1       3.068   4.470  19.431  0.00  0.00    +0.000 A 
ATOM      2  C   UNL     1       2.134   5.317  19.999  0.00  0.00    +0.000 A 
ATOM      3  C   UNL     1       2.495   6.617  19.606  0.00  0.00    +0.000 A 
ATOM      4  N   UNL     1       3.619   6.611  18.886  0.00  0.00    +0.000 NA
ATOM      5  N   UNL     1       3.944   5.294  18.735  0.00  0.00    +0.000 N 
ENDROOT
BRANCH   5   6
ATOM      6  C   UNL     1       5.040   4.942  17.899  0.00  0.00    +0.000 A 
ATOM      7  C   UNL     1       6.352   4.907  18.394  0.00  0.00    +0.000 A 
ATOM      8  C   UNL     1       7.423   4.636  17.538  0.00  0.00    +0.000 A 
ATOM      9  C   UNL     1       7.190   4.399  16.186  0.00  0.00    +0.000 A 
ATOM     10  C   UNL     1       5.884   4.394  15.699  0.00  0.00    +0.000 A 
ATOM     11 CL   UNL     1       5.607   4.116  14.022  0.00  0.00    +0.000 Cl
ATOM     12  C   UNL     1       4.804   4.637  16.548  0.00  0.00    +0.000 A 
ENDBRANCH   5   6
BRANCH   3  13
ATOM     13  C   UNL     1       1.734   7.867  19.944  0.00  0.00    +0.000 A 
ATOM     14  C   UNL     1       1.195   8.149  21.181  0.00  0.00    +0.000 A 
ATOM     15  C   UNL     1       0.554   9.426  21.214  0.00  0.00    +0.000 A 
ATOM     16  C   UNL     1       0.615  10.066  19.996  0.00  0.00    +0.000 A 
ATOM     17  S   UNL     1       1.456   9.142  18.831  0.00  0.00    +0.000 S 
ENDBRANCH   3  13
BRANCH   1  19
ATOM     18  O   UNL     1       3.915   2.496  20.442  0.00  0.00    +0.000 OA
ATOM     19  C   UNL     1       3.208   3.053  19.619  0.00  0.00    +0.000 C 
BRANCH  19  20
ATOM     20  O   UNL     1       2.434   2.350  18.755  0.00  0.00    +0.000 OA
ATOM     21  H   UNL     1       2.180   1.466  19.072  0.00  0.00    +0.000 HD
ENDBRANCH  19  20
ENDBRANCH   1  19
TORSDOF 4
ENDMDL
MODEL 9
REMARK VINA RESULT:      -7.1      3.773      4.499
REMARK  Name = 
REMARK  4 active torsions:
REMARK  status: ('A' for Active; 'I' for Inactive)
REMARK    1  A    between atoms: C_2  and  O_3
REMARK    2  A    between atoms: C_2  and  C_4
REMARK    3  A    between atoms: C_6  and  C_7
REMARK    4  A    between atoms: N_13  and  C_14
REMARK                            x       y       z     vdW  Elec       q    Type
REMARK                         _______ _______ _______ _____ _____    ______ ____
ROOT
ATOM      1  C   UNL     1       2.930   4.697  18.702  0.00  0.00    +0.000 A 
ATOM      2  C   UNL     1       2.018   5.623  19.176  0.00  0.00    +0.000 A 
ATOM      3  C   UNL     1       2.514   6.885  18.807  0.00  0.00    +0.000 A 
ATOM      4  N   UNL     1       3.694   6.781  18.190  0.00  0.00    +0.000 NA
ATOM      5  N   UNL     1       3.926   5.440  18.081  0.00  0.00    +0.000 N 
ENDROOT
BRANCH   5   6
ATOM      6  C   UNL     1       5.061   4.990  17.349  0.00  0.00    +0.000 A 
ATOM      7  C   UNL     1       6.333   4.936  17.939  0.00  0.00    +0.000 A 
ATOM      8  C   UNL     1       7.447   4.567  17.181  0.00  0.00    +0.000 A 
ATOM      9  C   UNL     1       7.299   4.252  15.833  0.00  0.00    +0.000 A 
ATOM     10  C   UNL     1       6.031   4.267  15.254  0.00  0.00    +0.000 A 
ATOM     11 CL   UNL     1       5.859   3.892  13.582  0.00  0.00    +0.000 Cl
ATOM     12  C   UNL     1       4.906   4.608  16.007  0.00  0.00    +0.000 A 
ENDBRANCH   5   6
BRANCH   3  13
ATOM     13  C   UNL     1       1.827   8.196  19.063  0.00  0.00    +0.000 A 
ATOM     14  C   UNL     1       1.597   9.162  18.107  0.00  0.00    +0.000 A 
ATOM     15  C   UNL     1       0.895  10.289  18.637  0.00  0.00    +0.000 A 
ATOM     16  C   UNL     1       0.626  10.147  19.980  0.00  0.00    +0.000 A 
ATOM     17  S   UNL     1       1.200   8.658  20.590  0.00  0.00    +0.000 S 
ENDBRANCH   3  13
BRANCH   1  19
ATOM     18  O   UNL     1       2.420   2.433  18.203  0.00  0.00    +0.000 OA
ATOM     19  C   UNL     1       2.940   3.277  18.914  0.00  0.00    +0.000 C 
BRANCH  19  20
ATOM     20  O   UNL     1       3.624   2.939  20.036  0.00  0.00    +0.000 OA
ATOM     21  H   UNL     1       4.543   3.259  20.057  0.00  0.00    +0.000 HD
ENDBRANCH  19  20
ENDBRANCH   1  19
TORSDOF 4
ENDMDL
