MODEL 1
REMARK VINA RESULT:      -6.7      0.000      0.000
REMARK  Name = 
REMARK  8 active torsions:
REMARK  status: ('A' for Active; 'I' for Inactive)
REMARK    1  A    between atoms: C_1  and  C_2
REMARK    2  A    between atoms: C_2  and  C_3
REMARK    3  A    between atoms: C_4  and  C_5
REMARK    4  A    between atoms: C_5  and  C_7
REMARK    5  A    between atoms: C_7  and  C_8
REMARK    6  A    between atoms: C_8  and  C_9
REMARK    7  A    between atoms: C_8  and  C_10
REMARK    8  A    between atoms: C_13  and  C_14
REMARK                            x       y       z     vdW  Elec       q    Type
REMARK                         _______ _______ _______ _____ _____    ______ ____
ROOT
ATOM      1  C   UNL     1       4.737   5.718  16.927  0.00  0.00    +0.000 C 
ATOM      2  C   UNL     1       4.425   7.212  16.766  0.00  0.00    +0.000 C 
ENDROOT
BRANCH   1   3
ATOM      3  C   UNL     1       3.685   5.052  17.803  0.00  0.00    +0.000 A 
ATOM      4  C   UNL     1       3.069   3.848  17.433  0.00  0.00    +0.000 A 
ATOM      5  C   UNL     1       2.115   3.246  18.258  0.00  0.00    +0.000 A 
ATOM      6  C   UNL     1       1.757   3.833  19.475  0.00  0.00    +0.000 A 
ATOM      7  C   UNL     1       0.727   3.200  20.364  0.00  0.00    +0.000 C 
ATOM      8  C   UNL     1       2.373   5.030  19.855  0.00  0.00    +0.000 A 
ATOM      9  C   UNL     1       3.327   5.633  19.029  0.00  0.00    +0.000 A 
ENDBRANCH   1   3
BRANCH   1  10
ATOM     10  C   UNL     1       6.159   5.492  17.471  0.00  0.00    +0.000 C 
BRANCH  10  11
ATOM     11  C   UNL     1       6.917   4.504  16.606  0.00  0.00    +0.000 C 
ATOM     12  O   UNL     1       8.071   4.172  16.873  0.00  0.00    +0.000 OA
BRANCH  11  16
ATOM     13  C   UNL     1       5.651   3.572  13.049  0.00  0.00    +0.000 C 
ATOM     14  C   UNL     1       6.445   4.237  14.141  0.00  0.00    +0.000 C 
ATOM     15  C   UNL     1       7.514   5.203  13.703  0.00  0.00    +0.000 C 
ATOM     16  C   UNL     1       6.187   3.936  15.429  0.00  0.00    +0.000 C 
ENDBRANCH  11  16
ENDBRANCH  10  11
ENDBRANCH   1  10
TORSDOF 4
ENDMDL
MODEL 2
REMARK VINA RESULT:      -6.6      2.804      5.204
REMARK  Name = 
REMARK  8 active torsions:
REMARK  status: ('A' for Active; 'I' for Inactive)
REMARK    1  A    between atoms: C_1  and  C_2
REMARK    2  A    between atoms: C_2  and  C_3
REMARK    3  A    between atoms: C_4  and  C_5
REMARK    4  A    between atoms: C_5  and  C_7
REMARK    5  A    between atoms: C_7  and  C_8
REMARK    6  A    between atoms: C_8  and  C_9
REMARK    7  A    between atoms: C_8  and  C_10
REMARK    8  A    between atoms: C_13  and  C_14
REMARK                            x       y       z     vdW  Elec       q    Type
REMARK                         _______ _______ _______ _____ _____    ______ ____
ROOT
ATOM      1  C   UNL     1       3.537   6.124  18.167  0.00  0.00    +0.000 C 
ATOM      2  C   UNL     1       4.498   6.600  17.069  0.00  0.00    +0.000 C 
ENDROOT
BRANCH   1   3
ATOM      3  C   UNL     1       2.661   7.278  18.635  0.00  0.00    +0.000 A 
ATOM      4  C   UNL     1       2.310   8.333  17.781  0.00  0.00    +0.000 A 
ATOM      5  C   UNL     1       1.493   9.376  18.227  0.00  0.00    +0.000 A 
ATOM      6  C   UNL     1       1.004   9.386  19.536  0.00  0.00    +0.000 A 
ATOM      7  C   UNL     1       0.135  10.506  20.027  0.00  0.00    +0.000 C 
ATOM      8  C   UNL     1       1.343   8.333  20.391  0.00  0.00    +0.000 A 
ATOM      9  C   UNL     1       2.162   7.290  19.946  0.00  0.00    +0.000 A 
ENDBRANCH   1   3
BRANCH   1  10
ATOM     10  C   UNL     1       4.294   5.471  19.338  0.00  0.00    +0.000 C 
BRANCH  10  11
ATOM     11  C   UNL     1       4.209   3.959  19.259  0.00  0.00    +0.000 C 
ATOM     12  O   UNL     1       5.149   3.246  19.607  0.00  0.00    +0.000 OA
BRANCH  11  16
ATOM     13  C   UNL     1       0.583   2.606  18.878  0.00  0.00    +0.000 C 
ATOM     14  C   UNL     1       1.824   3.173  19.512  0.00  0.00    +0.000 C 
ATOM     15  C   UNL     1       1.740   3.501  20.980  0.00  0.00    +0.000 C 
ATOM     16  C   UNL     1       2.923   3.378  18.759  0.00  0.00    +0.000 C 
ENDBRANCH  11  16
ENDBRANCH  10  11
ENDBRANCH   1  10
TORSDOF 4
ENDMDL
MODEL 3
REMARK VINA RESULT:      -6.6      1.414      2.351
REMARK  Name = 
REMARK  8 active torsions:
REMARK  status: ('A' for Active; 'I' for Inactive)
REMARK    1  A    between atoms: C_1  and  C_2
REMARK    2  A    between atoms: C_2  and  C_3
REMARK    3  A    between atoms: C_4  and  C_5
REMARK    4  A    between atoms: C_5  and  C_7
REMARK    5  A    between atoms: C_7  and  C_8
REMARK    6  A    between atoms: C_8  and  C_9
REMARK    7  A    between atoms: C_8  and  C_10
REMARK    8  A    between atoms: C_13  and  C_14
REMARK                            x       y       z     vdW  Elec       q    Type
REMARK                         _______ _______ _______ _____ _____    ______ ____
ROOT
ATOM      1  C   UNL     1       5.984   4.738  16.446  0.00  0.00    +0.000 C 
ATOM      2  C   UNL     1       7.244   4.744  17.323  0.00  0.00    +0.000 C 
ENDROOT
BRANCH   1   3
ATOM      3  C   UNL     1       4.741   4.601  17.314  0.00  0.00    +0.000 A 
ATOM      4  C   UNL     1       3.686   3.746  16.965  0.00  0.00    +0.000 A 
ATOM      5  C   UNL     1       2.559   3.624  17.783  0.00  0.00    +0.000 A 
ATOM      6  C   UNL     1       2.462   4.352  18.972  0.00  0.00    +0.000 A 
ATOM      7  C   UNL     1       1.253   4.236  19.852  0.00  0.00    +0.000 C 
ATOM      8  C   UNL     1       3.514   5.200  19.332  0.00  0.00    +0.000 A 
ATOM      9  C   UNL     1       4.641   5.323  18.513  0.00  0.00    +0.000 A 
ENDBRANCH   1   3
BRANCH   1  10
ATOM     10  C   UNL     1       6.050   3.644  15.366  0.00  0.00    +0.000 C 
BRANCH  10  11
ATOM     11  C   UNL     1       6.235   4.253  13.990  0.00  0.00    +0.000 C 
ATOM     12  O   UNL     1       7.266   4.852  13.688  0.00  0.00    +0.000 OA
BRANCH  11  16
ATOM     13  C   UNL     1       3.911   3.092  11.097  0.00  0.00    +0.000 C 
ATOM     14  C   UNL     1       5.117   3.194  11.991  0.00  0.00    +0.000 C 
ATOM     15  C   UNL     1       6.263   2.266  11.683  0.00  0.00    +0.000 C 
ATOM     16  C   UNL     1       5.115   4.071  13.013  0.00  0.00    +0.000 C 
ENDBRANCH  11  16
ENDBRANCH  10  11
ENDBRANCH   1  10
TORSDOF 4
ENDMDL
MODEL 4
REMARK VINA RESULT:      -6.6      1.085      1.392
REMARK  Name = 
REMARK  8 active torsions:
REMARK  status: ('A' for Active; 'I' for Inactive)
REMARK    1  A    between atoms: C_1  and  C_2
REMARK    2  A    between atoms: C_2  and  C_3
REMARK    3  A    between atoms: C_4  and  C_5
REMARK    4  A    between atoms: C_5  and  C_7
REMARK    5  A    between atoms: C_7  and  C_8
REMARK    6  A    between atoms: C_8  and  C_9
REMARK    7  A    between atoms: C_8  and  C_10
REMARK    8  A    between atoms: C_13  and  C_14
REMARK                            x       y       z     vdW  Elec       q    Type
REMARK                         _______ _______ _______ _____ _____    ______ ____
ROOT
ATOM      1  C   UNL     1       4.870   5.507  16.648  0.00  0.00    +0.000 C 
ATOM      2  C   UNL     1       5.480   6.798  17.211  0.00  0.00    +0.000 C 
ENDROOT
BRANCH   1   3
ATOM      3  C   UNL     1       3.864   4.927  17.633  0.00  0.00    +0.000 A 
ATOM      4  C   UNL     1       2.954   3.929  17.259  0.00  0.00    +0.000 A 
ATOM      5  C   UNL     1       2.048   3.399  18.182  0.00  0.00    +0.000 A 
ATOM      6  C   UNL     1       2.034   3.854  19.504  0.00  0.00    +0.000 A 
ATOM      7  C   UNL     1       1.060   3.300  20.501  0.00  0.00    +0.000 C 
ATOM      8  C   UNL     1       2.945   4.845  19.887  0.00  0.00    +0.000 A 
ATOM      9  C   UNL     1       3.850   5.375  18.963  0.00  0.00    +0.000 A 
ENDBRANCH   1   3
BRANCH   1  10
ATOM     10  C   UNL     1       5.957   4.484  16.272  0.00  0.00    +0.000 C 
BRANCH  10  11
ATOM     11  C   UNL     1       6.350   4.625  14.815  0.00  0.00    +0.000 C 
ATOM     12  O   UNL     1       7.426   5.123  14.487  0.00  0.00    +0.000 OA
BRANCH  11  16
ATOM     13  C   UNL     1       4.636   3.137  11.657  0.00  0.00    +0.000 C 
ATOM     14  C   UNL     1       5.711   3.656  12.574  0.00  0.00    +0.000 C 
ATOM     15  C   UNL     1       7.122   3.610  12.050  0.00  0.00    +0.000 C 
ATOM     16  C   UNL     1       5.379   4.108  13.799  0.00  0.00    +0.000 C 
ENDBRANCH  11  16
ENDBRANCH  10  11
ENDBRANCH   1  10
TORSDOF 4
ENDMDL
MODEL 5
REMARK VINA RESULT:      -6.6      0.330      1.248
REMARK  Name = 
REMARK  8 active torsions:
REMARK  status: ('A' for Active; 'I' for Inactive)
REMARK    1  A    between atoms: C_1  and  C_2
REMARK    2  A    between atoms: C_2  and  C_3
REMARK    3  A    between atoms: C_4  and  C_5
REMARK    4  A    between atoms: C_5  and  C_7
REMARK    5  A    between atoms: C_7  and  C_8
REMARK    6  A    between atoms: C_8  and  C_9
REMARK    7  A    between atoms: C_8  and  C_10
REMARK    8  A    between atoms: C_13  and  C_14
REMARK                            x       y       z     vdW  Elec       q    Type
REMARK                         _______ _______ _______ _____ _____    ______ ____
ROOT
ATOM      1  C   UNL     1       4.751   5.740  17.124  0.00  0.00    +0.000 C 
ATOM      2  C   UNL     1       4.326   7.202  16.934  0.00  0.00    +0.000 C 
ENDROOT
BRANCH   1   3
ATOM      3  C   UNL     1       3.818   5.044  18.106  0.00  0.00    +0.000 A 
ATOM      4  C   UNL     1       3.537   5.586  19.369  0.00  0.00    +0.000 A 
ATOM      5  C   UNL     1       2.667   4.938  20.251  0.00  0.00    +0.000 A 
ATOM      6  C   UNL     1       2.053   3.736  19.888  0.00  0.00    +0.000 A 
ATOM      7  C   UNL     1       1.125   3.028  20.830  0.00  0.00    +0.000 C 
ATOM      8  C   UNL     1       2.322   3.194  18.627  0.00  0.00    +0.000 A 
ATOM      9  C   UNL     1       3.193   3.841  17.745  0.00  0.00    +0.000 A 
ENDBRANCH   1   3
BRANCH   1  10
ATOM     10  C   UNL     1       6.223   5.629  17.559  0.00  0.00    +0.000 C 
BRANCH  10  11
ATOM     11  C   UNL     1       6.952   4.586  16.735  0.00  0.00    +0.000 C 
ATOM     12  O   UNL     1       8.094   4.228  17.020  0.00  0.00    +0.000 OA
BRANCH  11  16
ATOM     13  C   UNL     1       5.632   3.611  13.209  0.00  0.00    +0.000 C 
ATOM     14  C   UNL     1       6.435   4.297  14.281  0.00  0.00    +0.000 C 
ATOM     15  C   UNL     1       7.478   5.279  13.816  0.00  0.00    +0.000 C 
ATOM     16  C   UNL     1       6.209   3.998  15.576  0.00  0.00    +0.000 C 
ENDBRANCH  11  16
ENDBRANCH  10  11
ENDBRANCH   1  10
TORSDOF 4
ENDMDL
MODEL 6
REMARK VINA RESULT:      -6.6      1.586      1.866
REMARK  Name = 
REMARK  8 active torsions:
REMARK  status: ('A' for Active; 'I' for Inactive)
REMARK    1  A    between atoms: C_1  and  C_2
REMARK    2  A    between atoms: C_2  and  C_3
REMARK    3  A    between atoms: C_4  and  C_5
REMARK    4  A    between atoms: C_5  and  C_7
REMARK    5  A    between atoms: C_7  and  C_8
REMARK    6  A    between atoms: C_8  and  C_9
REMARK    7  A    between atoms: C_8  and  C_10
REMARK    8  A    between atoms: C_13  and  C_14
REMARK                            x       y       z     vdW  Elec       q    Type
REMARK                         _______ _______ _______ _____ _____    ______ ____
ROOT
ATOM      1  C   UNL     1       5.616   5.391  17.864  0.00  0.00    +0.000 C 
ATOM      2  C   UNL     1       6.480   5.414  19.132  0.00  0.00    +0.000 C 
ENDROOT
BRANCH   1   3
ATOM      3  C   UNL     1       4.336   4.605  18.114  0.00  0.00    +0.000 A 
ATOM      4  C   UNL     1       4.346   3.366  18.771  0.00  0.00    +0.000 A 
ATOM      5  C   UNL     1       3.157   2.667  19.003  0.00  0.00    +0.000 A 
ATOM      6  C   UNL     1       1.931   3.192  18.586  0.00  0.00    +0.000 A 
ATOM      7  C   UNL     1       0.651   2.446  18.821  0.00  0.00    +0.000 C 
ATOM      8  C   UNL     1       1.913   4.431  17.937  0.00  0.00    +0.000 A 
ATOM      9  C   UNL     1       3.101   5.130  17.704  0.00  0.00    +0.000 A 
ENDBRANCH   1   3
BRANCH   1  10
ATOM     10  C   UNL     1       6.397   4.841  16.657  0.00  0.00    +0.000 C 
BRANCH  10  11
ATOM     11  C   UNL     1       5.798   5.337  15.355  0.00  0.00    +0.000 C 
ATOM     12  O   UNL     1       5.523   6.524  15.188  0.00  0.00    +0.000 OA
BRANCH  11  16
ATOM     13  C   UNL     1       6.059   3.070  12.206  0.00  0.00    +0.000 C 
ATOM     14  C   UNL     1       6.375   4.152  13.202  0.00  0.00    +0.000 C 
ATOM     15  C   UNL     1       7.603   4.980  12.928  0.00  0.00    +0.000 C 
ATOM     16  C   UNL     1       5.582   4.320  14.278  0.00  0.00    +0.000 C 
ENDBRANCH  11  16
ENDBRANCH  10  11
ENDBRANCH   1  10
TORSDOF 4
ENDMDL
MODEL 7
REMARK VINA RESULT:      -6.6      2.421      4.986
REMARK  Name = 
REMARK  8 active torsions:
REMARK  status: ('A' for Active; 'I' for Inactive)
REMARK    1  A    between atoms: C_1  and  C_2
REMARK    2  A    between atoms: C_2  and  C_3
REMARK    3  A    between atoms: C_4  and  C_5
REMARK    4  A    between atoms: C_5  and  C_7
REMARK    5  A    between atoms: C_7  and  C_8
REMARK    6  A    between atoms: C_8  and  C_9
REMARK    7  A    between atoms: C_8  and  C_10
REMARK    8  A    between atoms: C_13  and  C_14
REMARK                            x       y       z     vdW  Elec       q    Type
REMARK                         _______ _______ _______ _____ _____    ______ ____
ROOT
ATOM      1  C   UNL     1       4.097   5.060  17.995  0.00  0.00    +0.000 C 
ATOM      2  C   UNL     1       5.058   5.379  16.841  0.00  0.00    +0.000 C 
ENDROOT
BRANCH   1   3
ATOM      3  C   UNL     1       3.302   6.302  18.375  0.00  0.00    +0.000 A 
ATOM      4  C   UNL     1       3.151   7.381  17.493  0.00  0.00    +0.000 A 
ATOM      5  C   UNL     1       2.405   8.507  17.856  0.00  0.00    +0.000 A 
ATOM      6  C   UNL     1       1.789   8.577  19.108  0.00  0.00    +0.000 A 
ATOM      7  C   UNL     1       0.994   9.784  19.512  0.00  0.00    +0.000 C 
ATOM      8  C   UNL     1       1.929   7.501  19.991  0.00  0.00    +0.000 A 
ATOM      9  C   UNL     1       2.676   6.375  19.628  0.00  0.00    +0.000 A 
ENDBRANCH   1   3
BRANCH   1  10
ATOM     10  C   UNL     1       4.841   4.467  19.204  0.00  0.00    +0.000 C 
BRANCH  10  11
ATOM     11  C   UNL     1       4.361   3.058  19.496  0.00  0.00    +0.000 C 
ATOM     12  O   UNL     1       5.015   2.291  20.200  0.00  0.00    +0.000 OA
BRANCH  11  16
ATOM     13  C   UNL     1       0.610   2.264  18.841  0.00  0.00    +0.000 C 
ATOM     14  C   UNL     1       1.868   2.667  19.562  0.00  0.00    +0.000 C 
ATOM     15  C   UNL     1       1.714   3.086  21.000  0.00  0.00    +0.000 C 
ATOM     16  C   UNL     1       3.045   2.657  18.905  0.00  0.00    +0.000 C 
ENDBRANCH  11  16
ENDBRANCH  10  11
ENDBRANCH   1  10
TORSDOF 4
ENDMDL
MODEL 8
REMARK VINA RESULT:      -6.6      2.269      2.871
REMARK  Name = 
REMARK  8 active torsions:
REMARK  status: ('A' for Active; 'I' for Inactive)
REMARK    1  A    between atoms: C_1  and  C_2
REMARK    2  A    between atoms: C_2  and  C_3
REMARK    3  A    between atoms: C_4  and  C_5
REMARK    4  A    between atoms: C_5  and  C_7
REMARK    5  A    between atoms: C_7  and  C_8
REMARK    6  A    between atoms: C_8  and  C_9
REMARK    7  A    between atoms: C_8  and  C_10
REMARK    8  A    between atoms: C_13  and  C_14
REMARK                            x       y       z     vdW  Elec       q    Type
REMARK                         _______ _______ _______ _____ _____    ______ ____
ROOT
ATOM      1  C   UNL     1       2.765   7.172  17.554  0.00  0.00    +0.000 C 
ATOM      2  C   UNL     1       1.952   8.430  17.885  0.00  0.00    +0.000 C 
ENDROOT
BRANCH   1   3
ATOM      3  C   UNL     1       2.351   6.023  18.464  0.00  0.00    +0.000 A 
ATOM      4  C   UNL     1       1.987   4.770  17.952  0.00  0.00    +0.000 A 
ATOM      5  C   UNL     1       1.623   3.724  18.806  0.00  0.00    +0.000 A 
ATOM      6  C   UNL     1       1.618   3.907  20.192  0.00  0.00    +0.000 A 
ATOM      7  C   UNL     1       1.220   2.795  21.116  0.00  0.00    +0.000 C 
ATOM      8  C   UNL     1       1.988   5.153  20.709  0.00  0.00    +0.000 A 
ATOM      9  C   UNL     1       2.351   6.199  19.856  0.00  0.00    +0.000 A 
ENDBRANCH   1   3
BRANCH   1  10
ATOM     10  C   UNL     1       4.279   7.440  17.626  0.00  0.00    +0.000 C 
BRANCH  10  11
ATOM     11  C   UNL     1       5.011   6.700  16.523  0.00  0.00    +0.000 C 
ATOM     12  O   UNL     1       4.889   7.025  15.343  0.00  0.00    +0.000 OA
BRANCH  11  16
ATOM     13  C   UNL     1       7.898   4.505  17.927  0.00  0.00    +0.000 C 
ATOM     14  C   UNL     1       7.109   5.724  17.530  0.00  0.00    +0.000 C 
ATOM     15  C   UNL     1       7.729   7.059  17.848  0.00  0.00    +0.000 C 
ATOM     16  C   UNL     1       5.906   5.575  16.942  0.00  0.00    +0.000 C 
ENDBRANCH  11  16
ENDBRANCH  10  11
ENDBRANCH   1  10
TORSDOF 4
ENDMDL
MODEL 9
REMARK VINA RESULT:      -6.6      2.097      6.058
REMARK  Name = 
REMARK  8 active torsions:
REMARK  status: ('A' for Active; 'I' for Inactive)
REMARK    1  A    between atoms: C_1  and  C_2
REMARK    2  A    between atoms: C_2  and  C_3
REMARK    3  A    between atoms: C_4  and  C_5
REMARK    4  A    between atoms: C_5  and  C_7
REMARK    5  A    between atoms: C_7  and  C_8
REMARK    6  A    between atoms: C_8  and  C_9
REMARK    7  A    between atoms: C_8  and  C_10
REMARK    8  A    between atoms: C_13  and  C_14
REMARK                            x       y       z     vdW  Elec       q    Type
REMARK                         _______ _______ _______ _____ _____    ______ ____
ROOT
ATOM      1  C   UNL     1       2.917   5.265  18.289  0.00  0.00    +0.000 C 
ATOM      2  C   UNL     1       2.693   6.715  18.741  0.00  0.00    +0.000 C 
ENDROOT
BRANCH   1   3
ATOM      3  C   UNL     1       4.016   5.206  17.237  0.00  0.00    +0.000 A 
ATOM      4  C   UNL     1       4.539   6.366  16.649  0.00  0.00    +0.000 A 
ATOM      5  C   UNL     1       5.558   6.291  15.695  0.00  0.00    +0.000 A 
ATOM      6  C   UNL     1       6.080   5.053  15.309  0.00  0.00    +0.000 A 
ATOM      7  C   UNL     1       7.167   4.960  14.279  0.00  0.00    +0.000 C 
ATOM      8  C   UNL     1       5.569   3.892  15.898  0.00  0.00    +0.000 A 
ATOM      9  C   UNL     1       4.549   3.967  16.851  0.00  0.00    +0.000 A 
ENDBRANCH   1   3
BRANCH   1  10
ATOM     10  C   UNL     1       1.612   4.620  17.788  0.00  0.00    +0.000 C 
BRANCH  10  11
ATOM     11  C   UNL     1       1.492   3.191  18.283  0.00  0.00    +0.000 C 
ATOM     12  O   UNL     1       1.721   2.236  17.543  0.00  0.00    +0.000 OA
BRANCH  11  16
ATOM     13  C   UNL     1       1.444   2.571  22.122  0.00  0.00    +0.000 C 
ATOM     14  C   UNL     1       1.962   2.708  20.715  0.00  0.00    +0.000 C 
ATOM     15  C   UNL     1       3.444   2.522  20.522  0.00  0.00    +0.000 C 
ATOM     16  C   UNL     1       1.106   3.002  19.717  0.00  0.00    +0.000 C 
ENDBRANCH  11  16
ENDBRANCH  10  11
ENDBRANCH   1  10
TORSDOF 4
ENDMDL
