MODEL 1
REMARK VINA RESULT:      -8.6      0.000      0.000
REMARK  Name = 
REMARK  5 active torsions:
REMARK  status: ('A' for Active; 'I' for Inactive)
REMARK    1  A    between atoms: N_4  and  C_5
REMARK    2  A    between atoms: C_5  and  C_7
REMARK    3  A    between atoms: C_11  and  S_12
REMARK    4  A    between atoms: S_12  and  C_13
REMARK    5  A    between atoms: C_24  and  N_25
REMARK                            x       y       z     vdW  Elec       q    Type
REMARK                         _______ _______ _______ _____ _____    ______ ____
ROOT
ATOM      1  C   UNL     1       5.596   4.711  17.360  0.00  0.00    +0.000 A 
ATOM      2  N   UNL     1       4.328   4.352  17.019  0.00  0.00    +0.000 NA
ATOM      3  C   UNL     1       3.365   4.629  17.929  0.00  0.00    +0.000 A 
ATOM      4 CL   UNL     1       1.791   4.129  17.435  0.00  0.00    +0.000 Cl
ATOM      5  C   UNL     1       3.634   5.223  19.164  0.00  0.00    +0.000 A 
ATOM      6  N   UNL     1       4.901   5.611  19.478  0.00  0.00    +0.000 NA
ATOM      7  C   UNL     1       5.878   5.356  18.579  0.00  0.00    +0.000 A 
ENDROOT
BRANCH   7   8
ATOM      8  N   UNL     1       7.117   5.879  18.923  0.00  0.00    +0.000 N 
ATOM      9  H   UNL     1       7.120   6.885  18.792  0.00  0.00    +0.000 HD
ATOM     10  H   UNL     1       7.439   5.565  19.839  0.00  0.00    +0.000 HD
ENDBRANCH   7   8
BRANCH   1  11
ATOM     11  C   UNL     1       6.705   4.290  16.443  0.00  0.00    +0.000 C 
ATOM     12  O   UNL     1       7.878   4.442  16.806  0.00  0.00    +0.000 OA
BRANCH  11  16
ATOM     13  N   UNL     1       6.391   3.649  12.967  0.00  0.00    +0.000 N 
ATOM     14  C   UNL     1       6.730   4.232  14.143  0.00  0.00    +0.000 C 
ATOM     15  N   UNL     1       7.521   5.312  13.951  0.00  0.00    +0.000 N 
ATOM     16  N   UNL     1       6.333   3.705  15.252  0.00  0.00    +0.000 NA
ATOM     17  H   UNL     1       6.196   4.275  12.195  0.00  0.00    +0.000 HD
ATOM     18  H   UNL     1       5.685   2.919  13.082  0.00  0.00    +0.000 HD
ATOM     19  H   UNL     1       7.338   5.877  13.134  0.00  0.00    +0.000 HD
ATOM     20  H   UNL     1       7.627   5.876  14.793  0.00  0.00    +0.000 HD
ENDBRANCH  11  16
ENDBRANCH   1  11
BRANCH   5  21
ATOM     21  S   UNL     1       2.452   5.398  20.483  0.00  0.00    +0.000 S 
BRANCH  21  22
ATOM     22  C   UNL     1       1.845   7.055  20.253  0.00  0.00    +0.000 A 
ATOM     23  C   UNL     1       2.156   7.716  19.062  0.00  0.00    +0.000 A 
ATOM     24  C   UNL     1       1.626   8.978  18.791  0.00  0.00    +0.000 A 
ATOM     25  C   UNL     1       0.864   9.646  19.756  0.00  0.00    +0.000 A 
ATOM     26  C   UNL     1       0.398  10.947  19.525  0.00  0.00    +0.000 A 
ATOM     27  C   UNL     1      -0.067  11.717  20.588  0.00  0.00    +0.000 A 
ATOM     28  C   UNL     1      -0.209  11.146  21.849  0.00  0.00    +0.000 A 
ATOM     29  C   UNL     1       0.053   9.786  22.035  0.00  0.00    +0.000 A 
ATOM     30  C   UNL     1       0.632   9.029  21.005  0.00  0.00    +0.000 A 
ATOM     31  C   UNL     1       1.050   7.700  21.206  0.00  0.00    +0.000 A 
ENDBRANCH  21  22
ENDBRANCH   5  21
TORSDOF 5
ENDMDL
MODEL 2
REMARK VINA RESULT:      -8.6      1.287      1.439
REMARK  Name = 
REMARK  5 active torsions:
REMARK  status: ('A' for Active; 'I' for Inactive)
REMARK    1  A    between atoms: N_4  and  C_5
REMARK    2  A    between atoms: C_5  and  C_7
REMARK    3  A    between atoms: C_11  and  S_12
REMARK    4  A    between atoms: S_12  and  C_13
REMARK    5  A    between atoms: C_24  and  N_25
REMARK                            x       y       z     vdW  Elec       q    Type
REMARK                         _______ _______ _______ _____ _____    ______ ____
ROOT
ATOM      1  C   UNL     1       5.826   5.001  15.837  0.00  0.00    +0.000 A 
ATOM      2  N   UNL     1       4.653   4.319  15.953  0.00  0.00    +0.000 NA
ATOM      3  C   UNL     1       3.926   4.573  17.066  0.00  0.00    +0.000 A 
ATOM      4 CL   UNL     1       2.467   3.659  17.153  0.00  0.00    +0.000 Cl
ATOM      5  C   UNL     1       4.344   5.456  18.064  0.00  0.00    +0.000 A 
ATOM      6  N   UNL     1       5.502   6.160  17.918  0.00  0.00    +0.000 NA
ATOM      7  C   UNL     1       6.239   5.932  16.807  0.00  0.00    +0.000 A 
ENDROOT
BRANCH   7   8
ATOM      8  N   UNL     1       7.343   6.765  16.679  0.00  0.00    +0.000 N 
ATOM      9  H   UNL     1       7.075   7.631  16.222  0.00  0.00    +0.000 HD
ATOM     10  H   UNL     1       7.854   6.883  17.553  0.00  0.00    +0.000 HD
ENDBRANCH   7   8
BRANCH   1  11
ATOM     11  C   UNL     1       6.726   4.640  14.692  0.00  0.00    +0.000 C 
ATOM     12  O   UNL     1       7.766   5.285  14.516  0.00  0.00    +0.000 OA
BRANCH  11  16
ATOM     13  N   UNL     1       6.238   2.502  11.901  0.00  0.00    +0.000 N 
ATOM     14  C   UNL     1       6.584   3.573  12.658  0.00  0.00    +0.000 C 
ATOM     15  N   UNL     1       7.205   4.521  11.921  0.00  0.00    +0.000 N 
ATOM     16  N   UNL     1       6.347   3.558  13.927  0.00  0.00    +0.000 NA
ATOM     17  H   UNL     1       5.904   2.703  10.966  0.00  0.00    +0.000 HD
ATOM     18  H   UNL     1       5.648   1.840  12.408  0.00  0.00    +0.000 HD
ATOM     19  H   UNL     1       6.886   4.648  10.972  0.00  0.00    +0.000 HD
ATOM     20  H   UNL     1       7.298   5.407  12.418  0.00  0.00    +0.000 HD
ENDBRANCH  11  16
ENDBRANCH   1  11
BRANCH   5  21
ATOM     21  S   UNL     1       3.548   5.652  19.643  0.00  0.00    +0.000 S 
BRANCH  21  22
ATOM     22  C   UNL     1       2.574   7.124  19.416  0.00  0.00    +0.000 A 
ATOM     23  C   UNL     1       2.579   7.735  18.159  0.00  0.00    +0.000 A 
ATOM     24  C   UNL     1       1.759   8.833  17.900  0.00  0.00    +0.000 A 
ATOM     25  C   UNL     1       1.001   9.407  18.927  0.00  0.00    +0.000 A 
ATOM     26  C   UNL     1       0.240  10.560  18.697  0.00  0.00    +0.000 A 
ATOM     27  C   UNL     1      -0.239  11.303  19.773  0.00  0.00    +0.000 A 
ATOM     28  C   UNL     1      -0.091  10.820  21.070  0.00  0.00    +0.000 A 
ATOM     29  C   UNL     1       0.479   9.563  21.289  0.00  0.00    +0.000 A 
ATOM     30  C   UNL     1       1.071   8.860  20.227  0.00  0.00    +0.000 A 
ATOM     31  C   UNL     1       1.788   7.667  20.437  0.00  0.00    +0.000 A 
ENDBRANCH  21  22
ENDBRANCH   5  21
TORSDOF 5
ENDMDL
MODEL 3
REMARK VINA RESULT:      -8.1      0.590      1.589
REMARK  Name = 
REMARK  5 active torsions:
REMARK  status: ('A' for Active; 'I' for Inactive)
REMARK    1  A    between atoms: N_4  and  C_5
REMARK    2  A    between atoms: C_5  and  C_7
REMARK    3  A    between atoms: C_11  and  S_12
REMARK    4  A    between atoms: S_12  and  C_13
REMARK    5  A    between atoms: C_24  and  N_25
REMARK                            x       y       z     vdW  Elec       q    Type
REMARK                         _______ _______ _______ _____ _____    ______ ____
ROOT
ATOM      1  C   UNL     1       5.534   4.622  17.311  0.00  0.00    +0.000 A 
ATOM      2  N   UNL     1       4.255   4.330  16.946  0.00  0.00    +0.000 NA
ATOM      3  C   UNL     1       3.305   4.551  17.884  0.00  0.00    +0.000 A 
ATOM      4 CL   UNL     1       1.715   4.140  17.358  0.00  0.00    +0.000 Cl
ATOM      5  C   UNL     1       3.595   5.022  19.166  0.00  0.00    +0.000 A 
ATOM      6  N   UNL     1       4.874   5.345  19.506  0.00  0.00    +0.000 NA
ATOM      7  C   UNL     1       5.839   5.145  18.580  0.00  0.00    +0.000 A 
ENDROOT
BRANCH   7   8
ATOM      8  N   UNL     1       7.095   5.600  18.962  0.00  0.00    +0.000 N 
ATOM      9  H   UNL     1       7.801   5.258  18.319  0.00  0.00    +0.000 HD
ATOM     10  H   UNL     1       7.118   6.607  19.127  0.00  0.00    +0.000 HD
ENDBRANCH   7   8
BRANCH   1  11
ATOM     11  C   UNL     1       6.627   4.255  16.351  0.00  0.00    +0.000 C 
ATOM     12  O   UNL     1       7.802   4.499  16.654  0.00  0.00    +0.000 OA
BRANCH  11  16
ATOM     13  N   UNL     1       6.234   3.478  12.911  0.00  0.00    +0.000 N 
ATOM     14  C   UNL     1       6.585   4.116  14.055  0.00  0.00    +0.000 C 
ATOM     15  N   UNL     1       7.326   5.219  13.801  0.00  0.00    +0.000 N 
ATOM     16  N   UNL     1       6.244   3.614  15.194  0.00  0.00    +0.000 NA
ATOM     17  H   UNL     1       5.992   4.068  12.124  0.00  0.00    +0.000 HD
ATOM     18  H   UNL     1       5.562   2.726  13.074  0.00  0.00    +0.000 HD
ATOM     19  H   UNL     1       7.095   5.746  12.971  0.00  0.00    +0.000 HD
ATOM     20  H   UNL     1       7.434   5.817  14.619  0.00  0.00    +0.000 HD
ENDBRANCH  11  16
ENDBRANCH   1  11
BRANCH   5  21
ATOM     21  S   UNL     1       2.424   5.109  20.504  0.00  0.00    +0.000 S 
BRANCH  21  22
ATOM     22  C   UNL     1       1.812   6.776  20.386  0.00  0.00    +0.000 A 
ATOM     23  C   UNL     1       0.973   7.248  21.399  0.00  0.00    +0.000 A 
ATOM     24  C   UNL     1       0.545   8.575  21.405  0.00  0.00    +0.000 A 
ATOM     25  C   UNL     1       0.860   9.424  20.339  0.00  0.00    +0.000 A 
ATOM     26  C   UNL     1       0.364  10.734  20.295  0.00  0.00    +0.000 A 
ATOM     27  C   UNL     1       0.404  11.453  19.103  0.00  0.00    +0.000 A 
ATOM     28  C   UNL     1       1.069  10.929  17.999  0.00  0.00    +0.000 A 
ATOM     29  C   UNL     1       1.751   9.714  18.103  0.00  0.00    +0.000 A 
ATOM     30  C   UNL     1       1.620   8.926  19.258  0.00  0.00    +0.000 A 
ATOM     31  C   UNL     1       2.165   7.631  19.337  0.00  0.00    +0.000 A 
ENDBRANCH  21  22
ENDBRANCH   5  21
TORSDOF 5
ENDMDL
MODEL 4
REMARK VINA RESULT:      -7.9      1.358      1.638
REMARK  Name = 
REMARK  5 active torsions:
REMARK  status: ('A' for Active; 'I' for Inactive)
REMARK    1  A    between atoms: N_4  and  C_5
REMARK    2  A    between atoms: C_5  and  C_7
REMARK    3  A    between atoms: C_11  and  S_12
REMARK    4  A    between atoms: S_12  and  C_13
REMARK    5  A    between atoms: C_24  and  N_25
REMARK                            x       y       z     vdW  Elec       q    Type
REMARK                         _______ _______ _______ _____ _____    ______ ____
ROOT
ATOM      1  C   UNL     1       5.688   4.772  15.904  0.00  0.00    +0.000 A 
ATOM      2  N   UNL     1       4.506   4.114  16.062  0.00  0.00    +0.000 NA
ATOM      3  C   UNL     1       3.798   4.423  17.174  0.00  0.00    +0.000 A 
ATOM      4 CL   UNL     1       2.326   3.538  17.315  0.00  0.00    +0.000 Cl
ATOM      5  C   UNL     1       4.244   5.337  18.131  0.00  0.00    +0.000 A 
ATOM      6  N   UNL     1       5.411   6.015  17.943  0.00  0.00    +0.000 NA
ATOM      7  C   UNL     1       6.129   5.733  16.832  0.00  0.00    +0.000 A 
ENDROOT
BRANCH   7   8
ATOM      8  N   UNL     1       7.244   6.541  16.657  0.00  0.00    +0.000 N 
ATOM      9  H   UNL     1       7.903   6.096  16.027  0.00  0.00    +0.000 HD
ATOM     10  H   UNL     1       7.003   7.503  16.414  0.00  0.00    +0.000 HD
ENDBRANCH   7   8
BRANCH   1  11
ATOM     11  C   UNL     1       6.566   4.352  14.762  0.00  0.00    +0.000 C 
ATOM     12  O   UNL     1       6.292   3.318  14.140  0.00  0.00    +0.000 OA
BRANCH  11  16
ATOM     13  N   UNL     1       8.982   6.154  12.889  0.00  0.00    +0.000 N 
ATOM     14  C   UNL     1       7.970   5.311  13.213  0.00  0.00    +0.000 C 
ATOM     15  N   UNL     1       7.432   4.736  12.113  0.00  0.00    +0.000 N 
ATOM     16  N   UNL     1       7.612   5.190  14.447  0.00  0.00    +0.000 NA
ATOM     17  H   UNL     1       9.591   5.855  12.137  0.00  0.00    +0.000 HD
ATOM     18  H   UNL     1       9.488   6.489  13.710  0.00  0.00    +0.000 HD
ATOM     19  H   UNL     1       8.063   4.511  11.357  0.00  0.00    +0.000 HD
ATOM     20  H   UNL     1       6.810   3.961  12.338  0.00  0.00    +0.000 HD
ENDBRANCH  11  16
ENDBRANCH   1  11
BRANCH   5  21
ATOM     21  S   UNL     1       3.473   5.606  19.712  0.00  0.00    +0.000 S 
BRANCH  21  22
ATOM     22  C   UNL     1       2.538   7.098  19.447  0.00  0.00    +0.000 A 
ATOM     23  C   UNL     1       2.552   7.671  18.173  0.00  0.00    +0.000 A 
ATOM     24  C   UNL     1       1.760   8.783  17.887  0.00  0.00    +0.000 A 
ATOM     25  C   UNL     1       1.025   9.407  18.901  0.00  0.00    +0.000 A 
ATOM     26  C   UNL     1       0.294  10.574  18.641  0.00  0.00    +0.000 A 
ATOM     27  C   UNL     1      -0.158  11.360  19.698  0.00  0.00    +0.000 A 
ATOM     28  C   UNL     1      -0.015  10.912  21.008  0.00  0.00    +0.000 A 
ATOM     29  C   UNL     1       0.523   9.646  21.260  0.00  0.00    +0.000 A 
ATOM     30  C   UNL     1       1.088   8.897  20.216  0.00  0.00    +0.000 A 
ATOM     31  C   UNL     1       1.773   7.691  20.456  0.00  0.00    +0.000 A 
ENDBRANCH  21  22
ENDBRANCH   5  21
TORSDOF 5
ENDMDL
MODEL 5
REMARK VINA RESULT:      -7.9      1.425      2.186
REMARK  Name = 
REMARK  5 active torsions:
REMARK  status: ('A' for Active; 'I' for Inactive)
REMARK    1  A    between atoms: N_4  and  C_5
REMARK    2  A    between atoms: C_5  and  C_7
REMARK    3  A    between atoms: C_11  and  S_12
REMARK    4  A    between atoms: S_12  and  C_13
REMARK    5  A    between atoms: C_24  and  N_25
REMARK                            x       y       z     vdW  Elec       q    Type
REMARK                         _______ _______ _______ _____ _____    ______ ____
ROOT
ATOM      1  C   UNL     1       5.807   4.839  15.815  0.00  0.00    +0.000 A 
ATOM      2  N   UNL     1       4.631   4.156  15.878  0.00  0.00    +0.000 NA
ATOM      3  C   UNL     1       3.966   4.225  17.055  0.00  0.00    +0.000 A 
ATOM      4 CL   UNL     1       2.498   3.321  17.066  0.00  0.00    +0.000 Cl
ATOM      5  C   UNL     1       4.449   4.926  18.162  0.00  0.00    +0.000 A 
ATOM      6  N   UNL     1       5.608   5.636  18.074  0.00  0.00    +0.000 NA
ATOM      7  C   UNL     1       6.283   5.592  16.903  0.00  0.00    +0.000 A 
ENDROOT
BRANCH   7   8
ATOM      8  N   UNL     1       7.392   6.427  16.857  0.00  0.00    +0.000 N 
ATOM      9  H   UNL     1       8.192   5.924  16.486  0.00  0.00    +0.000 HD
ATOM     10  H   UNL     1       7.198   7.319  16.402  0.00  0.00    +0.000 HD
ENDBRANCH   7   8
BRANCH   1  11
ATOM     11  C   UNL     1       6.640   4.668  14.579  0.00  0.00    +0.000 C 
ATOM     12  O   UNL     1       7.548   5.477  14.348  0.00  0.00    +0.000 OA
BRANCH  11  16
ATOM     13  N   UNL     1       6.428   2.514  11.767  0.00  0.00    +0.000 N 
ATOM     14  C   UNL     1       6.673   3.599  12.542  0.00  0.00    +0.000 C 
ATOM     15  N   UNL     1       7.287   4.580  11.842  0.00  0.00    +0.000 N 
ATOM     16  N   UNL     1       6.363   3.570  13.795  0.00  0.00    +0.000 NA
ATOM     17  H   UNL     1       6.139   2.699  10.815  0.00  0.00    +0.000 HD
ATOM     18  H   UNL     1       5.844   1.821  12.239  0.00  0.00    +0.000 HD
ATOM     19  H   UNL     1       7.018   4.692  10.875  0.00  0.00    +0.000 HD
ATOM     20  H   UNL     1       7.305   5.468  12.342  0.00  0.00    +0.000 HD
ENDBRANCH  11  16
ENDBRANCH   1  11
BRANCH   5  21
ATOM     21  S   UNL     1       3.738   4.860  19.793  0.00  0.00    +0.000 S 
BRANCH  21  22
ATOM     22  C   UNL     1       2.721   6.321  19.840  0.00  0.00    +0.000 A 
ATOM     23  C   UNL     1       1.906   6.525  20.957  0.00  0.00    +0.000 A 
ATOM     24  C   UNL     1       1.165   7.700  21.089  0.00  0.00    +0.000 A 
ATOM     25  C   UNL     1       1.141   8.639  20.052  0.00  0.00    +0.000 A 
ATOM     26  C   UNL     1       0.333   9.781  20.140  0.00  0.00    +0.000 A 
ATOM     27  C   UNL     1       0.063  10.530  18.998  0.00  0.00    +0.000 A 
ATOM     28  C   UNL     1       0.713  10.234  17.803  0.00  0.00    +0.000 A 
ATOM     29  C   UNL     1       1.683   9.229  17.765  0.00  0.00    +0.000 A 
ATOM     30  C   UNL     1       1.879   8.391  18.874  0.00  0.00    +0.000 A 
ATOM     31  C   UNL     1       2.734   7.275  18.819  0.00  0.00    +0.000 A 
ENDBRANCH  21  22
ENDBRANCH   5  21
TORSDOF 5
ENDMDL
MODEL 6
REMARK VINA RESULT:      -7.7      7.200     10.001
REMARK  Name = 
REMARK  5 active torsions:
REMARK  status: ('A' for Active; 'I' for Inactive)
REMARK    1  A    between atoms: N_4  and  C_5
REMARK    2  A    between atoms: C_5  and  C_7
REMARK    3  A    between atoms: C_11  and  S_12
REMARK    4  A    between atoms: S_12  and  C_13
REMARK    5  A    between atoms: C_24  and  N_25
REMARK                            x       y       z     vdW  Elec       q    Type
REMARK                         _______ _______ _______ _____ _____    ______ ____
ROOT
ATOM      1  C   UNL     1      -3.584  11.809  18.323  0.00  0.00    +0.000 A 
ATOM      2  N   UNL     1      -3.552  12.167  19.636  0.00  0.00    +0.000 NA
ATOM      3  C   UNL     1      -2.324  12.377  20.166  0.00  0.00    +0.000 A 
ATOM      4 CL   UNL     1      -2.363  12.806  21.835  0.00  0.00    +0.000 Cl
ATOM      5  C   UNL     1      -1.143  12.215  19.438  0.00  0.00    +0.000 A 
ATOM      6  N   UNL     1      -1.190  11.893  18.115  0.00  0.00    +0.000 NA
ATOM      7  C   UNL     1      -2.407  11.692  17.561  0.00  0.00    +0.000 A 
ENDROOT
BRANCH   7   8
ATOM      8  N   UNL     1      -2.377  11.477  16.189  0.00  0.00    +0.000 N 
ATOM      9  H   UNL     1      -3.069  12.059  15.729  0.00  0.00    +0.000 HD
ATOM     10  H   UNL     1      -1.436  11.541  15.798  0.00  0.00    +0.000 HD
ENDBRANCH   7   8
BRANCH   1  11
ATOM     11  C   UNL     1      -4.913  11.429  17.742  0.00  0.00    +0.000 C 
ATOM     12  O   UNL     1      -5.387  12.110  16.824  0.00  0.00    +0.000 OA
BRANCH  11  16
ATOM     13  N   UNL     1      -7.272   9.270  19.281  0.00  0.00    +0.000 N 
ATOM     14  C   UNL     1      -6.668  10.386  18.803  0.00  0.00    +0.000 C 
ATOM     15  N   UNL     1      -7.455  11.477  18.949  0.00  0.00    +0.000 N 
ATOM     16  N   UNL     1      -5.506  10.294  18.248  0.00  0.00    +0.000 NA
ATOM     17  H   UNL     1      -7.813   9.382  20.130  0.00  0.00    +0.000 HD
ATOM     18  H   UNL     1      -6.642   8.466  19.306  0.00  0.00    +0.000 HD
ATOM     19  H   UNL     1      -8.029  11.522  19.778  0.00  0.00    +0.000 HD
ATOM     20  H   UNL     1      -6.954  12.349  18.780  0.00  0.00    +0.000 HD
ENDBRANCH  11  16
ENDBRANCH   1  11
BRANCH   5  21
ATOM     21  S   UNL     1       0.493  12.250  20.139  0.00  0.00    +0.000 S 
BRANCH  21  22
ATOM     22  C   UNL     1       0.936  10.527  20.195  0.00  0.00    +0.000 A 
ATOM     23  C   UNL     1       0.860   9.863  21.421  0.00  0.00    +0.000 A 
ATOM     24  C   UNL     1       1.102   8.491  21.502  0.00  0.00    +0.000 A 
ATOM     25  C   UNL     1       1.533   7.783  20.374  0.00  0.00    +0.000 A 
ATOM     26  C   UNL     1       1.860   6.423  20.465  0.00  0.00    +0.000 A 
ATOM     27  C   UNL     1       2.586   5.814  19.444  0.00  0.00    +0.000 A 
ATOM     28  C   UNL     1       2.855   6.513  18.271  0.00  0.00    +0.000 A 
ATOM     29  C   UNL     1       2.344   7.801  18.090  0.00  0.00    +0.000 A 
ATOM     30  C   UNL     1       1.714   8.468  19.153  0.00  0.00    +0.000 A 
ATOM     31  C   UNL     1       1.326   9.817  19.055  0.00  0.00    +0.000 A 
ENDBRANCH  21  22
ENDBRANCH   5  21
TORSDOF 5
ENDMDL
MODEL 7
REMARK VINA RESULT:      -7.6      3.793      4.972
REMARK  Name = 
REMARK  5 active torsions:
REMARK  status: ('A' for Active; 'I' for Inactive)
REMARK    1  A    between atoms: N_4  and  C_5
REMARK    2  A    between atoms: C_5  and  C_7
REMARK    3  A    between atoms: C_11  and  S_12
REMARK    4  A    between atoms: S_12  and  C_13
REMARK    5  A    between atoms: C_24  and  N_25
REMARK                            x       y       z     vdW  Elec       q    Type
REMARK                         _______ _______ _______ _____ _____    ______ ____
ROOT
ATOM      1  C   UNL     1       1.975   4.720  19.573  0.00  0.00    +0.000 A 
ATOM      2  N   UNL     1       1.791   5.681  20.520  0.00  0.00    +0.000 NA
ATOM      3  C   UNL     1       1.869   6.962  20.090  0.00  0.00    +0.000 A 
ATOM      4 CL   UNL     1       1.646   8.120  21.348  0.00  0.00    +0.000 Cl
ATOM      5  C   UNL     1       2.148   7.305  18.766  0.00  0.00    +0.000 A 
ATOM      6  N   UNL     1       2.292   6.335  17.820  0.00  0.00    +0.000 NA
ATOM      7  C   UNL     1       2.206   5.047  18.224  0.00  0.00    +0.000 A 
ENDROOT
BRANCH   7   8
ATOM      8  N   UNL     1       2.254   4.124  17.188  0.00  0.00    +0.000 N 
ATOM      9  H   UNL     1       3.196   4.066  16.815  0.00  0.00    +0.000 HD
ATOM     10  H   UNL     1       1.836   3.226  17.437  0.00  0.00    +0.000 HD
ENDBRANCH   7   8
BRANCH   1  11
ATOM     11  C   UNL     1       2.039   3.295  20.037  0.00  0.00    +0.000 C 
ATOM     12  O   UNL     1       1.059   2.560  19.864  0.00  0.00    +0.000 OA
BRANCH  11  16
ATOM     13  N   UNL     1       5.183   1.699  20.443  0.00  0.00    +0.000 N 
ATOM     14  C   UNL     1       3.997   2.093  19.915  0.00  0.00    +0.000 C 
ATOM     15  N   UNL     1       3.825   1.607  18.665  0.00  0.00    +0.000 N 
ATOM     16  N   UNL     1       3.230   2.880  20.592  0.00  0.00    +0.000 NA
ATOM     17  H   UNL     1       5.474   0.752  20.235  0.00  0.00    +0.000 HD
ATOM     18  H   UNL     1       5.269   1.940  21.432  0.00  0.00    +0.000 HD
ATOM     19  H   UNL     1       4.186   0.683  18.478  0.00  0.00    +0.000 HD
ATOM     20  H   UNL     1       2.870   1.722  18.327  0.00  0.00    +0.000 HD
ENDBRANCH  11  16
ENDBRANCH   1  11
BRANCH   5  21
ATOM     21  S   UNL     1       2.489   8.957  18.197  0.00  0.00    +0.000 S 
BRANCH  21  22
ATOM     22  C   UNL     1       0.928   9.782  18.419  0.00  0.00    +0.000 A 
ATOM     23  C   UNL     1       0.818  10.729  19.441  0.00  0.00    +0.000 A 
ATOM     24  C   UNL     1      -0.351  11.474  19.596  0.00  0.00    +0.000 A 
ATOM     25  C   UNL     1      -1.470  11.205  18.800  0.00  0.00    +0.000 A 
ATOM     26  C   UNL     1      -2.675  11.890  19.005  0.00  0.00    +0.000 A 
ATOM     27  C   UNL     1      -3.855  11.403  18.447  0.00  0.00    +0.000 A 
ATOM     28  C   UNL     1      -3.813  10.326  17.566  0.00  0.00    +0.000 A 
ATOM     29  C   UNL     1      -2.584   9.775  17.191  0.00  0.00    +0.000 A 
ATOM     30  C   UNL     1      -1.403  10.178  17.834  0.00  0.00    +0.000 A 
ATOM     31  C   UNL     1      -0.173   9.538  17.592  0.00  0.00    +0.000 A 
ENDBRANCH  21  22
ENDBRANCH   5  21
TORSDOF 5
ENDMDL
MODEL 8
REMARK VINA RESULT:      -7.6      7.686     10.640
REMARK  Name = 
REMARK  5 active torsions:
REMARK  status: ('A' for Active; 'I' for Inactive)
REMARK    1  A    between atoms: N_4  and  C_5
REMARK    2  A    between atoms: C_5  and  C_7
REMARK    3  A    between atoms: C_11  and  S_12
REMARK    4  A    between atoms: S_12  and  C_13
REMARK    5  A    between atoms: C_24  and  N_25
REMARK                            x       y       z     vdW  Elec       q    Type
REMARK                         _______ _______ _______ _____ _____    ______ ____
ROOT
ATOM      1  C   UNL     1      -5.055  11.609  18.930  0.00  0.00    +0.000 A 
ATOM      2  N   UNL     1      -4.428  10.958  17.911  0.00  0.00    +0.000 NA
ATOM      3  C   UNL     1      -3.086  11.119  17.839  0.00  0.00    +0.000 A 
ATOM      4 CL   UNL     1      -2.367  10.282  16.514  0.00  0.00    +0.000 Cl
ATOM      5  C   UNL     1      -2.367  11.921  18.727  0.00  0.00    +0.000 A 
ATOM      6  N   UNL     1      -3.000  12.537  19.764  0.00  0.00    +0.000 NA
ATOM      7  C   UNL     1      -4.340  12.380  19.864  0.00  0.00    +0.000 A 
ENDROOT
BRANCH   7   8
ATOM      8  N   UNL     1      -4.893  12.946  21.005  0.00  0.00    +0.000 N 
ATOM      9  H   UNL     1      -5.801  13.346  20.791  0.00  0.00    +0.000 HD
ATOM     10  H   UNL     1      -4.882  12.314  21.806  0.00  0.00    +0.000 HD
ENDBRANCH   7   8
BRANCH   1  11
ATOM     11  C   UNL     1      -6.554  11.572  18.956  0.00  0.00    +0.000 C 
ATOM     12  O   UNL     1      -7.182  11.866  17.931  0.00  0.00    +0.000 OA
BRANCH  11  16
ATOM     13  N   UNL     1      -7.913   9.477  21.477  0.00  0.00    +0.000 N 
ATOM     14  C   UNL     1      -7.359   9.898  20.313  0.00  0.00    +0.000 C 
ATOM     15  N   UNL     1      -7.059   8.858  19.502  0.00  0.00    +0.000 N 
ATOM     16  N   UNL     1      -7.141  11.157  20.131  0.00  0.00    +0.000 NA
ATOM     17  H   UNL     1      -8.556   8.697  21.412  0.00  0.00    +0.000 HD
ATOM     18  H   UNL     1      -8.271  10.250  22.041  0.00  0.00    +0.000 HD
ATOM     19  H   UNL     1      -7.690   8.070  19.512  0.00  0.00    +0.000 HD
ATOM     20  H   UNL     1      -6.827   9.153  18.554  0.00  0.00    +0.000 HD
ENDBRANCH  11  16
ENDBRANCH   1  11
BRANCH   5  21
ATOM     21  S   UNL     1      -0.650  12.351  18.542  0.00  0.00    +0.000 S 
BRANCH  21  22
ATOM     22  C   UNL     1       0.186  10.843  18.986  0.00  0.00    +0.000 A 
ATOM     23  C   UNL     1       0.118  10.415  20.315  0.00  0.00    +0.000 A 
ATOM     24  C   UNL     1       0.672   9.192  20.695  0.00  0.00    +0.000 A 
ATOM     25  C   UNL     1       1.399   8.430  19.775  0.00  0.00    +0.000 A 
ATOM     26  C   UNL     1       2.031   7.242  20.169  0.00  0.00    +0.000 A 
ATOM     27  C   UNL     1       3.005   6.670  19.355  0.00  0.00    +0.000 A 
ATOM     28  C   UNL     1       3.244   7.191  18.087  0.00  0.00    +0.000 A 
ATOM     29  C   UNL     1       2.464   8.246  17.605  0.00  0.00    +0.000 A 
ATOM     30  C   UNL     1       1.563   8.906  18.456  0.00  0.00    +0.000 A 
ATOM     31  C   UNL     1       0.876  10.066  18.051  0.00  0.00    +0.000 A 
ENDBRANCH  21  22
ENDBRANCH   5  21
TORSDOF 5
ENDMDL
MODEL 9
REMARK VINA RESULT:      -7.6      0.829      1.034
REMARK  Name = 
REMARK  5 active torsions:
REMARK  status: ('A' for Active; 'I' for Inactive)
REMARK    1  A    between atoms: N_4  and  C_5
REMARK    2  A    between atoms: C_5  and  C_7
REMARK    3  A    between atoms: C_11  and  S_12
REMARK    4  A    between atoms: S_12  and  C_13
REMARK    5  A    between atoms: C_24  and  N_25
REMARK                            x       y       z     vdW  Elec       q    Type
REMARK                         _______ _______ _______ _____ _____    ______ ____
ROOT
ATOM      1  C   UNL     1       5.191   4.565  16.908  0.00  0.00    +0.000 A 
ATOM      2  N   UNL     1       3.854   4.339  16.778  0.00  0.00    +0.000 NA
ATOM      3  C   UNL     1       3.077   4.761  17.803  0.00  0.00    +0.000 A 
ATOM      4 CL   UNL     1       1.402   4.424  17.577  0.00  0.00    +0.000 Cl
ATOM      5  C   UNL     1       3.594   5.370  18.949  0.00  0.00    +0.000 A 
ATOM      6  N   UNL     1       4.928   5.623  19.051  0.00  0.00    +0.000 NA
ATOM      7  C   UNL     1       5.723   5.222  18.032  0.00  0.00    +0.000 A 
ENDROOT
BRANCH   7   8
ATOM      8  N   UNL     1       7.049   5.613  18.160  0.00  0.00    +0.000 N 
ATOM      9  H   UNL     1       7.355   6.090  17.317  0.00  0.00    +0.000 HD
ATOM     10  H   UNL     1       7.232   6.118  19.027  0.00  0.00    +0.000 HD
ENDBRANCH   7   8
BRANCH   1  11
ATOM     11  C   UNL     1       6.095   3.983  15.862  0.00  0.00    +0.000 C 
ATOM     12  O   UNL     1       5.906   2.821  15.480  0.00  0.00    +0.000 OA
BRANCH  11  16
ATOM     13  N   UNL     1       8.215   5.663  13.565  0.00  0.00    +0.000 N 
ATOM     14  C   UNL     1       7.279   4.827  14.080  0.00  0.00    +0.000 C 
ATOM     15  N   UNL     1       6.647   4.132  13.107  0.00  0.00    +0.000 N 
ATOM     16  N   UNL     1       7.066   4.817  15.352  0.00  0.00    +0.000 NA
ATOM     17  H   UNL     1       8.749   5.310  12.780  0.00  0.00    +0.000 HD
ATOM     18  H   UNL     1       8.795   6.091  14.288  0.00  0.00    +0.000 HD
ATOM     19  H   UNL     1       7.198   3.852  12.308  0.00  0.00    +0.000 HD
ATOM     20  H   UNL     1       6.085   3.364  13.474  0.00  0.00    +0.000 HD
ENDBRANCH  11  16
ENDBRANCH   1  11
BRANCH   5  21
ATOM     21  S   UNL     1       2.653   5.731  20.416  0.00  0.00    +0.000 S 
BRANCH  21  22
ATOM     22  C   UNL     1       1.978   7.341  20.066  0.00  0.00    +0.000 A 
ATOM     23  C   UNL     1       2.216   7.900  18.808  0.00  0.00    +0.000 A 
ATOM     24  C   UNL     1       1.629   9.114  18.449  0.00  0.00    +0.000 A 
ATOM     25  C   UNL     1       0.884   9.842  19.383  0.00  0.00    +0.000 A 
ATOM     26  C   UNL     1       0.362  11.101  19.058  0.00  0.00    +0.000 A 
ATOM     27  C   UNL     1      -0.086  11.950  20.067  0.00  0.00    +0.000 A 
ATOM     28  C   UNL     1      -0.154  11.491  21.379  0.00  0.00    +0.000 A 
ATOM     29  C   UNL     1       0.164  10.163  21.675  0.00  0.00    +0.000 A 
ATOM     30  C   UNL     1       0.727   9.335  20.691  0.00  0.00    +0.000 A 
ATOM     31  C   UNL     1       1.201   8.044  20.992  0.00  0.00    +0.000 A 
ENDBRANCH  21  22
ENDBRANCH   5  21
TORSDOF 5
ENDMDL
