MODEL 1
REMARK VINA RESULT:      -8.1      0.000      0.000
REMARK  Name = 
REMARK  11 active torsions:
REMARK  status: ('A' for Active; 'I' for Inactive)
REMARK    1  A    between atoms: C_1  and  C_2
REMARK    2  A    between atoms: C_2  and  C_3
REMARK    3  A    between atoms: C_3  and  C_4
REMARK    4  A    between atoms: C_4  and  C_5
REMARK    5  A    between atoms: C_5  and  C_6
REMARK    6  A    between atoms: C_6  and  C_7
REMARK    7  A    between atoms: C_9  and  O_10
REMARK    8  A    between atoms: O_10  and  C_11
REMARK    9  A    between atoms: C_11  and  C_12
REMARK   10  A    between atoms: C_14  and  C_15
REMARK   11  A    between atoms: C_15  and  N_16
REMARK                            x       y       z     vdW  Elec       q    Type
REMARK                         _______ _______ _______ _____ _____    ______ ____
ROOT
ATOM      1  C   UNL     1       7.269   5.853  16.976  0.00  0.00    +0.000 C 
ATOM      2  O   UNL     1       6.814   5.732  15.641  0.00  0.00    +0.000 OA
ATOM      3  C   UNL     1       5.749   4.845  15.354  0.00  0.00    +0.000 C 
ATOM      4  C   UNL     1       5.004   4.310  16.539  0.00  0.00    +0.000 C 
ATOM      5  C   UNL     1       5.389   4.309  17.818  0.00  0.00    +0.000 C 
ATOM      6  C   UNL     1       6.661   4.966  18.084  0.00  0.00    +0.000 C 
ATOM      7  O   UNL     1       7.194   4.853  19.195  0.00  0.00    +0.000 OA
ENDROOT
BRANCH   1   8
ATOM      8  C   UNL     1       7.106   7.342  17.333  0.00  0.00    +0.000 C 
BRANCH   8   9
ATOM      9  C   UNL     1       8.231   7.913  18.193  0.00  0.00    +0.000 C 
BRANCH   9  10
ATOM     10  C   UNL     1       8.318   9.428  18.070  0.00  0.00    +0.000 C 
BRANCH  10  11
ATOM     11  C   UNL     1       9.163  10.003  19.204  0.00  0.00    +0.000 C 
BRANCH  11  13
ATOM     12  C   UNL     1      10.508  11.541  17.751  0.00  0.00    +0.000 C 
ATOM     13  C   UNL     1       9.533  11.447  18.914  0.00  0.00    +0.000 C 
ENDBRANCH  11  13
ENDBRANCH  10  11
ENDBRANCH   9  10
ENDBRANCH   8   9
ENDBRANCH   1   8
BRANCH   3  14
ATOM     14  O   UNL     1       6.237   3.743  14.583  0.00  0.00    +0.000 OA
BRANCH  14  15
ATOM     15  C   UNL     1       6.594   4.105  13.253  0.00  0.00    +0.000 C 
ATOM     16  C   UNL     1       5.817   3.277  12.266  0.00  0.00    +0.000 C 
ENDBRANCH  14  15
ENDBRANCH   3  14
BRANCH   5  17
ATOM     17  C   UNL     1       4.660   3.636  18.956  0.00  0.00    +0.000 C 
BRANCH  17  18
ATOM     18  N   UNL     1       3.185   3.812  18.999  0.00  0.00    +0.000 NA
ATOM     19  C   UNL     1       2.492   2.522  18.816  0.00  0.00    +0.000 C 
ATOM     20  C   UNL     1       0.992   2.566  19.115  0.00  0.00    +0.000 C 
ATOM     21  C   UNL     1       0.716   3.175  20.478  0.00  0.00    +0.000 C 
ATOM     22  C   UNL     1       1.327   4.565  20.536  0.00  0.00    +0.000 C 
ATOM     23  C   UNL     1       2.827   4.519  20.245  0.00  0.00    +0.000 C 
ENDBRANCH  17  18
ENDBRANCH   5  17
TORSDOF 9
ENDMDL
MODEL 2
REMARK VINA RESULT:      -7.7      1.066      1.462
REMARK  Name = 
REMARK  11 active torsions:
REMARK  status: ('A' for Active; 'I' for Inactive)
REMARK    1  A    between atoms: C_1  and  C_2
REMARK    2  A    between atoms: C_2  and  C_3
REMARK    3  A    between atoms: C_3  and  C_4
REMARK    4  A    between atoms: C_4  and  C_5
REMARK    5  A    between atoms: C_5  and  C_6
REMARK    6  A    between atoms: C_6  and  C_7
REMARK    7  A    between atoms: C_9  and  O_10
REMARK    8  A    between atoms: O_10  and  C_11
REMARK    9  A    between atoms: C_11  and  C_12
REMARK   10  A    between atoms: C_14  and  C_15
REMARK   11  A    between atoms: C_15  and  N_16
REMARK                            x       y       z     vdW  Elec       q    Type
REMARK                         _______ _______ _______ _____ _____    ______ ____
ROOT
ATOM      1  C   UNL     1       7.617   6.613  17.507  0.00  0.00    +0.000 C 
ATOM      2  O   UNL     1       6.802   7.273  16.557  0.00  0.00    +0.000 OA
ATOM      3  C   UNL     1       5.455   6.867  16.405  0.00  0.00    +0.000 C 
ATOM      4  C   UNL     1       4.924   5.949  17.464  0.00  0.00    +0.000 C 
ATOM      5  C   UNL     1       5.617   5.228  18.348  0.00  0.00    +0.000 C 
ATOM      6  C   UNL     1       7.061   5.414  18.304  0.00  0.00    +0.000 C 
ATOM      7  O   UNL     1       7.801   4.657  18.945  0.00  0.00    +0.000 OA
ENDROOT
BRANCH   1   8
ATOM      8  C   UNL     1       8.104   7.714  18.468  0.00  0.00    +0.000 C 
BRANCH   8   9
ATOM      9  C   UNL     1       8.135   9.115  17.862  0.00  0.00    +0.000 C 
BRANCH   9  10
ATOM     10  C   UNL     1       8.953  10.077  18.711  0.00  0.00    +0.000 C 
BRANCH  10  11
ATOM     11  C   UNL     1       9.153  11.398  17.971  0.00  0.00    +0.000 C 
BRANCH  11  13
ATOM     12  C   UNL     1      11.384  11.519  19.107  0.00  0.00    +0.000 C 
ATOM     13  C   UNL     1      10.633  11.692  17.797  0.00  0.00    +0.000 C 
ENDBRANCH  11  13
ENDBRANCH  10  11
ENDBRANCH   9  10
ENDBRANCH   8   9
ENDBRANCH   1   8
BRANCH   3  14
ATOM     14  O   UNL     1       5.283   6.242  15.128  0.00  0.00    +0.000 OA
BRANCH  14  15
ATOM     15  C   UNL     1       5.369   4.822  15.186  0.00  0.00    +0.000 C 
ATOM     16  C   UNL     1       6.097   4.299  13.977  0.00  0.00    +0.000 C 
ENDBRANCH  14  15
ENDBRANCH   3  14
BRANCH   5  17
ATOM     17  C   UNL     1       5.038   4.215  19.306  0.00  0.00    +0.000 C 
BRANCH  17  18
ATOM     18  N   UNL     1       3.569   4.001  19.241  0.00  0.00    +0.000 NA
ATOM     19  C   UNL     1       3.236   2.569  19.375  0.00  0.00    +0.000 C 
ATOM     20  C   UNL     1       1.747   2.288  19.590  0.00  0.00    +0.000 C 
ATOM     21  C   UNL     1       1.187   3.115  20.733  0.00  0.00    +0.000 C 
ATOM     22  C   UNL     1       1.430   4.588  20.450  0.00  0.00    +0.000 C 
ATOM     23  C   UNL     1       2.918   4.869  20.243  0.00  0.00    +0.000 C 
ENDBRANCH  17  18
ENDBRANCH   5  17
TORSDOF 9
ENDMDL
MODEL 3
REMARK VINA RESULT:      -7.6      1.119      1.545
REMARK  Name = 
REMARK  11 active torsions:
REMARK  status: ('A' for Active; 'I' for Inactive)
REMARK    1  A    between atoms: C_1  and  C_2
REMARK    2  A    between atoms: C_2  and  C_3
REMARK    3  A    between atoms: C_3  and  C_4
REMARK    4  A    between atoms: C_4  and  C_5
REMARK    5  A    between atoms: C_5  and  C_6
REMARK    6  A    between atoms: C_6  and  C_7
REMARK    7  A    between atoms: C_9  and  O_10
REMARK    8  A    between atoms: O_10  and  C_11
REMARK    9  A    between atoms: C_11  and  C_12
REMARK   10  A    between atoms: C_14  and  C_15
REMARK   11  A    between atoms: C_15  and  N_16
REMARK                            x       y       z     vdW  Elec       q    Type
REMARK                         _______ _______ _______ _____ _____    ______ ____
ROOT
ATOM      1  C   UNL     1       7.195   5.883  17.764  0.00  0.00    +0.000 C 
ATOM      2  O   UNL     1       6.898   6.131  16.403  0.00  0.00    +0.000 OA
ATOM      3  C   UNL     1       5.548   6.103  15.976  0.00  0.00    +0.000 C 
ATOM      4  C   UNL     1       4.518   6.084  17.064  0.00  0.00    +0.000 C 
ATOM      5  C   UNL     1       4.692   5.786  18.354  0.00  0.00    +0.000 C 
ATOM      6  C   UNL     1       6.066   5.507  18.747  0.00  0.00    +0.000 C 
ATOM      7  O   UNL     1       6.305   5.038  19.867  0.00  0.00    +0.000 OA
ENDROOT
BRANCH   1   8
ATOM      8  C   UNL     1       7.938   7.138  18.258  0.00  0.00    +0.000 C 
BRANCH   8   9
ATOM      9  C   UNL     1       7.894   8.321  17.294  0.00  0.00    +0.000 C 
BRANCH   9  10
ATOM     10  C   UNL     1       8.036   9.648  18.026  0.00  0.00    +0.000 C 
BRANCH  10  11
ATOM     11  C   UNL     1       9.179   9.575  19.036  0.00  0.00    +0.000 C 
BRANCH  11  13
ATOM     12  C   UNL     1      10.862  11.427  19.196  0.00  0.00    +0.000 C 
ATOM     13  C   UNL     1       9.477  10.953  19.604  0.00  0.00    +0.000 C 
ENDBRANCH  11  13
ENDBRANCH  10  11
ENDBRANCH   9  10
ENDBRANCH   8   9
ENDBRANCH   1   8
BRANCH   3  14
ATOM     14  O   UNL     1       5.338   4.971  15.126  0.00  0.00    +0.000 OA
BRANCH  14  15
ATOM     15  C   UNL     1       6.513   4.571  14.428  0.00  0.00    +0.000 C 
ATOM     16  C   UNL     1       6.144   3.736  13.231  0.00  0.00    +0.000 C 
ENDBRANCH  14  15
ENDBRANCH   3  14
BRANCH   5  17
ATOM     17  C   UNL     1       3.595   5.651  19.382  0.00  0.00    +0.000 C 
BRANCH  17  18
ATOM     18  N   UNL     1       3.062   4.282  19.612  0.00  0.00    +0.000 NA
ATOM     19  C   UNL     1       1.976   4.298  20.612  0.00  0.00    +0.000 C 
ATOM     20  C   UNL     1       1.194   2.987  20.710  0.00  0.00    +0.000 C 
ATOM     21  C   UNL     1       0.709   2.528  19.347  0.00  0.00    +0.000 C 
ATOM     22  C   UNL     1       1.901   2.385  18.415  0.00  0.00    +0.000 C 
ATOM     23  C   UNL     1       2.678   3.697  18.312  0.00  0.00    +0.000 C 
ENDBRANCH  17  18
ENDBRANCH   5  17
TORSDOF 9
ENDMDL
MODEL 4
REMARK VINA RESULT:      -7.6      1.156      1.321
REMARK  Name = 
REMARK  11 active torsions:
REMARK  status: ('A' for Active; 'I' for Inactive)
REMARK    1  A    between atoms: C_1  and  C_2
REMARK    2  A    between atoms: C_2  and  C_3
REMARK    3  A    between atoms: C_3  and  C_4
REMARK    4  A    between atoms: C_4  and  C_5
REMARK    5  A    between atoms: C_5  and  C_6
REMARK    6  A    between atoms: C_6  and  C_7
REMARK    7  A    between atoms: C_9  and  O_10
REMARK    8  A    between atoms: O_10  and  C_11
REMARK    9  A    between atoms: C_11  and  C_12
REMARK   10  A    between atoms: C_14  and  C_15
REMARK   11  A    between atoms: C_15  and  N_16
REMARK                            x       y       z     vdW  Elec       q    Type
REMARK                         _______ _______ _______ _____ _____    ______ ____
ROOT
ATOM      1  C   UNL     1       7.391   5.997  17.725  0.00  0.00    +0.000 C 
ATOM      2  O   UNL     1       7.039   6.216  16.372  0.00  0.00    +0.000 OA
ATOM      3  C   UNL     1       5.676   6.146  15.995  0.00  0.00    +0.000 C 
ATOM      4  C   UNL     1       4.686   6.118  17.120  0.00  0.00    +0.000 C 
ATOM      5  C   UNL     1       4.913   5.844  18.407  0.00  0.00    +0.000 C 
ATOM      6  C   UNL     1       6.308   5.607  18.753  0.00  0.00    +0.000 C 
ATOM      7  O   UNL     1       6.599   5.161  19.871  0.00  0.00    +0.000 OA
ENDROOT
BRANCH   1   8
ATOM      8  C   UNL     1       8.118   7.278  18.174  0.00  0.00    +0.000 C 
BRANCH   8   9
ATOM      9  C   UNL     1       7.497   8.573  17.657  0.00  0.00    +0.000 C 
BRANCH   9  10
ATOM     10  C   UNL     1       8.451   9.750  17.799  0.00  0.00    +0.000 C 
BRANCH  10  11
ATOM     11  C   UNL     1       9.214   9.657  19.119  0.00  0.00    +0.000 C 
BRANCH  11  13
ATOM     12  C   UNL     1      10.759  11.462  19.918  0.00  0.00    +0.000 C 
ATOM     13  C   UNL     1       9.311  11.023  19.776  0.00  0.00    +0.000 C 
ENDBRANCH  11  13
ENDBRANCH  10  11
ENDBRANCH   9  10
ENDBRANCH   8   9
ENDBRANCH   1   8
BRANCH   3  14
ATOM     14  O   UNL     1       5.465   4.997  15.169  0.00  0.00    +0.000 OA
BRANCH  14  15
ATOM     15  C   UNL     1       6.598   4.666  14.372  0.00  0.00    +0.000 C 
ATOM     16  C   UNL     1       6.190   3.754  13.247  0.00  0.00    +0.000 C 
ENDBRANCH  14  15
ENDBRANCH   3  14
BRANCH   5  17
ATOM     17  C   UNL     1       3.858   5.697  19.475  0.00  0.00    +0.000 C 
BRANCH  17  18
ATOM     18  N   UNL     1       2.825   4.652  19.252  0.00  0.00    +0.000 NA
ATOM     19  C   UNL     1       3.431   3.307  19.217  0.00  0.00    +0.000 C 
ATOM     20  C   UNL     1       2.419   2.160  19.262  0.00  0.00    +0.000 C 
ATOM     21  C   UNL     1       1.450   2.321  20.419  0.00  0.00    +0.000 C 
ATOM     22  C   UNL     1       0.750   3.665  20.302  0.00  0.00    +0.000 C 
ATOM     23  C   UNL     1       1.762   4.810  20.264  0.00  0.00    +0.000 C 
ENDBRANCH  17  18
ENDBRANCH   5  17
TORSDOF 9
ENDMDL
MODEL 5
REMARK VINA RESULT:      -7.5      1.055      1.205
REMARK  Name = 
REMARK  11 active torsions:
REMARK  status: ('A' for Active; 'I' for Inactive)
REMARK    1  A    between atoms: C_1  and  C_2
REMARK    2  A    between atoms: C_2  and  C_3
REMARK    3  A    between atoms: C_3  and  C_4
REMARK    4  A    between atoms: C_4  and  C_5
REMARK    5  A    between atoms: C_5  and  C_6
REMARK    6  A    between atoms: C_6  and  C_7
REMARK    7  A    between atoms: C_9  and  O_10
REMARK    8  A    between atoms: O_10  and  C_11
REMARK    9  A    between atoms: C_11  and  C_12
REMARK   10  A    between atoms: C_14  and  C_15
REMARK   11  A    between atoms: C_15  and  N_16
REMARK                            x       y       z     vdW  Elec       q    Type
REMARK                         _______ _______ _______ _____ _____    ______ ____
ROOT
ATOM      1  C   UNL     1       7.701   6.543  17.536  0.00  0.00    +0.000 C 
ATOM      2  O   UNL     1       7.452   6.377  16.153  0.00  0.00    +0.000 OA
ATOM      3  C   UNL     1       6.435   5.482  15.740  0.00  0.00    +0.000 C 
ATOM      4  C   UNL     1       5.518   4.990  16.817  0.00  0.00    +0.000 C 
ATOM      5  C   UNL     1       5.706   5.033  18.139  0.00  0.00    +0.000 C 
ATOM      6  C   UNL     1       6.929   5.697  18.569  0.00  0.00    +0.000 C 
ATOM      7  O   UNL     1       7.289   5.621  19.751  0.00  0.00    +0.000 OA
ENDROOT
BRANCH   1   8
ATOM      8  C   UNL     1       7.497   8.044  17.814  0.00  0.00    +0.000 C 
BRANCH   8   9
ATOM      9  C   UNL     1       8.668   8.723  18.520  0.00  0.00    +0.000 C 
BRANCH   9  10
ATOM     10  C   UNL     1       8.731  10.210  18.201  0.00  0.00    +0.000 C 
BRANCH  10  11
ATOM     11  C   UNL     1       9.816  10.884  19.038  0.00  0.00    +0.000 C 
BRANCH  11  13
ATOM     12  C   UNL     1      10.332  12.824  17.535  0.00  0.00    +0.000 C 
ATOM     13  C   UNL     1      10.856  11.531  18.139  0.00  0.00    +0.000 C 
ENDBRANCH  11  13
ENDBRANCH  10  11
ENDBRANCH   9  10
ENDBRANCH   8   9
ENDBRANCH   1   8
BRANCH   3  14
ATOM     14  O   UNL     1       7.026   4.353  15.089  0.00  0.00    +0.000 OA
BRANCH  14  15
ATOM     15  C   UNL     1       6.126   3.676  14.218  0.00  0.00    +0.000 C 
ATOM     16  C   UNL     1       6.560   3.852  12.788  0.00  0.00    +0.000 C 
ENDBRANCH  14  15
ENDBRANCH   3  14
BRANCH   5  17
ATOM     17  C   UNL     1       4.812   4.401  19.177  0.00  0.00    +0.000 C 
BRANCH  17  18
ATOM     18  N   UNL     1       3.648   3.626  18.671  0.00  0.00    +0.000 NA
ATOM     19  C   UNL     1       3.319   2.511  19.580  0.00  0.00    +0.000 C 
ATOM     20  C   UNL     1       1.980   1.832  19.282  0.00  0.00    +0.000 C 
ATOM     21  C   UNL     1       0.854   2.845  19.189  0.00  0.00    +0.000 C 
ATOM     22  C   UNL     1       1.194   3.874  18.123  0.00  0.00    +0.000 C 
ATOM     23  C   UNL     1       2.528   4.557  18.426  0.00  0.00    +0.000 C 
ENDBRANCH  17  18
ENDBRANCH   5  17
TORSDOF 9
ENDMDL
MODEL 6
REMARK VINA RESULT:      -7.4      1.098      1.625
REMARK  Name = 
REMARK  11 active torsions:
REMARK  status: ('A' for Active; 'I' for Inactive)
REMARK    1  A    between atoms: C_1  and  C_2
REMARK    2  A    between atoms: C_2  and  C_3
REMARK    3  A    between atoms: C_3  and  C_4
REMARK    4  A    between atoms: C_4  and  C_5
REMARK    5  A    between atoms: C_5  and  C_6
REMARK    6  A    between atoms: C_6  and  C_7
REMARK    7  A    between atoms: C_9  and  O_10
REMARK    8  A    between atoms: O_10  and  C_11
REMARK    9  A    between atoms: C_11  and  C_12
REMARK   10  A    between atoms: C_14  and  C_15
REMARK   11  A    between atoms: C_15  and  N_16
REMARK                            x       y       z     vdW  Elec       q    Type
REMARK                         _______ _______ _______ _____ _____    ______ ____
ROOT
ATOM      1  C   UNL     1       7.464   5.073  18.112  0.00  0.00    +0.000 C 
ATOM      2  O   UNL     1       7.730   5.077  16.722  0.00  0.00    +0.000 OA
ATOM      3  C   UNL     1       6.645   5.111  15.813  0.00  0.00    +0.000 C 
ATOM      4  C   UNL     1       5.304   5.421  16.406  0.00  0.00    +0.000 C 
ATOM      5  C   UNL     1       4.942   5.367  17.690  0.00  0.00    +0.000 C 
ATOM      6  C   UNL     1       6.008   5.024  18.621  0.00  0.00    +0.000 C 
ATOM      7  O   UNL     1       5.737   4.763  19.800  0.00  0.00    +0.000 OA
ENDROOT
BRANCH   1   8
ATOM      8  C   UNL     1       8.185   6.313  18.672  0.00  0.00    +0.000 C 
BRANCH   8   9
ATOM      9  C   UNL     1       7.836   7.622  17.968  0.00  0.00    +0.000 C 
BRANCH   9  10
ATOM     10  C   UNL     1       8.534   8.810  18.612  0.00  0.00    +0.000 C 
BRANCH  10  11
ATOM     11  C   UNL     1       8.345  10.062  17.757  0.00  0.00    +0.000 C 
BRANCH  11  13
ATOM     12  C   UNL     1       9.772  10.944  19.620  0.00  0.00    +0.000 C 
ATOM     13  C   UNL     1       9.313  11.151  18.186  0.00  0.00    +0.000 C 
ENDBRANCH  11  13
ENDBRANCH  10  11
ENDBRANCH   9  10
ENDBRANCH   8   9
ENDBRANCH   1   8
BRANCH   3  14
ATOM     14  O   UNL     1       6.562   3.863  15.118  0.00  0.00    +0.000 OA
BRANCH  14  15
ATOM     15  C   UNL     1       5.699   3.910  13.986  0.00  0.00    +0.000 C 
ATOM     16  C   UNL     1       6.504   3.819  12.718  0.00  0.00    +0.000 C 
ENDBRANCH  14  15
ENDBRANCH   3  14
BRANCH   5  17
ATOM     17  C   UNL     1       3.541   5.559  18.219  0.00  0.00    +0.000 C 
BRANCH  17  18
ATOM     18  N   UNL     1       2.925   4.396  18.909  0.00  0.00    +0.000 NA
ATOM     19  C   UNL     1       1.865   4.832  19.839  0.00  0.00    +0.000 C 
ATOM     20  C   UNL     1       1.001   3.694  20.386  0.00  0.00    +0.000 C 
ATOM     21  C   UNL     1       0.457   2.825  19.266  0.00  0.00    +0.000 C 
ATOM     22  C   UNL     1       1.615   2.286  18.444  0.00  0.00    +0.000 C 
ATOM     23  C   UNL     1       2.474   3.424  17.893  0.00  0.00    +0.000 C 
ENDBRANCH  17  18
ENDBRANCH   5  17
TORSDOF 9
ENDMDL
MODEL 7
REMARK VINA RESULT:      -7.4      1.893      5.763
REMARK  Name = 
REMARK  11 active torsions:
REMARK  status: ('A' for Active; 'I' for Inactive)
REMARK    1  A    between atoms: C_1  and  C_2
REMARK    2  A    between atoms: C_2  and  C_3
REMARK    3  A    between atoms: C_3  and  C_4
REMARK    4  A    between atoms: C_4  and  C_5
REMARK    5  A    between atoms: C_5  and  C_6
REMARK    6  A    between atoms: C_6  and  C_7
REMARK    7  A    between atoms: C_9  and  O_10
REMARK    8  A    between atoms: O_10  and  C_11
REMARK    9  A    between atoms: C_11  and  C_12
REMARK   10  A    between atoms: C_14  and  C_15
REMARK   11  A    between atoms: C_15  and  N_16
REMARK                            x       y       z     vdW  Elec       q    Type
REMARK                         _______ _______ _______ _____ _____    ______ ____
ROOT
ATOM      1  C   UNL     1       6.991   5.156  15.343  0.00  0.00    +0.000 C 
ATOM      2  O   UNL     1       7.905   4.533  16.225  0.00  0.00    +0.000 OA
ATOM      3  C   UNL     1       7.537   4.346  17.579  0.00  0.00    +0.000 C 
ATOM      4  C   UNL     1       6.092   4.578  17.903  0.00  0.00    +0.000 C 
ATOM      5  C   UNL     1       5.180   5.221  17.170  0.00  0.00    +0.000 C 
ATOM      6  C   UNL     1       5.647   5.695  15.875  0.00  0.00    +0.000 C 
ATOM      7  O   UNL     1       4.942   6.463  15.207  0.00  0.00    +0.000 OA
ENDROOT
BRANCH   1   8
ATOM      8  C   UNL     1       6.749   4.136  14.214  0.00  0.00    +0.000 C 
BRANCH   8   9
ATOM      9  C   UNL     1       7.044   4.663  12.811  0.00  0.00    +0.000 C 
BRANCH   9  10
ATOM     10  C   UNL     1       6.890   3.575  11.759  0.00  0.00    +0.000 C 
BRANCH  10  11
ATOM     11  C   UNL     1       5.583   2.814  11.971  0.00  0.00    +0.000 C 
BRANCH  11  13
ATOM     12  C   UNL     1       3.510   3.138  10.598  0.00  0.00    +0.000 C 
ATOM     13  C   UNL     1       4.391   3.715  11.694  0.00  0.00    +0.000 C 
ENDBRANCH  11  13
ENDBRANCH  10  11
ENDBRANCH   9  10
ENDBRANCH   8   9
ENDBRANCH   1   8
BRANCH   3  14
ATOM     14  O   UNL     1       8.335   5.191  18.414  0.00  0.00    +0.000 OA
BRANCH  14  15
ATOM     15  C   UNL     1       7.637   6.344  18.874  0.00  0.00    +0.000 C 
ATOM     16  C   UNL     1       8.065   7.554  18.089  0.00  0.00    +0.000 C 
ENDBRANCH  14  15
ENDBRANCH   3  14
BRANCH   5  17
ATOM     17  C   UNL     1       3.771   5.544  17.603  0.00  0.00    +0.000 C 
BRANCH  17  18
ATOM     18  N   UNL     1       3.165   4.647  18.622  0.00  0.00    +0.000 NA
ATOM     19  C   UNL     1       2.995   5.347  19.910  0.00  0.00    +0.000 C 
ATOM     20  C   UNL     1       2.138   4.590  20.928  0.00  0.00    +0.000 C 
ATOM     21  C   UNL     1       0.810   4.167  20.328  0.00  0.00    +0.000 C 
ATOM     22  C   UNL     1       1.067   3.320  19.093  0.00  0.00    +0.000 C 
ATOM     23  C   UNL     1       1.917   4.079  18.074  0.00  0.00    +0.000 C 
ENDBRANCH  17  18
ENDBRANCH   5  17
TORSDOF 9
ENDMDL
MODEL 8
REMARK VINA RESULT:      -7.4      1.293      1.500
REMARK  Name = 
REMARK  11 active torsions:
REMARK  status: ('A' for Active; 'I' for Inactive)
REMARK    1  A    between atoms: C_1  and  C_2
REMARK    2  A    between atoms: C_2  and  C_3
REMARK    3  A    between atoms: C_3  and  C_4
REMARK    4  A    between atoms: C_4  and  C_5
REMARK    5  A    between atoms: C_5  and  C_6
REMARK    6  A    between atoms: C_6  and  C_7
REMARK    7  A    between atoms: C_9  and  O_10
REMARK    8  A    between atoms: O_10  and  C_11
REMARK    9  A    between atoms: C_11  and  C_12
REMARK   10  A    between atoms: C_14  and  C_15
REMARK   11  A    between atoms: C_15  and  N_16
REMARK                            x       y       z     vdW  Elec       q    Type
REMARK                         _______ _______ _______ _____ _____    ______ ____
ROOT
ATOM      1  C   UNL     1       7.210   5.560  18.056  0.00  0.00    +0.000 C 
ATOM      2  O   UNL     1       7.557   5.463  16.688  0.00  0.00    +0.000 OA
ATOM      3  C   UNL     1       6.527   5.414  15.718  0.00  0.00    +0.000 C 
ATOM      4  C   UNL     1       5.150   5.747  16.207  0.00  0.00    +0.000 C 
ATOM      5  C   UNL     1       4.714   5.784  17.468  0.00  0.00    +0.000 C 
ATOM      6  C   UNL     1       5.727   5.527  18.483  0.00  0.00    +0.000 C 
ATOM      7  O   UNL     1       5.390   5.351  19.661  0.00  0.00    +0.000 OA
ENDROOT
BRANCH   1   8
ATOM      8  C   UNL     1       7.884   6.848  18.563  0.00  0.00    +0.000 C 
BRANCH   8   9
ATOM      9  C   UNL     1       8.149   7.892  17.480  0.00  0.00    +0.000 C 
BRANCH   9  10
ATOM     10  C   UNL     1       7.862   9.302  17.976  0.00  0.00    +0.000 C 
BRANCH  10  11
ATOM     11  C   UNL     1       9.036   9.821  18.803  0.00  0.00    +0.000 C 
BRANCH  11  13
ATOM     12  C   UNL     1       9.044  12.266  18.246  0.00  0.00    +0.000 C 
ATOM     13  C   UNL     1       9.756  10.936  18.063  0.00  0.00    +0.000 C 
ENDBRANCH  11  13
ENDBRANCH  10  11
ENDBRANCH   9  10
ENDBRANCH   8   9
ENDBRANCH   1   8
BRANCH   3  14
ATOM     14  O   UNL     1       6.498   4.116  15.115  0.00  0.00    +0.000 OA
BRANCH  14  15
ATOM     15  C   UNL     1       5.548   4.012  14.059  0.00  0.00    +0.000 C 
ATOM     16  C   UNL     1       6.225   3.536  12.801  0.00  0.00    +0.000 C 
ENDBRANCH  14  15
ENDBRANCH   3  14
BRANCH   5  17
ATOM     17  C   UNL     1       3.282   5.993  17.899  0.00  0.00    +0.000 C 
BRANCH  17  18
ATOM     18  N   UNL     1       2.415   4.787  17.939  0.00  0.00    +0.000 NA
ATOM     19  C   UNL     1       3.141   3.597  17.451  0.00  0.00    +0.000 C 
ATOM     20  C   UNL     1       2.419   2.272  17.708  0.00  0.00    +0.000 C 
ATOM     21  C   UNL     1       2.013   2.137  19.164  0.00  0.00    +0.000 C 
ATOM     22  C   UNL     1       1.139   3.319  19.551  0.00  0.00    +0.000 C 
ATOM     23  C   UNL     1       1.863   4.642  19.300  0.00  0.00    +0.000 C 
ENDBRANCH  17  18
ENDBRANCH   5  17
TORSDOF 9
ENDMDL
MODEL 9
REMARK VINA RESULT:      -7.3      1.419      5.889
REMARK  Name = 
REMARK  11 active torsions:
REMARK  status: ('A' for Active; 'I' for Inactive)
REMARK    1  A    between atoms: C_1  and  C_2
REMARK    2  A    between atoms: C_2  and  C_3
REMARK    3  A    between atoms: C_3  and  C_4
REMARK    4  A    between atoms: C_4  and  C_5
REMARK    5  A    between atoms: C_5  and  C_6
REMARK    6  A    between atoms: C_6  and  C_7
REMARK    7  A    between atoms: C_9  and  O_10
REMARK    8  A    between atoms: O_10  and  C_11
REMARK    9  A    between atoms: C_11  and  C_12
REMARK   10  A    between atoms: C_14  and  C_15
REMARK   11  A    between atoms: C_15  and  N_16
REMARK                            x       y       z     vdW  Elec       q    Type
REMARK                         _______ _______ _______ _____ _____    ______ ____
ROOT
ATOM      1  C   UNL     1       5.877   5.087  15.544  0.00  0.00    +0.000 C 
ATOM      2  O   UNL     1       7.017   5.876  15.828  0.00  0.00    +0.000 OA
ATOM      3  C   UNL     1       7.389   6.089  17.177  0.00  0.00    +0.000 C 
ATOM      4  C   UNL     1       6.698   5.228  18.190  0.00  0.00    +0.000 C 
ATOM      5  C   UNL     1       5.580   4.515  18.036  0.00  0.00    +0.000 C 
ATOM      6  C   UNL     1       5.009   4.539  16.697  0.00  0.00    +0.000 C 
ATOM      7  O   UNL     1       3.880   4.072  16.498  0.00  0.00    +0.000 OA
ENDROOT
BRANCH   1   8
ATOM      8  C   UNL     1       6.384   3.933  14.660  0.00  0.00    +0.000 C 
BRANCH   8   9
ATOM      9  C   UNL     1       6.169   4.139  13.163  0.00  0.00    +0.000 C 
BRANCH   9  10
ATOM     10  C   UNL     1       4.739   3.822  12.751  0.00  0.00    +0.000 C 
BRANCH  10  11
ATOM     11  C   UNL     1       4.720   3.161  11.374  0.00  0.00    +0.000 C 
BRANCH  11  13
ATOM     12  C   UNL     1       3.090   4.212   9.785  0.00  0.00    +0.000 C 
ATOM     13  C   UNL     1       3.305   3.122  10.822  0.00  0.00    +0.000 C 
ENDBRANCH  11  13
ENDBRANCH  10  11
ENDBRANCH   9  10
ENDBRANCH   8   9
ENDBRANCH   1   8
BRANCH   3  14
ATOM     14  O   UNL     1       7.178   7.462  17.521  0.00  0.00    +0.000 OA
BRANCH  14  15
ATOM     15  C   UNL     1       8.258   8.025  18.259  0.00  0.00    +0.000 C 
ATOM     16  C   UNL     1       8.334   9.508  18.014  0.00  0.00    +0.000 C 
ENDBRANCH  14  15
ENDBRANCH   3  14
BRANCH   5  17
ATOM     17  C   UNL     1       4.852   3.771  19.129  0.00  0.00    +0.000 C 
BRANCH  17  18
ATOM     18  N   UNL     1       3.370   3.883  19.138  0.00  0.00    +0.000 NA
ATOM     19  C   UNL     1       2.740   2.556  19.277  0.00  0.00    +0.000 C 
ATOM     20  C   UNL     1       1.237   2.601  19.565  0.00  0.00    +0.000 C 
ATOM     21  C   UNL     1       0.926   3.508  20.742  0.00  0.00    +0.000 C 
ATOM     22  C   UNL     1       1.471   4.898  20.459  0.00  0.00    +0.000 C 
ATOM     23  C   UNL     1       2.973   4.853  20.178  0.00  0.00    +0.000 C 
ENDBRANCH  17  18
ENDBRANCH   5  17
TORSDOF 9
ENDMDL
