MODEL 1
REMARK VINA RESULT:      -8.1      0.000      0.000
REMARK  Name = 
REMARK  10 active torsions:
REMARK  status: ('A' for Active; 'I' for Inactive)
REMARK    1  A    between atoms: P_2  and  O_3
REMARK    2  A    between atoms: P_2  and  O_4
REMARK    3  A    between atoms: P_2  and  C_5
REMARK    4  A    between atoms: C_5  and  O_6
REMARK    5  A    between atoms: C_5  and  C_7
REMARK    6  A    between atoms: C_5  and  P_21
REMARK    7  A    between atoms: C_7  and  C_8
REMARK    8  A    between atoms: C_11  and  C_12
REMARK    9  A    between atoms: P_21  and  O_23
REMARK   10  A    between atoms: P_21  and  O_24
REMARK                            x       y       z     vdW  Elec       q    Type
REMARK                         _______ _______ _______ _____ _____    ______ ____
ROOT
ATOM      1  C   UNL     1       5.420   4.969  17.212  0.00  0.00    +0.000 C 
ENDROOT
BRANCH   1   3
ATOM      2  O   UNL     1       7.084   5.132  20.148  0.00  0.00    +0.000 OA
ATOM      3  P   UNL     1       6.322   5.058  18.802  0.00  0.00    +0.000 P 
BRANCH   3   4
ATOM      4  O   UNL     1       7.658   4.375  18.097  0.00  0.00    +0.000 OA
ATOM      5  H   UNL     1       8.169   3.959  18.825  0.00  0.00    +0.000 HD
ENDBRANCH   3   4
BRANCH   3   6
ATOM      6  O   UNL     1       5.726   3.590  19.254  0.00  0.00    +0.000 OA
ATOM      7  H   UNL     1       6.380   3.204  19.874  0.00  0.00    +0.000 HD
ENDBRANCH   3   6
ENDBRANCH   1   3
BRANCH   1   8
ATOM      8  O   UNL     1       5.715   3.624  16.620  0.00  0.00    +0.000 OA
ATOM      9  H   UNL     1       5.045   3.529  15.904  0.00  0.00    +0.000 HD
ENDBRANCH   1   8
BRANCH   1  10
ATOM     10  P   UNL     1       6.137   6.076  15.966  0.00  0.00    +0.000 P 
ATOM     11  O   UNL     1       5.191   6.749  15.023  0.00  0.00    +0.000 OA
BRANCH  10  12
ATOM     12  O   UNL     1       6.986   7.181  16.765  0.00  0.00    +0.000 OA
ATOM     13  H   UNL     1       6.409   7.900  17.090  0.00  0.00    +0.000 HD
ENDBRANCH  10  12
BRANCH  10  14
ATOM     14  O   UNL     1       7.301   5.344  15.134  0.00  0.00    +0.000 OA
ATOM     15  H   UNL     1       7.457   5.776  14.270  0.00  0.00    +0.000 HD
ENDBRANCH  10  14
ENDBRANCH   1  10
BRANCH   1  16
ATOM     16  C   UNL     1       3.889   4.898  17.291  0.00  0.00    +0.000 C 
BRANCH  16  17
ATOM     17  C   UNL     1       3.209   5.901  18.170  0.00  0.00    +0.000 A 
ATOM     18  C   UNL     1       2.730   5.520  19.417  0.00  0.00    +0.000 A 
ATOM     19  C   UNL     1       2.058   6.443  20.218  0.00  0.00    +0.000 A 
ATOM     20  C   UNL     1       1.844   7.768  19.795  0.00  0.00    +0.000 A 
ATOM     21  C   UNL     1       2.386   8.154  18.559  0.00  0.00    +0.000 A 
ATOM     22  C   UNL     1       3.080   7.238  17.776  0.00  0.00    +0.000 A 
BRANCH  20  23
ATOM     23  C   UNL     1       1.098   8.737  20.621  0.00  0.00    +0.000 A 
ATOM     24  C   UNL     1       1.068   8.616  22.024  0.00  0.00    +0.000 A 
ATOM     25  C   UNL     1       0.366   9.533  22.810  0.00  0.00    +0.000 A 
ATOM     26  C   UNL     1      -0.311  10.582  22.201  0.00  0.00    +0.000 A 
ATOM     27  F   UNL     1      -0.974  11.468  22.954  0.00  0.00    +0.000 F 
ATOM     28  C   UNL     1      -0.300  10.730  20.823  0.00  0.00    +0.000 A 
ATOM     29  C   UNL     1       0.393   9.804  20.038  0.00  0.00    +0.000 A 
ENDBRANCH  20  23
ENDBRANCH  16  17
ENDBRANCH   1  16
TORSDOF 10
ENDMDL
MODEL 2
REMARK VINA RESULT:      -8.0      0.622      1.637
REMARK  Name = 
REMARK  10 active torsions:
REMARK  status: ('A' for Active; 'I' for Inactive)
REMARK    1  A    between atoms: P_2  and  O_3
REMARK    2  A    between atoms: P_2  and  O_4
REMARK    3  A    between atoms: P_2  and  C_5
REMARK    4  A    between atoms: C_5  and  O_6
REMARK    5  A    between atoms: C_5  and  C_7
REMARK    6  A    between atoms: C_5  and  P_21
REMARK    7  A    between atoms: C_7  and  C_8
REMARK    8  A    between atoms: C_11  and  C_12
REMARK    9  A    between atoms: P_21  and  O_23
REMARK   10  A    between atoms: P_21  and  O_24
REMARK                            x       y       z     vdW  Elec       q    Type
REMARK                         _______ _______ _______ _____ _____    ______ ____
ROOT
ATOM      1  C   UNL     1       5.200   4.640  17.103  0.00  0.00    +0.000 C 
ENDROOT
BRANCH   1   3
ATOM      2  O   UNL     1       6.950   5.444  19.879  0.00  0.00    +0.000 OA
ATOM      3  P   UNL     1       6.148   5.076  18.607  0.00  0.00    +0.000 P 
BRANCH   3   4
ATOM      4  O   UNL     1       6.635   6.496  17.903  0.00  0.00    +0.000 OA
ATOM      5  H   UNL     1       6.408   7.208  18.541  0.00  0.00    +0.000 HD
ENDBRANCH   3   4
BRANCH   3   6
ATOM      6  O   UNL     1       7.467   4.266  18.044  0.00  0.00    +0.000 OA
ATOM      7  H   UNL     1       7.320   3.319  18.251  0.00  0.00    +0.000 HD
ENDBRANCH   3   6
ENDBRANCH   1   3
BRANCH   1   8
ATOM      8  O   UNL     1       5.433   3.181  16.850  0.00  0.00    +0.000 OA
ATOM      9  H   UNL     1       4.646   2.743  17.252  0.00  0.00    +0.000 HD
ENDBRANCH   1   8
BRANCH   1  10
ATOM     10  P   UNL     1       5.920   5.383  15.612  0.00  0.00    +0.000 P 
ATOM     11  O   UNL     1       7.413   5.450  15.533  0.00  0.00    +0.000 OA
BRANCH  10  12
ATOM     12  O   UNL     1       5.346   4.555  14.362  0.00  0.00    +0.000 OA
ATOM     13  H   UNL     1       4.369   4.536  14.371  0.00  0.00    +0.000 HD
ENDBRANCH  10  12
BRANCH  10  14
ATOM     14  O   UNL     1       5.298   6.836  15.324  0.00  0.00    +0.000 OA
ATOM     15  H   UNL     1       5.994   7.505  15.163  0.00  0.00    +0.000 HD
ENDBRANCH  10  14
ENDBRANCH   1  10
BRANCH   1  16
ATOM     16  C   UNL     1       3.670   4.652  17.225  0.00  0.00    +0.000 C 
BRANCH  16  17
ATOM     17  C   UNL     1       3.069   5.702  18.105  0.00  0.00    +0.000 A 
ATOM     18  C   UNL     1       2.586   5.363  19.362  0.00  0.00    +0.000 A 
ATOM     19  C   UNL     1       1.987   6.333  20.166  0.00  0.00    +0.000 A 
ATOM     20  C   UNL     1       1.851   7.665  19.734  0.00  0.00    +0.000 A 
ATOM     21  C   UNL     1       2.396   8.006  18.487  0.00  0.00    +0.000 A 
ATOM     22  C   UNL     1       3.019   7.042  17.701  0.00  0.00    +0.000 A 
BRANCH  20  23
ATOM     23  C   UNL     1       1.180   8.685  20.563  0.00  0.00    +0.000 A 
ATOM     24  C   UNL     1       0.591   9.821  19.972  0.00  0.00    +0.000 A 
ATOM     25  C   UNL     1      -0.048  10.787  20.753  0.00  0.00    +0.000 A 
ATOM     26  C   UNL     1      -0.110  10.626  22.131  0.00  0.00    +0.000 A 
ATOM     27  F   UNL     1      -0.732  11.545  22.878  0.00  0.00    +0.000 F 
ATOM     28  C   UNL     1       0.458   9.519  22.742  0.00  0.00    +0.000 A 
ATOM     29  C   UNL     1       1.109   8.561  21.961  0.00  0.00    +0.000 A 
ENDBRANCH  20  23
ENDBRANCH  16  17
ENDBRANCH   1  16
TORSDOF 10
ENDMDL
MODEL 3
REMARK VINA RESULT:      -7.8      0.213      1.634
REMARK  Name = 
REMARK  10 active torsions:
REMARK  status: ('A' for Active; 'I' for Inactive)
REMARK    1  A    between atoms: P_2  and  O_3
REMARK    2  A    between atoms: P_2  and  O_4
REMARK    3  A    between atoms: P_2  and  C_5
REMARK    4  A    between atoms: C_5  and  O_6
REMARK    5  A    between atoms: C_5  and  C_7
REMARK    6  A    between atoms: C_5  and  P_21
REMARK    7  A    between atoms: C_7  and  C_8
REMARK    8  A    between atoms: C_11  and  C_12
REMARK    9  A    between atoms: P_21  and  O_23
REMARK   10  A    between atoms: P_21  and  O_24
REMARK                            x       y       z     vdW  Elec       q    Type
REMARK                         _______ _______ _______ _____ _____    ______ ____
ROOT
ATOM      1  C   UNL     1       5.542   5.037  17.264  0.00  0.00    +0.000 C 
ENDROOT
BRANCH   1   3
ATOM      2  O   UNL     1       7.099   5.079  20.263  0.00  0.00    +0.000 OA
ATOM      3  P   UNL     1       6.385   5.060  18.888  0.00  0.00    +0.000 P 
BRANCH   3   4
ATOM      4  O   UNL     1       7.721   4.341  18.218  0.00  0.00    +0.000 OA
ATOM      5  H   UNL     1       7.871   4.791  17.359  0.00  0.00    +0.000 HD
ENDBRANCH   3   4
BRANCH   3   6
ATOM      6  O   UNL     1       5.718   3.607  19.286  0.00  0.00    +0.000 OA
ATOM      7  H   UNL     1       6.213   2.928  18.780  0.00  0.00    +0.000 HD
ENDBRANCH   3   6
ENDBRANCH   1   3
BRANCH   1   8
ATOM      8  O   UNL     1       5.922   3.751  16.595  0.00  0.00    +0.000 OA
ATOM      9  H   UNL     1       5.199   3.130  16.849  0.00  0.00    +0.000 HD
ENDBRANCH   1   8
BRANCH   1  10
ATOM     10  P   UNL     1       6.244   6.258  16.121  0.00  0.00    +0.000 P 
ATOM     11  O   UNL     1       6.824   7.502  16.718  0.00  0.00    +0.000 OA
BRANCH  10  12
ATOM     12  O   UNL     1       7.366   5.494  15.262  0.00  0.00    +0.000 OA
ATOM     13  H   UNL     1       8.252   5.616  15.653  0.00  0.00    +0.000 HD
ENDBRANCH  10  12
BRANCH  10  14
ATOM     14  O   UNL     1       5.196   6.651  14.967  0.00  0.00    +0.000 OA
ATOM     15  H   UNL     1       5.312   6.100  14.167  0.00  0.00    +0.000 HD
ENDBRANCH  10  14
ENDBRANCH   1  10
BRANCH   1  16
ATOM     16  C   UNL     1       4.014   4.891  17.283  0.00  0.00    +0.000 C 
BRANCH  16  17
ATOM     17  C   UNL     1       3.249   5.875  18.111  0.00  0.00    +0.000 A 
ATOM     18  C   UNL     1       3.053   7.170  17.647  0.00  0.00    +0.000 A 
ATOM     19  C   UNL     1       2.377   8.100  18.437  0.00  0.00    +0.000 A 
ATOM     20  C   UNL     1       1.883   7.763  19.711  0.00  0.00    +0.000 A 
ATOM     21  C   UNL     1       2.037   6.436  20.141  0.00  0.00    +0.000 A 
ATOM     22  C   UNL     1       2.686   5.504  19.338  0.00  0.00    +0.000 A 
BRANCH  20  23
ATOM     23  C   UNL     1       1.206   8.754  20.568  0.00  0.00    +0.000 A 
ATOM     24  C   UNL     1       0.787   9.994  20.045  0.00  0.00    +0.000 A 
ATOM     25  C   UNL     1       0.141  10.934  20.853  0.00  0.00    +0.000 A 
ATOM     26  C   UNL     1      -0.096  10.643  22.190  0.00  0.00    +0.000 A 
ATOM     27  F   UNL     1      -0.725  11.537  22.961  0.00  0.00    +0.000 F 
ATOM     28  C   UNL     1       0.302   9.431  22.734  0.00  0.00    +0.000 A 
ATOM     29  C   UNL     1       0.959   8.498  21.929  0.00  0.00    +0.000 A 
ENDBRANCH  20  23
ENDBRANCH  16  17
ENDBRANCH   1  16
TORSDOF 10
ENDMDL
MODEL 4
REMARK VINA RESULT:      -7.7      0.720      2.598
REMARK  Name = 
REMARK  10 active torsions:
REMARK  status: ('A' for Active; 'I' for Inactive)
REMARK    1  A    between atoms: P_2  and  O_3
REMARK    2  A    between atoms: P_2  and  O_4
REMARK    3  A    between atoms: P_2  and  C_5
REMARK    4  A    between atoms: C_5  and  O_6
REMARK    5  A    between atoms: C_5  and  C_7
REMARK    6  A    between atoms: C_5  and  P_21
REMARK    7  A    between atoms: C_7  and  C_8
REMARK    8  A    between atoms: C_11  and  C_12
REMARK    9  A    between atoms: P_21  and  O_23
REMARK   10  A    between atoms: P_21  and  O_24
REMARK                            x       y       z     vdW  Elec       q    Type
REMARK                         _______ _______ _______ _____ _____    ______ ____
ROOT
ATOM      1  C   UNL     1       5.405   5.542  17.260  0.00  0.00    +0.000 C 
ENDROOT
BRANCH   1   3
ATOM      2  O   UNL     1       6.850   5.255  14.220  0.00  0.00    +0.000 OA
ATOM      3  P   UNL     1       6.188   5.386  15.613  0.00  0.00    +0.000 P 
BRANCH   3   4
ATOM      4  O   UNL     1       7.486   6.278  16.133  0.00  0.00    +0.000 OA
ATOM      5  H   UNL     1       8.113   5.639  16.536  0.00  0.00    +0.000 HD
ENDBRANCH   3   4
BRANCH   3   6
ATOM      6  O   UNL     1       5.394   6.727  15.079  0.00  0.00    +0.000 OA
ATOM      7  H   UNL     1       6.063   7.442  15.024  0.00  0.00    +0.000 HD
ENDBRANCH   3   6
ENDBRANCH   1   3
BRANCH   1   8
ATOM      8  O   UNL     1       5.560   6.971  17.682  0.00  0.00    +0.000 OA
ATOM      9  H   UNL     1       6.521   7.056  17.883  0.00  0.00    +0.000 HD
ENDBRANCH   1   8
BRANCH   1  10
ATOM     10  P   UNL     1       6.358   4.683  18.545  0.00  0.00    +0.000 P 
ATOM     11  O   UNL     1       6.697   5.459  19.778  0.00  0.00    +0.000 OA
BRANCH  10  12
ATOM     12  O   UNL     1       5.520   3.371  18.940  0.00  0.00    +0.000 OA
ATOM     13  H   UNL     1       5.069   3.488  19.798  0.00  0.00    +0.000 HD
ENDBRANCH  10  12
BRANCH  10  14
ATOM     14  O   UNL     1       7.691   4.020  17.940  0.00  0.00    +0.000 OA
ATOM     15  H   UNL     1       7.491   3.232  17.395  0.00  0.00    +0.000 HD
ENDBRANCH  10  14
ENDBRANCH   1  10
BRANCH   1  16
ATOM     16  C   UNL     1       3.877   5.408  17.313  0.00  0.00    +0.000 C 
BRANCH  16  17
ATOM     17  C   UNL     1       3.146   6.349  18.219  0.00  0.00    +0.000 A 
ATOM     18  C   UNL     1       2.875   5.982  19.530  0.00  0.00    +0.000 A 
ATOM     19  C   UNL     1       2.156   6.841  20.362  0.00  0.00    +0.000 A 
ATOM     20  C   UNL     1       1.687   8.086  19.905  0.00  0.00    +0.000 A 
ATOM     21  C   UNL     1       2.020   8.469  18.597  0.00  0.00    +0.000 A 
ATOM     22  C   UNL     1       2.762   7.622  17.780  0.00  0.00    +0.000 A 
BRANCH  20  23
ATOM     23  C   UNL     1       0.890   8.980  20.767  0.00  0.00    +0.000 A 
ATOM     24  C   UNL     1       0.822   8.767  22.159  0.00  0.00    +0.000 A 
ATOM     25  C   UNL     1       0.071   9.613  22.979  0.00  0.00    +0.000 A 
ATOM     26  C   UNL     1      -0.615  10.683  22.418  0.00  0.00    +0.000 A 
ATOM     27  F   UNL     1      -1.324  11.500  23.204  0.00  0.00    +0.000 F 
ATOM     28  C   UNL     1      -0.567  10.920  21.053  0.00  0.00    +0.000 A 
ATOM     29  C   UNL     1       0.174  10.065  20.232  0.00  0.00    +0.000 A 
ENDBRANCH  20  23
ENDBRANCH  16  17
ENDBRANCH   1  16
TORSDOF 10
ENDMDL
MODEL 5
REMARK VINA RESULT:      -7.7      0.681      1.653
REMARK  Name = 
REMARK  10 active torsions:
REMARK  status: ('A' for Active; 'I' for Inactive)
REMARK    1  A    between atoms: P_2  and  O_3
REMARK    2  A    between atoms: P_2  and  O_4
REMARK    3  A    between atoms: P_2  and  C_5
REMARK    4  A    between atoms: C_5  and  O_6
REMARK    5  A    between atoms: C_5  and  C_7
REMARK    6  A    between atoms: C_5  and  P_21
REMARK    7  A    between atoms: C_7  and  C_8
REMARK    8  A    between atoms: C_11  and  C_12
REMARK    9  A    between atoms: P_21  and  O_23
REMARK   10  A    between atoms: P_21  and  O_24
REMARK                            x       y       z     vdW  Elec       q    Type
REMARK                         _______ _______ _______ _____ _____    ______ ____
ROOT
ATOM      1  C   UNL     1       5.306   4.592  17.106  0.00  0.00    +0.000 C 
ENDROOT
BRANCH   1   3
ATOM      2  O   UNL     1       6.979   5.482  19.904  0.00  0.00    +0.000 OA
ATOM      3  P   UNL     1       6.212   5.074  18.622  0.00  0.00    +0.000 P 
BRANCH   3   4
ATOM      4  O   UNL     1       6.667   6.501  17.910  0.00  0.00    +0.000 OA
ATOM      5  H   UNL     1       7.478   6.302  17.393  0.00  0.00    +0.000 HD
ENDBRANCH   3   4
BRANCH   3   6
ATOM      6  O   UNL     1       7.566   4.299  18.092  0.00  0.00    +0.000 OA
ATOM      7  H   UNL     1       8.325   4.737  18.532  0.00  0.00    +0.000 HD
ENDBRANCH   3   6
ENDBRANCH   1   3
BRANCH   1   8
ATOM      8  O   UNL     1       5.644   3.157  16.836  0.00  0.00    +0.000 OA
ATOM      9  H   UNL     1       6.281   2.926  17.552  0.00  0.00    +0.000 HD
ENDBRANCH   1   8
BRANCH   1  10
ATOM     10  P   UNL     1       5.978   5.405  15.630  0.00  0.00    +0.000 P 
ATOM     11  O   UNL     1       7.467   5.512  15.526  0.00  0.00    +0.000 OA
BRANCH  10  12
ATOM     12  O   UNL     1       5.401   4.607  14.361  0.00  0.00    +0.000 OA
ATOM     13  H   UNL     1       5.328   3.651  14.550  0.00  0.00    +0.000 HD
ENDBRANCH  10  12
BRANCH  10  14
ATOM     14  O   UNL     1       5.315   6.851  15.405  0.00  0.00    +0.000 OA
ATOM     15  H   UNL     1       5.161   7.038  14.457  0.00  0.00    +0.000 HD
ENDBRANCH  10  14
ENDBRANCH   1  10
BRANCH   1  16
ATOM     16  C   UNL     1       3.778   4.493  17.218  0.00  0.00    +0.000 C 
BRANCH  16  17
ATOM     17  C   UNL     1       3.089   5.544  18.030  0.00  0.00    +0.000 A 
ATOM     18  C   UNL     1       3.008   6.847  17.556  0.00  0.00    +0.000 A 
ATOM     19  C   UNL     1       2.403   7.836  18.331  0.00  0.00    +0.000 A 
ATOM     20  C   UNL     1       1.866   7.551  19.600  0.00  0.00    +0.000 A 
ATOM     21  C   UNL     1       1.902   6.219  20.040  0.00  0.00    +0.000 A 
ATOM     22  C   UNL     1       2.480   5.230  19.251  0.00  0.00    +0.000 A 
BRANCH  20  23
ATOM     23  C   UNL     1       1.264   8.602  20.443  0.00  0.00    +0.000 A 
ATOM     24  C   UNL     1       1.137   8.427  21.835  0.00  0.00    +0.000 A 
ATOM     25  C   UNL     1       0.570   9.421  22.636  0.00  0.00    +0.000 A 
ATOM     26  C   UNL     1       0.128  10.603  22.055  0.00  0.00    +0.000 A 
ATOM     27  F   UNL     1      -0.404  11.560  22.823  0.00  0.00    +0.000 F 
ATOM     28  C   UNL     1       0.240  10.807  20.688  0.00  0.00    +0.000 A 
ATOM     29  C   UNL     1       0.795   9.806  19.887  0.00  0.00    +0.000 A 
ENDBRANCH  20  23
ENDBRANCH  16  17
ENDBRANCH   1  16
TORSDOF 10
ENDMDL
MODEL 6
REMARK VINA RESULT:      -7.6      0.732      2.925
REMARK  Name = 
REMARK  10 active torsions:
REMARK  status: ('A' for Active; 'I' for Inactive)
REMARK    1  A    between atoms: P_2  and  O_3
REMARK    2  A    between atoms: P_2  and  O_4
REMARK    3  A    between atoms: P_2  and  C_5
REMARK    4  A    between atoms: C_5  and  O_6
REMARK    5  A    between atoms: C_5  and  C_7
REMARK    6  A    between atoms: C_5  and  P_21
REMARK    7  A    between atoms: C_7  and  C_8
REMARK    8  A    between atoms: C_11  and  C_12
REMARK    9  A    between atoms: P_21  and  O_23
REMARK   10  A    between atoms: P_21  and  O_24
REMARK                            x       y       z     vdW  Elec       q    Type
REMARK                         _______ _______ _______ _____ _____    ______ ____
ROOT
ATOM      1  C   UNL     1       5.399   5.520  17.301  0.00  0.00    +0.000 C 
ENDROOT
BRANCH   1   3
ATOM      2  O   UNL     1       6.873   5.346  14.266  0.00  0.00    +0.000 OA
ATOM      3  P   UNL     1       6.198   5.426  15.657  0.00  0.00    +0.000 P 
BRANCH   3   4
ATOM      4  O   UNL     1       7.467   6.340  16.207  0.00  0.00    +0.000 OA
ATOM      5  H   UNL     1       7.390   6.353  17.186  0.00  0.00    +0.000 HD
ENDBRANCH   3   4
BRANCH   3   6
ATOM      6  O   UNL     1       5.370   6.757  15.148  0.00  0.00    +0.000 OA
ATOM      7  H   UNL     1       5.042   6.551  14.248  0.00  0.00    +0.000 HD
ENDBRANCH   3   6
ENDBRANCH   1   3
BRANCH   1   8
ATOM      8  O   UNL     1       5.483   6.949  17.743  0.00  0.00    +0.000 OA
ATOM      9  H   UNL     1       4.846   7.417  17.154  0.00  0.00    +0.000 HD
ENDBRANCH   1   8
BRANCH   1  10
ATOM     10  P   UNL     1       6.384   4.690  18.579  0.00  0.00    +0.000 P 
ATOM     11  O   UNL     1       6.739   5.486  19.795  0.00  0.00    +0.000 OA
BRANCH  10  12
ATOM     12  O   UNL     1       5.568   3.375  19.009  0.00  0.00    +0.000 OA
ATOM     13  H   UNL     1       4.735   3.611  19.461  0.00  0.00    +0.000 HD
ENDBRANCH  10  12
BRANCH  10  14
ATOM     14  O   UNL     1       7.713   4.031  17.958  0.00  0.00    +0.000 OA
ATOM     15  H   UNL     1       8.207   3.513  18.624  0.00  0.00    +0.000 HD
ENDBRANCH  10  14
ENDBRANCH   1  10
BRANCH   1  16
ATOM     16  C   UNL     1       3.879   5.313  17.342  0.00  0.00    +0.000 C 
BRANCH  16  17
ATOM     17  C   UNL     1       3.093   6.239  18.216  0.00  0.00    +0.000 A 
ATOM     18  C   UNL     1       2.674   7.470  17.725  0.00  0.00    +0.000 A 
ATOM     19  C   UNL     1       1.978   8.351  18.553  0.00  0.00    +0.000 A 
ATOM     20  C   UNL     1       1.686   8.030  19.891  0.00  0.00    +0.000 A 
ATOM     21  C   UNL     1       2.063   6.761  20.355  0.00  0.00    +0.000 A 
ATOM     22  C   UNL     1       2.731   5.873  19.518  0.00  0.00    +0.000 A 
BRANCH  20  23
ATOM     23  C   UNL     1       0.988   8.976  20.783  0.00  0.00    +0.000 A 
ATOM     24  C   UNL     1       0.789  10.317  20.397  0.00  0.00    +0.000 A 
ATOM     25  C   UNL     1       0.125  11.214  21.237  0.00  0.00    +0.000 A 
ATOM     26  C   UNL     1      -0.350  10.781  22.468  0.00  0.00    +0.000 A 
ATOM     27  F   UNL     1      -0.996  11.637  23.268  0.00  0.00    +0.000 F 
ATOM     28  C   UNL     1      -0.172   9.467  22.875  0.00  0.00    +0.000 A 
ATOM     29  C   UNL     1       0.504   8.575  22.040  0.00  0.00    +0.000 A 
ENDBRANCH  20  23
ENDBRANCH  16  17
ENDBRANCH   1  16
TORSDOF 10
ENDMDL
MODEL 7
REMARK VINA RESULT:      -7.6      0.599      1.565
REMARK  Name = 
REMARK  10 active torsions:
REMARK  status: ('A' for Active; 'I' for Inactive)
REMARK    1  A    between atoms: P_2  and  O_3
REMARK    2  A    between atoms: P_2  and  O_4
REMARK    3  A    between atoms: P_2  and  C_5
REMARK    4  A    between atoms: C_5  and  O_6
REMARK    5  A    between atoms: C_5  and  C_7
REMARK    6  A    between atoms: C_5  and  P_21
REMARK    7  A    between atoms: C_7  and  C_8
REMARK    8  A    between atoms: C_11  and  C_12
REMARK    9  A    between atoms: P_21  and  O_23
REMARK   10  A    between atoms: P_21  and  O_24
REMARK                            x       y       z     vdW  Elec       q    Type
REMARK                         _______ _______ _______ _____ _____    ______ ____
ROOT
ATOM      1  C   UNL     1       5.265   4.577  17.109  0.00  0.00    +0.000 C 
ENDROOT
BRANCH   1   3
ATOM      2  O   UNL     1       7.005   5.435  19.875  0.00  0.00    +0.000 OA
ATOM      3  P   UNL     1       6.208   5.042  18.607  0.00  0.00    +0.000 P 
BRANCH   3   4
ATOM      4  O   UNL     1       7.549   4.263  18.020  0.00  0.00    +0.000 OA
ATOM      5  H   UNL     1       8.035   3.929  18.804  0.00  0.00    +0.000 HD
ENDBRANCH   3   4
BRANCH   3   6
ATOM      6  O   UNL     1       5.682   3.691  19.390  0.00  0.00    +0.000 OA
ATOM      7  H   UNL     1       4.795   3.487  19.026  0.00  0.00    +0.000 HD
ENDBRANCH   3   6
ENDBRANCH   1   3
BRANCH   1   8
ATOM      8  O   UNL     1       5.608   3.150  16.805  0.00  0.00    +0.000 OA
ATOM      9  H   UNL     1       5.855   3.165  15.850  0.00  0.00    +0.000 HD
ENDBRANCH   1   8
BRANCH   1  10
ATOM     10  P   UNL     1       5.891   5.421  15.629  0.00  0.00    +0.000 P 
ATOM     11  O   UNL     1       5.580   4.799  14.304  0.00  0.00    +0.000 OA
BRANCH  10  12
ATOM     12  O   UNL     1       5.315   6.920  15.675  0.00  0.00    +0.000 OA
ATOM     13  H   UNL     1       5.947   7.525  16.109  0.00  0.00    +0.000 HD
ENDBRANCH  10  12
BRANCH  10  14
ATOM     14  O   UNL     1       7.470   5.700  15.738  0.00  0.00    +0.000 OA
ATOM     15  H   UNL     1       7.692   6.625  15.510  0.00  0.00    +0.000 HD
ENDBRANCH  10  14
ENDBRANCH   1  10
BRANCH   1  16
ATOM     16  C   UNL     1       3.742   4.463  17.260  0.00  0.00    +0.000 C 
BRANCH  16  17
ATOM     17  C   UNL     1       3.060   5.524  18.065  0.00  0.00    +0.000 A 
ATOM     18  C   UNL     1       2.947   6.814  17.562  0.00  0.00    +0.000 A 
ATOM     19  C   UNL     1       2.349   7.813  18.329  0.00  0.00    +0.000 A 
ATOM     20  C   UNL     1       1.852   7.552  19.620  0.00  0.00    +0.000 A 
ATOM     21  C   UNL     1       1.919   6.232  20.091  0.00  0.00    +0.000 A 
ATOM     22  C   UNL     1       2.490   5.232  19.310  0.00  0.00    +0.000 A 
BRANCH  20  23
ATOM     23  C   UNL     1       1.257   8.615  20.453  0.00  0.00    +0.000 A 
ATOM     24  C   UNL     1       0.782   9.807  19.870  0.00  0.00    +0.000 A 
ATOM     25  C   UNL     1       0.214  10.814  20.655  0.00  0.00    +0.000 A 
ATOM     26  C   UNL     1       0.112  10.639  22.029  0.00  0.00    +0.000 A 
ATOM     27  F   UNL     1      -0.442  11.597  22.779  0.00  0.00    +0.000 F 
ATOM     28  C   UNL     1       0.568   9.476  22.632  0.00  0.00    +0.000 A 
ATOM     29  C   UNL     1       1.147   8.476  21.848  0.00  0.00    +0.000 A 
ENDBRANCH  20  23
ENDBRANCH  16  17
ENDBRANCH   1  16
TORSDOF 10
ENDMDL
MODEL 8
REMARK VINA RESULT:      -7.4      1.150      2.301
REMARK  Name = 
REMARK  10 active torsions:
REMARK  status: ('A' for Active; 'I' for Inactive)
REMARK    1  A    between atoms: P_2  and  O_3
REMARK    2  A    between atoms: P_2  and  O_4
REMARK    3  A    between atoms: P_2  and  C_5
REMARK    4  A    between atoms: C_5  and  O_6
REMARK    5  A    between atoms: C_5  and  C_7
REMARK    6  A    between atoms: C_5  and  P_21
REMARK    7  A    between atoms: C_7  and  C_8
REMARK    8  A    between atoms: C_11  and  C_12
REMARK    9  A    between atoms: P_21  and  O_23
REMARK   10  A    between atoms: P_21  and  O_24
REMARK                            x       y       z     vdW  Elec       q    Type
REMARK                         _______ _______ _______ _____ _____    ______ ____
ROOT
ATOM      1  C   UNL     1       5.026   4.858  17.737  0.00  0.00    +0.000 C 
ENDROOT
BRANCH   1   3
ATOM      2  O   UNL     1       3.335   2.623  19.624  0.00  0.00    +0.000 OA
ATOM      3  P   UNL     1       4.110   3.648  18.760  0.00  0.00    +0.000 P 
BRANCH   3   4
ATOM      4  O   UNL     1       5.540   3.022  19.321  0.00  0.00    +0.000 OA
ATOM      5  H   UNL     1       6.237   3.667  19.072  0.00  0.00    +0.000 HD
ENDBRANCH   3   4
BRANCH   3   6
ATOM      6  O   UNL     1       4.060   2.583  17.503  0.00  0.00    +0.000 OA
ATOM      7  H   UNL     1       4.138   1.688  17.895  0.00  0.00    +0.000 HD
ENDBRANCH   3   6
ENDBRANCH   1   3
BRANCH   1   8
ATOM      8  O   UNL     1       5.467   4.136  16.500  0.00  0.00    +0.000 OA
ATOM      9  H   UNL     1       5.910   3.326  16.844  0.00  0.00    +0.000 HD
ENDBRANCH   1   8
BRANCH   1  10
ATOM     10  P   UNL     1       6.621   5.302  18.482  0.00  0.00    +0.000 P 
ATOM     11  O   UNL     1       6.682   5.374  19.975  0.00  0.00    +0.000 OA
BRANCH  10  12
ATOM     12  O   UNL     1       7.693   4.234  17.945  0.00  0.00    +0.000 OA
ATOM     13  H   UNL     1       7.297   3.344  17.871  0.00  0.00    +0.000 HD
ENDBRANCH  10  12
BRANCH  10  14
ATOM     14  O   UNL     1       7.203   6.660  17.851  0.00  0.00    +0.000 OA
ATOM     15  H   UNL     1       6.951   7.444  18.379  0.00  0.00    +0.000 HD
ENDBRANCH  10  14
ENDBRANCH   1  10
BRANCH   1  16
ATOM     16  C   UNL     1       4.205   5.992  17.110  0.00  0.00    +0.000 C 
BRANCH  16  17
ATOM     17  C   UNL     1       3.309   6.766  18.025  0.00  0.00    +0.000 A 
ATOM     18  C   UNL     1       2.798   7.994  17.624  0.00  0.00    +0.000 A 
ATOM     19  C   UNL     1       1.997   8.735  18.493  0.00  0.00    +0.000 A 
ATOM     20  C   UNL     1       1.690   8.273  19.786  0.00  0.00    +0.000 A 
ATOM     21  C   UNL     1       2.164   7.005  20.156  0.00  0.00    +0.000 A 
ATOM     22  C   UNL     1       2.938   6.256  19.275  0.00  0.00    +0.000 A 
BRANCH  20  23
ATOM     23  C   UNL     1       0.879   9.072  20.724  0.00  0.00    +0.000 A 
ATOM     24  C   UNL     1       0.896   8.798  22.106  0.00  0.00    +0.000 A 
ATOM     25  C   UNL     1       0.133   9.555  22.999  0.00  0.00    +0.000 A 
ATOM     26  C   UNL     1      -0.652  10.597  22.520  0.00  0.00    +0.000 A 
ATOM     27  F   UNL     1      -1.374  11.330  23.374  0.00  0.00    +0.000 F 
ATOM     28  C   UNL     1      -0.689  10.893  21.165  0.00  0.00    +0.000 A 
ATOM     29  C   UNL     1       0.065  10.126  20.273  0.00  0.00    +0.000 A 
ENDBRANCH  20  23
ENDBRANCH  16  17
ENDBRANCH   1  16
TORSDOF 10
ENDMDL
MODEL 9
REMARK VINA RESULT:      -7.4      1.252      2.170
REMARK  Name = 
REMARK  10 active torsions:
REMARK  status: ('A' for Active; 'I' for Inactive)
REMARK    1  A    between atoms: P_2  and  O_3
REMARK    2  A    between atoms: P_2  and  O_4
REMARK    3  A    between atoms: P_2  and  C_5
REMARK    4  A    between atoms: C_5  and  O_6
REMARK    5  A    between atoms: C_5  and  C_7
REMARK    6  A    between atoms: C_5  and  P_21
REMARK    7  A    between atoms: C_7  and  C_8
REMARK    8  A    between atoms: C_11  and  C_12
REMARK    9  A    between atoms: P_21  and  O_23
REMARK   10  A    between atoms: P_21  and  O_24
REMARK                            x       y       z     vdW  Elec       q    Type
REMARK                         _______ _______ _______ _____ _____    ______ ____
ROOT
ATOM      1  C   UNL     1       4.567   4.444  18.145  0.00  0.00    +0.000 C 
ENDROOT
BRANCH   1   3
ATOM      2  O   UNL     1       3.383   2.474  20.621  0.00  0.00    +0.000 OA
ATOM      3  P   UNL     1       3.926   3.377  19.487  0.00  0.00    +0.000 P 
BRANCH   3   4
ATOM      4  O   UNL     1       5.349   2.526  19.507  0.00  0.00    +0.000 OA
ATOM      5  H   UNL     1       5.255   1.821  18.831  0.00  0.00    +0.000 HD
ENDBRANCH   3   4
BRANCH   3   6
ATOM      6  O   UNL     1       3.251   2.353  18.387  0.00  0.00    +0.000 OA
ATOM      7  H   UNL     1       2.420   2.022  18.790  0.00  0.00    +0.000 HD
ENDBRANCH   3   6
ENDBRANCH   1   3
BRANCH   1   8
ATOM      8  O   UNL     1       4.873   3.546  16.984  0.00  0.00    +0.000 OA
ATOM      9  H   UNL     1       4.819   2.639  17.367  0.00  0.00    +0.000 HD
ENDBRANCH   1   8
BRANCH   1  10
ATOM     10  P   UNL     1       6.213   5.102  18.533  0.00  0.00    +0.000 P 
ATOM     11  O   UNL     1       6.570   5.242  19.979  0.00  0.00    +0.000 OA
BRANCH  10  12
ATOM     12  O   UNL     1       7.276   4.146  17.801  0.00  0.00    +0.000 OA
ATOM     13  H   UNL     1       7.170   3.218  18.088  0.00  0.00    +0.000 HD
ENDBRANCH  10  12
BRANCH  10  14
ATOM     14  O   UNL     1       6.482   6.492  17.773  0.00  0.00    +0.000 OA
ATOM     15  H   UNL     1       7.412   6.572  17.479  0.00  0.00    +0.000 HD
ENDBRANCH  10  14
ENDBRANCH   1  10
BRANCH   1  16
ATOM     16  C   UNL     1       3.566   5.403  17.488  0.00  0.00    +0.000 C 
BRANCH  16  17
ATOM     17  C   UNL     1       2.884   6.388  18.384  0.00  0.00    +0.000 A 
ATOM     18  C   UNL     1       2.511   6.017  19.670  0.00  0.00    +0.000 A 
ATOM     19  C   UNL     1       1.837   6.922  20.490  0.00  0.00    +0.000 A 
ATOM     20  C   UNL     1       1.515   8.218  20.048  0.00  0.00    +0.000 A 
ATOM     21  C   UNL     1       1.950   8.599  18.770  0.00  0.00    +0.000 A 
ATOM     22  C   UNL     1       2.647   7.703  17.965  0.00  0.00    +0.000 A 
BRANCH  20  23
ATOM     23  C   UNL     1       0.765   9.164  20.897  0.00  0.00    +0.000 A 
ATOM     24  C   UNL     1       0.534   8.885  22.258  0.00  0.00    +0.000 A 
ATOM     25  C   UNL     1      -0.172   9.780  23.066  0.00  0.00    +0.000 A 
ATOM     26  C   UNL     1      -0.652  10.965  22.522  0.00  0.00    +0.000 A 
ATOM     27  F   UNL     1      -1.317  11.827  23.298  0.00  0.00    +0.000 F 
ATOM     28  C   UNL     1      -0.439  11.270  21.186  0.00  0.00    +0.000 A 
ATOM     29  C   UNL     1       0.256  10.368  20.377  0.00  0.00    +0.000 A 
ENDBRANCH  20  23
ENDBRANCH  16  17
ENDBRANCH   1  16
TORSDOF 10
ENDMDL
