MODEL 1
REMARK VINA RESULT:     -10.7      0.000      0.000
REMARK  Name = 
REMARK  2 active torsions:
REMARK  status: ('A' for Active; 'I' for Inactive)
REMARK    1  A    between atoms: C_9  and  C_10
REMARK    2  A    between atoms: C_13  and  C_14
REMARK                            x       y       z     vdW  Elec       q    Type
REMARK                         _______ _______ _______ _____ _____    ______ ____
ROOT
ATOM      1  C   UNL     1       2.755   5.277  19.975  0.00  0.00    +0.000 C 
ATOM      2  C   UNL     1       1.736   4.150  19.600  0.00  0.00    +0.000 C 
ATOM      3  C   UNL     1       2.800   3.595  18.644  0.00  0.00    +0.000 C 
ATOM      4  C   UNL     1       3.867   4.260  19.553  0.00  0.00    +0.000 C 
ENDROOT
BRANCH   1  13
ATOM      5  C   UNL     1      -0.527  10.435  22.867  0.00  0.00    +0.000 A 
ATOM      6  C   UNL     1      -0.465  11.288  21.768  0.00  0.00    +0.000 A 
ATOM      7  C   UNL     1       0.189  10.896  20.591  0.00  0.00    +0.000 A 
ATOM      8  C   UNL     1       0.787   9.620  20.521  0.00  0.00    +0.000 A 
ATOM      9  C   UNL     1       0.699   8.793  21.641  0.00  0.00    +0.000 A 
ATOM     10  C   UNL     1       0.055   9.168  22.824  0.00  0.00    +0.000 A 
ATOM     11  N   UNL     1       1.335   7.622  21.325  0.00  0.00    +0.000 N 
ATOM     12  C   UNL     1       1.819   7.646  20.038  0.00  0.00    +0.000 A 
ATOM     13  C   UNL     1       2.489   6.658  19.311  0.00  0.00    +0.000 A 
ATOM     14  N   UNL     1       2.898   6.953  18.059  0.00  0.00    +0.000 NA
ATOM     15  C   UNL     1       2.614   8.172  17.542  0.00  0.00    +0.000 A 
ATOM     16  C   UNL     1       1.923   9.181  18.203  0.00  0.00    +0.000 A 
ATOM     17  C   UNL     1       1.512   8.899  19.514  0.00  0.00    +0.000 A 
ATOM     18  H   UNL     1       1.417   6.836  21.952  0.00  0.00    +0.000 HD
ENDBRANCH   1  13
BRANCH   4  19
ATOM     19  C   UNL     1       5.228   4.652  18.945  0.00  0.00    +0.000 A 
ATOM     20  N   UNL     1       6.147   5.256  19.746  0.00  0.00    +0.000 NA
ATOM     21  C   UNL     1       7.312   5.683  19.216  0.00  0.00    +0.000 A 
ATOM     22  C   UNL     1       7.657   5.575  17.879  0.00  0.00    +0.000 A 
ATOM     23  C   UNL     1       6.703   5.001  17.026  0.00  0.00    +0.000 A 
ATOM     24  C   UNL     1       5.499   4.565  17.579  0.00  0.00    +0.000 A 
ATOM     25  N   UNL     1       4.741   4.075  16.543  0.00  0.00    +0.000 N 
ATOM     26  C   UNL     1       5.409   4.169  15.347  0.00  0.00    +0.000 A 
ATOM     27  C   UNL     1       5.009   3.791  14.061  0.00  0.00    +0.000 A 
ATOM     28  C   UNL     1       5.919   3.987  13.019  0.00  0.00    +0.000 A 
ATOM     29  C   UNL     1       7.177   4.537  13.259  0.00  0.00    +0.000 A 
ATOM     30  C   UNL     1       7.555   4.917  14.553  0.00  0.00    +0.000 A 
ATOM     31  C   UNL     1       6.654   4.732  15.621  0.00  0.00    +0.000 A 
ATOM     32  H   UNL     1       3.826   3.667  16.648  0.00  0.00    +0.000 HD
ENDBRANCH   4  19
TORSDOF 2
ENDMDL
MODEL 2
REMARK VINA RESULT:      -9.4      0.455      8.295
REMARK  Name = 
REMARK  2 active torsions:
REMARK  status: ('A' for Active; 'I' for Inactive)
REMARK    1  A    between atoms: C_9  and  C_10
REMARK    2  A    between atoms: C_13  and  C_14
REMARK                            x       y       z     vdW  Elec       q    Type
REMARK                         _______ _______ _______ _____ _____    ______ ____
ROOT
ATOM      1  C   UNL     1       3.398   4.271  19.056  0.00  0.00    +0.000 C 
ATOM      2  C   UNL     1       3.247   3.566  20.445  0.00  0.00    +0.000 C 
ATOM      3  C   UNL     1       2.676   4.886  20.981  0.00  0.00    +0.000 C 
ATOM      4  C   UNL     1       2.235   5.206  19.528  0.00  0.00    +0.000 C 
ENDROOT
BRANCH   1  13
ATOM      5  C   UNL     1       6.144   4.049  12.879  0.00  0.00    +0.000 A 
ATOM      6  C   UNL     1       7.400   4.520  13.256  0.00  0.00    +0.000 A 
ATOM      7  C   UNL     1       7.663   4.876  14.587  0.00  0.00    +0.000 A 
ATOM      8  C   UNL     1       6.643   4.753  15.554  0.00  0.00    +0.000 A 
ATOM      9  C   UNL     1       5.401   4.274  15.138  0.00  0.00    +0.000 A 
ATOM     10  C   UNL     1       5.117   3.917  13.816  0.00  0.00    +0.000 A 
ATOM     11  N   UNL     1       4.596   4.233  16.245  0.00  0.00    +0.000 N 
ATOM     12  C   UNL     1       5.270   4.650  17.369  0.00  0.00    +0.000 A 
ATOM     13  C   UNL     1       4.840   4.726  18.698  0.00  0.00    +0.000 A 
ATOM     14  N   UNL     1       5.698   5.216  19.619  0.00  0.00    +0.000 NA
ATOM     15  C   UNL     1       6.945   5.575  19.233  0.00  0.00    +0.000 A 
ATOM     16  C   UNL     1       7.439   5.491  17.937  0.00  0.00    +0.000 A 
ATOM     17  C   UNL     1       6.552   5.008  16.963  0.00  0.00    +0.000 A 
ATOM     18  H   UNL     1       3.639   3.916  16.236  0.00  0.00    +0.000 HD
ENDBRANCH   1  13
BRANCH   4  19
ATOM     19  C   UNL     1       2.069   6.679  19.106  0.00  0.00    +0.000 A 
ATOM     20  N   UNL     1       2.665   7.095  17.956  0.00  0.00    +0.000 NA
ATOM     21  C   UNL     1       2.603   8.398  17.609  0.00  0.00    +0.000 A 
ATOM     22  C   UNL     1       1.984   9.386  18.357  0.00  0.00    +0.000 A 
ATOM     23  C   UNL     1       1.407   8.986  19.572  0.00  0.00    +0.000 A 
ATOM     24  C   UNL     1       1.477   7.640  19.927  0.00  0.00    +0.000 A 
ATOM     25  N   UNL     1       0.871   7.520  21.154  0.00  0.00    +0.000 N 
ATOM     26  C   UNL     1       0.405   8.732  21.601  0.00  0.00    +0.000 A 
ATOM     27  C   UNL     1      -0.266   9.057  22.785  0.00  0.00    +0.000 A 
ATOM     28  C   UNL     1      -0.646  10.389  22.965  0.00  0.00    +0.000 A 
ATOM     29  C   UNL     1      -0.365  11.353  21.999  0.00  0.00    +0.000 A 
ATOM     30  C   UNL     1       0.316  11.009  20.825  0.00  0.00    +0.000 A 
ATOM     31  C   UNL     1       0.712   9.672  20.619  0.00  0.00    +0.000 A 
ATOM     32  H   UNL     1       0.751   6.651  21.650  0.00  0.00    +0.000 HD
ENDBRANCH   4  19
TORSDOF 2
ENDMDL
MODEL 3
REMARK VINA RESULT:      -9.3      3.068      5.887
REMARK  Name = 
REMARK  2 active torsions:
REMARK  status: ('A' for Active; 'I' for Inactive)
REMARK    1  A    between atoms: C_9  and  C_10
REMARK    2  A    between atoms: C_13  and  C_14
REMARK                            x       y       z     vdW  Elec       q    Type
REMARK                         _______ _______ _______ _____ _____    ______ ____
ROOT
ATOM      1  C   UNL     1       0.673  10.368  21.612  0.00  0.00    +0.000 C 
ATOM      2  C   UNL     1      -0.453   9.804  22.541  0.00  0.00    +0.000 C 
ATOM      3  C   UNL     1      -0.387   8.506  21.725  0.00  0.00    +0.000 C 
ATOM      4  C   UNL     1       1.081   8.874  21.385  0.00  0.00    +0.000 C 
ENDROOT
BRANCH   1  13
ATOM      5  C   UNL     1       3.952  15.952  19.660  0.00  0.00    +0.000 A 
ATOM      6  C   UNL     1       2.996  16.373  18.738  0.00  0.00    +0.000 A 
ATOM      7  C   UNL     1       1.841  15.612  18.504  0.00  0.00    +0.000 A 
ATOM      8  C   UNL     1       1.647  14.409  19.213  0.00  0.00    +0.000 A 
ATOM      9  C   UNL     1       2.624  14.024  20.130  0.00  0.00    +0.000 A 
ATOM     10  C   UNL     1       3.783  14.766  20.376  0.00  0.00    +0.000 A 
ATOM     11  N   UNL     1       2.205  12.846  20.692  0.00  0.00    +0.000 N 
ATOM     12  C   UNL     1       0.985  12.458  20.188  0.00  0.00    +0.000 A 
ATOM     13  C   UNL     1       0.190  11.354  20.510  0.00  0.00    +0.000 A 
ATOM     14  N   UNL     1      -0.963  11.178  19.831  0.00  0.00    +0.000 NA
ATOM     15  C   UNL     1      -1.325  12.089  18.898  0.00  0.00    +0.000 A 
ATOM     16  C   UNL     1      -0.594  13.222  18.558  0.00  0.00    +0.000 A 
ATOM     17  C   UNL     1       0.620  13.407  19.238  0.00  0.00    +0.000 A 
ATOM     18  H   UNL     1       2.719  12.343  21.399  0.00  0.00    +0.000 HD
ENDBRANCH   1  13
BRANCH   4  19
ATOM     19  C   UNL     1       1.709   8.324  20.089  0.00  0.00    +0.000 A 
ATOM     20  N   UNL     1       1.765   9.137  19.000  0.00  0.00    +0.000 NA
ATOM     21  C   UNL     1       2.234   8.651  17.832  0.00  0.00    +0.000 A 
ATOM     22  C   UNL     1       2.656   7.347  17.632  0.00  0.00    +0.000 A 
ATOM     23  C   UNL     1       2.558   6.479  18.729  0.00  0.00    +0.000 A 
ATOM     24  C   UNL     1       2.070   6.985  19.933  0.00  0.00    +0.000 A 
ATOM     25  N   UNL     1       2.049   5.940  20.824  0.00  0.00    +0.000 N 
ATOM     26  C   UNL     1       2.512   4.783  20.248  0.00  0.00    +0.000 A 
ATOM     27  C   UNL     1       2.658   3.503  20.792  0.00  0.00    +0.000 A 
ATOM     28  C   UNL     1       3.184   2.507  19.966  0.00  0.00    +0.000 A 
ATOM     29  C   UNL     1       3.549   2.785  18.651  0.00  0.00    +0.000 A 
ATOM     30  C   UNL     1       3.388   4.071  18.121  0.00  0.00    +0.000 A 
ATOM     31  C   UNL     1       2.857   5.094  18.934  0.00  0.00    +0.000 A 
ATOM     32  H   UNL     1       1.765   6.017  21.788  0.00  0.00    +0.000 HD
ENDBRANCH   4  19
TORSDOF 2
ENDMDL
MODEL 4
REMARK VINA RESULT:      -9.0      4.892      8.719
REMARK  Name = 
REMARK  2 active torsions:
REMARK  status: ('A' for Active; 'I' for Inactive)
REMARK    1  A    between atoms: C_9  and  C_10
REMARK    2  A    between atoms: C_13  and  C_14
REMARK                            x       y       z     vdW  Elec       q    Type
REMARK                         _______ _______ _______ _____ _____    ______ ____
ROOT
ATOM      1  C   UNL     1      -1.783  13.961  21.492  0.00  0.00    +0.000 C 
ATOM      2  C   UNL     1      -1.865  14.955  22.698  0.00  0.00    +0.000 C 
ATOM      3  C   UNL     1      -1.425  13.795  23.601  0.00  0.00    +0.000 C 
ATOM      4  C   UNL     1      -0.741  13.174  22.355  0.00  0.00    +0.000 C 
ENDROOT
BRANCH   1  13
ATOM      5  C   UNL     1      -2.750  10.552  15.731  0.00  0.00    +0.000 A 
ATOM      6  C   UNL     1      -4.130  10.419  15.865  0.00  0.00    +0.000 A 
ATOM      7  C   UNL     1      -4.793  10.921  16.995  0.00  0.00    +0.000 A 
ATOM      8  C   UNL     1      -4.052  11.571  18.004  0.00  0.00    +0.000 A 
ATOM      9  C   UNL     1      -2.673  11.688  17.831  0.00  0.00    +0.000 A 
ATOM     10  C   UNL     1      -1.993  11.191  16.714  0.00  0.00    +0.000 A 
ATOM     11  N   UNL     1      -2.188  12.358  18.922  0.00  0.00    +0.000 N 
ATOM     12  C   UNL     1      -3.198  12.697  19.792  0.00  0.00    +0.000 A 
ATOM     13  C   UNL     1      -3.148  13.410  20.993  0.00  0.00    +0.000 A 
ATOM     14  N   UNL     1      -4.296  13.574  21.686  0.00  0.00    +0.000 NA
ATOM     15  C   UNL     1      -5.450  13.081  21.177  0.00  0.00    +0.000 A 
ATOM     16  C   UNL     1      -5.567  12.395  19.975  0.00  0.00    +0.000 A 
ATOM     17  C   UNL     1      -4.379  12.194  19.254  0.00  0.00    +0.000 A 
ATOM     18  H   UNL     1      -1.215  12.590  19.057  0.00  0.00    +0.000 HD
ENDBRANCH   1  13
BRANCH   4  19
ATOM     19  C   UNL     1      -0.532  11.647  22.301  0.00  0.00    +0.000 A 
ATOM     20  N   UNL     1      -0.880  10.906  23.387  0.00  0.00    +0.000 NA
ATOM     21  C   UNL     1      -0.630   9.580  23.394  0.00  0.00    +0.000 A 
ATOM     22  C   UNL     1      -0.009   8.888  22.367  0.00  0.00    +0.000 A 
ATOM     23  C   UNL     1       0.404   9.644  21.259  0.00  0.00    +0.000 A 
ATOM     24  C   UNL     1       0.146  11.014  21.258  0.00  0.00    +0.000 A 
ATOM     25  N   UNL     1       0.667  11.516  20.091  0.00  0.00    +0.000 N 
ATOM     26  C   UNL     1       1.243  10.525  19.334  0.00  0.00    +0.000 A 
ATOM     27  C   UNL     1       1.881  10.598  18.091  0.00  0.00    +0.000 A 
ATOM     28  C   UNL     1       2.358   9.406  17.541  0.00  0.00    +0.000 A 
ATOM     29  C   UNL     1       2.200   8.194  18.209  0.00  0.00    +0.000 A 
ATOM     30  C   UNL     1       1.567   8.143  19.457  0.00  0.00    +0.000 A 
ATOM     31  C   UNL     1       1.078   9.332  20.035  0.00  0.00    +0.000 A 
ATOM     32  H   UNL     1       0.607  12.481  19.806  0.00  0.00    +0.000 HD
ENDBRANCH   4  19
TORSDOF 2
ENDMDL
MODEL 5
REMARK VINA RESULT:      -8.9      3.832      7.313
REMARK  Name = 
REMARK  2 active torsions:
REMARK  status: ('A' for Active; 'I' for Inactive)
REMARK    1  A    between atoms: C_9  and  C_10
REMARK    2  A    between atoms: C_13  and  C_14
REMARK                            x       y       z     vdW  Elec       q    Type
REMARK                         _______ _______ _______ _____ _____    ______ ____
ROOT
ATOM      1  C   UNL     1      -0.372  12.733  18.779  0.00  0.00    +0.000 C 
ATOM      2  C   UNL     1       0.710  13.853  18.625  0.00  0.00    +0.000 C 
ATOM      3  C   UNL     1       1.673  12.939  19.393  0.00  0.00    +0.000 C 
ATOM      4  C   UNL     1       0.832  11.739  18.886  0.00  0.00    +0.000 C 
ENDROOT
BRANCH   1  13
ATOM      5  C   UNL     1      -6.944  11.216  18.285  0.00  0.00    +0.000 A 
ATOM      6  C   UNL     1      -7.312  11.733  19.525  0.00  0.00    +0.000 A 
ATOM      7  C   UNL     1      -6.353  12.292  20.382  0.00  0.00    +0.000 A 
ATOM      8  C   UNL     1      -5.001  12.331  19.980  0.00  0.00    +0.000 A 
ATOM      9  C   UNL     1      -4.674  11.808  18.730  0.00  0.00    +0.000 A 
ATOM     10  C   UNL     1      -5.615  11.243  17.862  0.00  0.00    +0.000 A 
ATOM     11  N   UNL     1      -3.324  11.973  18.566  0.00  0.00    +0.000 N 
ATOM     12  C   UNL     1      -2.761  12.599  19.654  0.00  0.00    +0.000 A 
ATOM     13  C   UNL     1      -1.438  12.990  19.881  0.00  0.00    +0.000 A 
ATOM     14  N   UNL     1      -1.136  13.560  21.067  0.00  0.00    +0.000 NA
ATOM     15  C   UNL     1      -2.122  13.767  21.971  0.00  0.00    +0.000 A 
ATOM     16  C   UNL     1      -3.459  13.431  21.789  0.00  0.00    +0.000 A 
ATOM     17  C   UNL     1      -3.786  12.815  20.571  0.00  0.00    +0.000 A 
ATOM     18  H   UNL     1      -2.816  11.689  17.743  0.00  0.00    +0.000 HD
ENDBRANCH   1  13
BRANCH   4  19
ATOM     19  C   UNL     1       0.820  10.434  19.706  0.00  0.00    +0.000 A 
ATOM     20  N   UNL     1       0.233  10.445  20.934  0.00  0.00    +0.000 NA
ATOM     21  C   UNL     1       0.283   9.338  21.704  0.00  0.00    +0.000 A 
ATOM     22  C   UNL     1       0.921   8.160  21.352  0.00  0.00    +0.000 A 
ATOM     23  C   UNL     1       1.577   8.145  20.112  0.00  0.00    +0.000 A 
ATOM     24  C   UNL     1       1.524   9.292  19.322  0.00  0.00    +0.000 A 
ATOM     25  N   UNL     1       2.257   9.029  18.189  0.00  0.00    +0.000 N 
ATOM     26  C   UNL     1       2.773   7.757  18.213  0.00  0.00    +0.000 A 
ATOM     27  C   UNL     1       3.566   7.090  17.274  0.00  0.00    +0.000 A 
ATOM     28  C   UNL     1       3.929   5.771  17.557  0.00  0.00    +0.000 A 
ATOM     29  C   UNL     1       3.513   5.149  18.732  0.00  0.00    +0.000 A 
ATOM     30  C   UNL     1       2.726   5.836  19.664  0.00  0.00    +0.000 A 
ATOM     31  C   UNL     1       2.347   7.169  19.403  0.00  0.00    +0.000 A 
ATOM     32  H   UNL     1       2.375   9.672  17.423  0.00  0.00    +0.000 HD
ENDBRANCH   4  19
TORSDOF 2
ENDMDL
MODEL 6
REMARK VINA RESULT:      -8.6      3.041      5.507
REMARK  Name = 
REMARK  2 active torsions:
REMARK  status: ('A' for Active; 'I' for Inactive)
REMARK    1  A    between atoms: C_9  and  C_10
REMARK    2  A    between atoms: C_13  and  C_14
REMARK                            x       y       z     vdW  Elec       q    Type
REMARK                         _______ _______ _______ _____ _____    ______ ____
ROOT
ATOM      1  C   UNL     1       0.926  10.034  21.852  0.00  0.00    +0.000 C 
ATOM      2  C   UNL     1      -0.372   9.577  22.597  0.00  0.00    +0.000 C 
ATOM      3  C   UNL     1      -0.419   8.376  21.644  0.00  0.00    +0.000 C 
ATOM      4  C   UNL     1       1.117   8.523  21.490  0.00  0.00    +0.000 C 
ENDROOT
BRANCH   1  13
ATOM      5  C   UNL     1      -3.354   9.958  16.615  0.00  0.00    +0.000 A 
ATOM      6  C   UNL     1      -3.000  11.208  16.113  0.00  0.00    +0.000 A 
ATOM      7  C   UNL     1      -2.040  11.997  16.764  0.00  0.00    +0.000 A 
ATOM      8  C   UNL     1      -1.425  11.514  17.939  0.00  0.00    +0.000 A 
ATOM      9  C   UNL     1      -1.803  10.257  18.406  0.00  0.00    +0.000 A 
ATOM     10  C   UNL     1      -2.761   9.457  17.774  0.00  0.00    +0.000 A 
ATOM     11  N   UNL     1      -1.067  10.011  19.535  0.00  0.00    +0.000 N 
ATOM     12  C   UNL     1      -0.212  11.052  19.811  0.00  0.00    +0.000 A 
ATOM     13  C   UNL     1       0.732  11.193  20.834  0.00  0.00    +0.000 A 
ATOM     14  N   UNL     1       1.426  12.349  20.906  0.00  0.00    +0.000 NA
ATOM     15  C   UNL     1       1.215  13.305  19.971  0.00  0.00    +0.000 A 
ATOM     16  C   UNL     1       0.317  13.209  18.915  0.00  0.00    +0.000 A 
ATOM     17  C   UNL     1      -0.431  12.024  18.839  0.00  0.00    +0.000 A 
ATOM     18  H   UNL     1      -1.132   9.164  20.078  0.00  0.00    +0.000 HD
ENDBRANCH   1  13
BRANCH   4  19
ATOM     19  C   UNL     1       1.792   8.009  20.203  0.00  0.00    +0.000 A 
ATOM     20  N   UNL     1       1.874   8.847  19.134  0.00  0.00    +0.000 NA
ATOM     21  C   UNL     1       2.386   8.392  17.972  0.00  0.00    +0.000 A 
ATOM     22  C   UNL     1       2.828   7.097  17.757  0.00  0.00    +0.000 A 
ATOM     23  C   UNL     1       2.705   6.203  18.831  0.00  0.00    +0.000 A 
ATOM     24  C   UNL     1       2.173   6.678  20.029  0.00  0.00    +0.000 A 
ATOM     25  N   UNL     1       2.136   5.613  20.897  0.00  0.00    +0.000 N 
ATOM     26  C   UNL     1       2.630   4.474  20.311  0.00  0.00    +0.000 A 
ATOM     27  C   UNL     1       2.773   3.183  20.832  0.00  0.00    +0.000 A 
ATOM     28  C   UNL     1       3.337   2.212  20.002  0.00  0.00    +0.000 A 
ATOM     29  C   UNL     1       3.740   2.523  18.705  0.00  0.00    +0.000 A 
ATOM     30  C   UNL     1       3.581   3.819  18.199  0.00  0.00    +0.000 A 
ATOM     31  C   UNL     1       3.013   4.817  19.016  0.00  0.00    +0.000 A 
ATOM     32  H   UNL     1       1.820   5.665  21.852  0.00  0.00    +0.000 HD
ENDBRANCH   4  19
TORSDOF 2
ENDMDL
MODEL 7
REMARK VINA RESULT:      -8.6      7.076     10.174
REMARK  Name = 
REMARK  2 active torsions:
REMARK  status: ('A' for Active; 'I' for Inactive)
REMARK    1  A    between atoms: C_9  and  C_10
REMARK    2  A    between atoms: C_13  and  C_14
REMARK                            x       y       z     vdW  Elec       q    Type
REMARK                         _______ _______ _______ _____ _____    ______ ____
ROOT
ATOM      1  C   UNL     1      -1.949  13.447  21.835  0.00  0.00    +0.000 C 
ATOM      2  C   UNL     1      -1.575  13.471  23.355  0.00  0.00    +0.000 C 
ATOM      3  C   UNL     1      -0.768  14.745  23.070  0.00  0.00    +0.000 C 
ATOM      4  C   UNL     1      -1.715  14.994  21.867  0.00  0.00    +0.000 C 
ENDROOT
BRANCH   1  13
ATOM      5  C   UNL     1      -4.099  10.728  16.028  0.00  0.00    +0.000 A 
ATOM      6  C   UNL     1      -2.993   9.904  15.829  0.00  0.00    +0.000 A 
ATOM      7  C   UNL     1      -1.920   9.914  16.732  0.00  0.00    +0.000 A 
ATOM      8  C   UNL     1      -1.965  10.765  17.856  0.00  0.00    +0.000 A 
ATOM      9  C   UNL     1      -3.091  11.571  18.022  0.00  0.00    +0.000 A 
ATOM     10  C   UNL     1      -4.169  11.579  17.132  0.00  0.00    +0.000 A 
ATOM     11  N   UNL     1      -2.906  12.286  19.176  0.00  0.00    +0.000 N 
ATOM     12  C   UNL     1      -1.710  11.966  19.776  0.00  0.00    +0.000 A 
ATOM     13  C   UNL     1      -1.154  12.426  20.973  0.00  0.00    +0.000 A 
ATOM     14  N   UNL     1       0.070  11.976  21.323  0.00  0.00    +0.000 NA
ATOM     15  C   UNL     1       0.693  11.073  20.530  0.00  0.00    +0.000 A 
ATOM     16  C   UNL     1       0.176  10.555  19.348  0.00  0.00    +0.000 A 
ATOM     17  C   UNL     1      -1.085  11.030  18.957  0.00  0.00    +0.000 A 
ATOM     18  H   UNL     1      -3.573  12.946  19.545  0.00  0.00    +0.000 HD
ENDBRANCH   1  13
BRANCH   4  19
ATOM     19  C   UNL     1      -1.204  15.828  20.674  0.00  0.00    +0.000 A 
ATOM     20  N   UNL     1      -2.061  16.702  20.080  0.00  0.00    +0.000 NA
ATOM     21  C   UNL     1      -1.662  17.381  18.984  0.00  0.00    +0.000 A 
ATOM     22  C   UNL     1      -0.425  17.244  18.377  0.00  0.00    +0.000 A 
ATOM     23  C   UNL     1       0.454  16.310  18.944  0.00  0.00    +0.000 A 
ATOM     24  C   UNL     1       0.036  15.609  20.075  0.00  0.00    +0.000 A 
ATOM     25  N   UNL     1       1.056  14.750  20.409  0.00  0.00    +0.000 N 
ATOM     26  C   UNL     1       2.117  14.875  19.547  0.00  0.00    +0.000 A 
ATOM     27  C   UNL     1       3.343  14.201  19.525  0.00  0.00    +0.000 A 
ATOM     28  C   UNL     1       4.256  14.556  18.530  0.00  0.00    +0.000 A 
ATOM     29  C   UNL     1       3.951  15.545  17.597  0.00  0.00    +0.000 A 
ATOM     30  C   UNL     1       2.716  16.202  17.630  0.00  0.00    +0.000 A 
ATOM     31  C   UNL     1       1.776  15.861  18.624  0.00  0.00    +0.000 A 
ATOM     32  H   UNL     1       1.044  14.132  21.205  0.00  0.00    +0.000 HD
ENDBRANCH   4  19
TORSDOF 2
ENDMDL
MODEL 8
REMARK VINA RESULT:      -8.6      2.622      5.559
REMARK  Name = 
REMARK  2 active torsions:
REMARK  status: ('A' for Active; 'I' for Inactive)
REMARK    1  A    between atoms: C_9  and  C_10
REMARK    2  A    between atoms: C_13  and  C_14
REMARK                            x       y       z     vdW  Elec       q    Type
REMARK                         _______ _______ _______ _____ _____    ______ ____
ROOT
ATOM      1  C   UNL     1       0.724  10.035  22.273  0.00  0.00    +0.000 C 
ATOM      2  C   UNL     1      -0.370   9.255  23.075  0.00  0.00    +0.000 C 
ATOM      3  C   UNL     1      -0.420   8.256  21.911  0.00  0.00    +0.000 C 
ATOM      4  C   UNL     1       1.042   8.665  21.587  0.00  0.00    +0.000 C 
ENDROOT
BRANCH   1  13
ATOM      5  C   UNL     1      -4.896  13.463  23.825  0.00  0.00    +0.000 A 
ATOM      6  C   UNL     1      -4.781  14.409  22.809  0.00  0.00    +0.000 A 
ATOM      7  C   UNL     1      -3.687  14.390  21.932  0.00  0.00    +0.000 A 
ATOM      8  C   UNL     1      -2.695  13.398  22.080  0.00  0.00    +0.000 A 
ATOM      9  C   UNL     1      -2.848  12.467  23.106  0.00  0.00    +0.000 A 
ATOM     10  C   UNL     1      -3.929  12.471  23.994  0.00  0.00    +0.000 A 
ATOM     11  N   UNL     1      -1.779  11.613  23.037  0.00  0.00    +0.000 N 
ATOM     12  C   UNL     1      -0.944  11.942  21.995  0.00  0.00    +0.000 A 
ATOM     13  C   UNL     1       0.226  11.318  21.549  0.00  0.00    +0.000 A 
ATOM     14  N   UNL     1       0.890  11.873  20.513  0.00  0.00    +0.000 NA
ATOM     15  C   UNL     1       0.384  12.981  19.921  0.00  0.00    +0.000 A 
ATOM     16  C   UNL     1      -0.789  13.625  20.298  0.00  0.00    +0.000 A 
ATOM     17  C   UNL     1      -1.479  13.075  21.389  0.00  0.00    +0.000 A 
ATOM     18  H   UNL     1      -1.638  10.832  23.659  0.00  0.00    +0.000 HD
ENDBRANCH   1  13
BRANCH   4  19
ATOM     19  C   UNL     1       1.560   8.506  20.144  0.00  0.00    +0.000 A 
ATOM     20  N   UNL     1       1.232   9.458  19.229  0.00  0.00    +0.000 NA
ATOM     21  C   UNL     1       1.605   9.298  17.942  0.00  0.00    +0.000 A 
ATOM     22  C   UNL     1       2.294   8.203  17.450  0.00  0.00    +0.000 A 
ATOM     23  C   UNL     1       2.597   7.185  18.367  0.00  0.00    +0.000 A 
ATOM     24  C   UNL     1       2.207   7.354  19.695  0.00  0.00    +0.000 A 
ATOM     25  N   UNL     1       2.593   6.221  20.370  0.00  0.00    +0.000 N 
ATOM     26  C   UNL     1       3.222   5.332  19.534  0.00  0.00    +0.000 A 
ATOM     27  C   UNL     1       3.767   4.072  19.805  0.00  0.00    +0.000 A 
ATOM     28  C   UNL     1       4.376   3.392  18.749  0.00  0.00    +0.000 A 
ATOM     29  C   UNL     1       4.437   3.953  17.474  0.00  0.00    +0.000 A 
ATOM     30  C   UNL     1       3.879   5.212  17.221  0.00  0.00    +0.000 A 
ATOM     31  C   UNL     1       3.256   5.918  18.270  0.00  0.00    +0.000 A 
ATOM     32  H   UNL     1       2.462   6.072  21.358  0.00  0.00    +0.000 HD
ENDBRANCH   4  19
TORSDOF 2
ENDMDL
MODEL 9
REMARK VINA RESULT:      -8.5      4.030     10.011
REMARK  Name = 
REMARK  2 active torsions:
REMARK  status: ('A' for Active; 'I' for Inactive)
REMARK    1  A    between atoms: C_9  and  C_10
REMARK    2  A    between atoms: C_13  and  C_14
REMARK                            x       y       z     vdW  Elec       q    Type
REMARK                         _______ _______ _______ _____ _____    ______ ____
ROOT
ATOM      1  C   UNL     1       0.001  12.609  20.532  0.00  0.00    +0.000 C 
ATOM      2  C   UNL     1       1.357  13.148  19.967  0.00  0.00    +0.000 C 
ATOM      3  C   UNL     1       0.950  12.564  18.608  0.00  0.00    +0.000 C 
ATOM      4  C   UNL     1      -0.526  12.713  19.062  0.00  0.00    +0.000 C 
ENDROOT
BRANCH   1  13
ATOM      5  C   UNL     1       2.600   6.764  18.335  0.00  0.00    +0.000 A 
ATOM      6  C   UNL     1       2.343   6.039  19.497  0.00  0.00    +0.000 A 
ATOM      7  C   UNL     1       1.749   6.653  20.609  0.00  0.00    +0.000 A 
ATOM      8  C   UNL     1       1.407   8.020  20.547  0.00  0.00    +0.000 A 
ATOM      9  C   UNL     1       1.676   8.710  19.366  0.00  0.00    +0.000 A 
ATOM     10  C   UNL     1       2.271   8.117  18.247  0.00  0.00    +0.000 A 
ATOM     11  N   UNL     1       1.247   9.998  19.547  0.00  0.00    +0.000 N 
ATOM     12  C   UNL     1       0.693  10.170  20.794  0.00  0.00    +0.000 A 
ATOM     13  C   UNL     1       0.105  11.302  21.368  0.00  0.00    +0.000 A 
ATOM     14  N   UNL     1      -0.333  11.216  22.642  0.00  0.00    +0.000 NA
ATOM     15  C   UNL     1      -0.225  10.038  23.300  0.00  0.00    +0.000 A 
ATOM     16  C   UNL     1       0.319   8.873  22.771  0.00  0.00    +0.000 A 
ATOM     17  C   UNL     1       0.801   8.951  21.456  0.00  0.00    +0.000 A 
ATOM     18  H   UNL     1       1.311  10.719  18.845  0.00  0.00    +0.000 HD
ENDBRANCH   1  13
BRANCH   4  19
ATOM     19  C   UNL     1      -1.595  11.789  18.446  0.00  0.00    +0.000 A 
ATOM     20  N   UNL     1      -1.212  10.906  17.484  0.00  0.00    +0.000 NA
ATOM     21  C   UNL     1      -2.144  10.145  16.872  0.00  0.00    +0.000 A 
ATOM     22  C   UNL     1      -3.504  10.202  17.131  0.00  0.00    +0.000 A 
ATOM     23  C   UNL     1      -3.924  11.142  18.084  0.00  0.00    +0.000 A 
ATOM     24  C   UNL     1      -2.958  11.927  18.711  0.00  0.00    +0.000 A 
ATOM     25  N   UNL     1      -3.625  12.771  19.565  0.00  0.00    +0.000 N 
ATOM     26  C   UNL     1      -4.980  12.556  19.522  0.00  0.00    +0.000 A 
ATOM     27  C   UNL     1      -6.014  13.187  20.223  0.00  0.00    +0.000 A 
ATOM     28  C   UNL     1      -7.316  12.738  19.992  0.00  0.00    +0.000 A 
ATOM     29  C   UNL     1      -7.570  11.702  19.096  0.00  0.00    +0.000 A 
ATOM     30  C   UNL     1      -6.523  11.089  18.398  0.00  0.00    +0.000 A 
ATOM     31  C   UNL     1      -5.199  11.524  18.612  0.00  0.00    +0.000 A 
ATOM     32  H   UNL     1      -3.178  13.440  20.172  0.00  0.00    +0.000 HD
ENDBRANCH   4  19
TORSDOF 2
ENDMDL
