MODEL 1
REMARK VINA RESULT:      -7.5      0.000      0.000
REMARK  Name = 
REMARK  6 active torsions:
REMARK  status: ('A' for Active; 'I' for Inactive)
REMARK    1  A    between atoms: C_1  and  O_2
REMARK    2  A    between atoms: O_2  and  C_3
REMARK    3  A    between atoms: C_5  and  C_6
REMARK    4  A    between atoms: C_6  and  C_7
REMARK    5  A    between atoms: C_7  and  O_9
REMARK    6  A    between atoms: C_11  and  C_12
REMARK                            x       y       z     vdW  Elec       q    Type
REMARK                         _______ _______ _______ _____ _____    ______ ____
ROOT
ATOM      1  C   UNL     1       5.143   5.733  16.187  0.00  0.00    +0.000 A 
ATOM      2  C   UNL     1       4.892   4.400  16.520  0.00  0.00    +0.000 A 
ATOM      3  C   UNL     1       3.950   4.071  17.501  0.00  0.00    +0.000 A 
ATOM      4  C   UNL     1       3.312   5.114  18.187  0.00  0.00    +0.000 A 
ATOM      5  C   UNL     1       3.484   6.466  17.829  0.00  0.00    +0.000 A 
ATOM      6  C   UNL     1       4.427   6.751  16.826  0.00  0.00    +0.000 A 
ENDROOT
BRANCH   5   7
ATOM      7  C   UNL     1       2.637   7.521  18.443  0.00  0.00    +0.000 A 
ATOM      8  C   UNL     1       2.193   8.639  17.719  0.00  0.00    +0.000 A 
ATOM      9  C   UNL     1       1.354   9.599  18.304  0.00  0.00    +0.000 A 
ATOM     10  C   UNL     1       0.958   9.459  19.631  0.00  0.00    +0.000 A 
ATOM     11 CL   UNL     1      -0.070  10.636  20.351  0.00  0.00    +0.000 Cl
ATOM     12  C   UNL     1       1.387   8.370  20.376  0.00  0.00    +0.000 A 
ATOM     13  C   UNL     1       2.208   7.408  19.783  0.00  0.00    +0.000 A 
ENDBRANCH   5   7
BRANCH   1  15
ATOM     14  C   UNL     1       6.965   4.821  14.953  0.00  0.00    +0.000 C 
ATOM     15  O   UNL     1       6.078   5.906  15.202  0.00  0.00    +0.000 OA
ENDBRANCH   1  15
BRANCH   3  16
ATOM     16  C   UNL     1       3.658   2.621  17.820  0.00  0.00    +0.000 C 
BRANCH  16  17
ATOM     17  C   UNL     1       3.745   2.263  19.290  0.00  0.00    +0.000 C 
ATOM     18  O   UNL     1       2.780   2.226  20.040  0.00  0.00    +0.000 OA
BRANCH  17  19
ATOM     19  O   UNL     1       5.001   2.003  19.726  0.00  0.00    +0.000 OA
ATOM     20  H   UNL     1       5.587   1.642  19.032  0.00  0.00    +0.000 HD
ENDBRANCH  17  19
ENDBRANCH  16  17
ENDBRANCH   3  16
TORSDOF 5
ENDMDL
MODEL 2
REMARK VINA RESULT:      -7.4      1.710      3.260
REMARK  Name = 
REMARK  6 active torsions:
REMARK  status: ('A' for Active; 'I' for Inactive)
REMARK    1  A    between atoms: C_1  and  O_2
REMARK    2  A    between atoms: O_2  and  C_3
REMARK    3  A    between atoms: C_5  and  C_6
REMARK    4  A    between atoms: C_6  and  C_7
REMARK    5  A    between atoms: C_7  and  O_9
REMARK    6  A    between atoms: C_11  and  C_12
REMARK                            x       y       z     vdW  Elec       q    Type
REMARK                         _______ _______ _______ _____ _____    ______ ____
ROOT
ATOM      1  C   UNL     1       3.122   4.125  17.546  0.00  0.00    +0.000 A 
ATOM      2  C   UNL     1       4.468   4.302  17.217  0.00  0.00    +0.000 A 
ATOM      3  C   UNL     1       5.071   5.561  17.313  0.00  0.00    +0.000 A 
ATOM      4  C   UNL     1       4.274   6.654  17.684  0.00  0.00    +0.000 A 
ATOM      5  C   UNL     1       2.934   6.503  18.093  0.00  0.00    +0.000 A 
ATOM      6  C   UNL     1       2.372   5.217  17.998  0.00  0.00    +0.000 A 
ENDROOT
BRANCH   5   7
ATOM      7  C   UNL     1       2.189   7.650  18.672  0.00  0.00    +0.000 A 
ATOM      8  C   UNL     1       1.854   7.715  20.034  0.00  0.00    +0.000 A 
ATOM      9  C   UNL     1       1.193   8.831  20.568  0.00  0.00    +0.000 A 
ATOM     10  C   UNL     1       0.846   9.895  19.741  0.00  0.00    +0.000 A 
ATOM     11 CL   UNL     1       0.035  11.264  20.396  0.00  0.00    +0.000 Cl
ATOM     12  C   UNL     1       1.156   9.858  18.390  0.00  0.00    +0.000 A 
ATOM     13  C   UNL     1       1.829   8.752  17.866  0.00  0.00    +0.000 A 
ENDBRANCH   5   7
BRANCH   1  15
ATOM     14  C   UNL     1       3.404   1.824  18.094  0.00  0.00    +0.000 C 
ATOM     15  O   UNL     1       2.670   2.839  17.418  0.00  0.00    +0.000 OA
ENDBRANCH   1  15
BRANCH   3  16
ATOM     16  C   UNL     1       6.540   5.728  16.995  0.00  0.00    +0.000 C 
BRANCH  16  17
ATOM     17  C   UNL     1       7.480   4.976  17.916  0.00  0.00    +0.000 C 
ATOM     18  O   UNL     1       7.588   5.203  19.112  0.00  0.00    +0.000 OA
BRANCH  17  19
ATOM     19  O   UNL     1       8.227   4.029  17.297  0.00  0.00    +0.000 OA
ATOM     20  H   UNL     1       8.760   3.490  17.913  0.00  0.00    +0.000 HD
ENDBRANCH  17  19
ENDBRANCH  16  17
ENDBRANCH   3  16
TORSDOF 5
ENDMDL
MODEL 3
REMARK VINA RESULT:      -7.4      1.762      3.157
REMARK  Name = 
REMARK  6 active torsions:
REMARK  status: ('A' for Active; 'I' for Inactive)
REMARK    1  A    between atoms: C_1  and  O_2
REMARK    2  A    between atoms: O_2  and  C_3
REMARK    3  A    between atoms: C_5  and  C_6
REMARK    4  A    between atoms: C_6  and  C_7
REMARK    5  A    between atoms: C_7  and  O_9
REMARK    6  A    between atoms: C_11  and  C_12
REMARK                            x       y       z     vdW  Elec       q    Type
REMARK                         _______ _______ _______ _____ _____    ______ ____
ROOT
ATOM      1  C   UNL     1       3.151   4.201  17.500  0.00  0.00    +0.000 A 
ATOM      2  C   UNL     1       4.503   4.374  17.198  0.00  0.00    +0.000 A 
ATOM      3  C   UNL     1       5.113   5.626  17.326  0.00  0.00    +0.000 A 
ATOM      4  C   UNL     1       4.316   6.718  17.702  0.00  0.00    +0.000 A 
ATOM      5  C   UNL     1       2.969   6.570  18.086  0.00  0.00    +0.000 A 
ATOM      6  C   UNL     1       2.401   5.289  17.958  0.00  0.00    +0.000 A 
ENDROOT
BRANCH   5   7
ATOM      7  C   UNL     1       2.222   7.712  18.671  0.00  0.00    +0.000 A 
ATOM      8  C   UNL     1       1.789   8.800  17.895  0.00  0.00    +0.000 A 
ATOM      9  C   UNL     1       1.043   9.845  18.458  0.00  0.00    +0.000 A 
ATOM     10  C   UNL     1       0.729   9.822  19.815  0.00  0.00    +0.000 A 
ATOM     11 CL   UNL     1      -0.186  11.104  20.507  0.00  0.00    +0.000 Cl
ATOM     12  C   UNL     1       1.149   8.766  20.609  0.00  0.00    +0.000 A 
ATOM     13  C   UNL     1       1.877   7.719  20.040  0.00  0.00    +0.000 A 
ENDBRANCH   5   7
BRANCH   1  15
ATOM     14  C   UNL     1       2.089   2.304  18.474  0.00  0.00    +0.000 C 
ATOM     15  O   UNL     1       2.693   2.920  17.342  0.00  0.00    +0.000 OA
ENDBRANCH   1  15
BRANCH   3  16
ATOM     16  C   UNL     1       6.588   5.788  17.036  0.00  0.00    +0.000 C 
BRANCH  16  17
ATOM     17  C   UNL     1       7.507   4.994  17.943  0.00  0.00    +0.000 C 
ATOM     18  O   UNL     1       7.632   5.206  19.140  0.00  0.00    +0.000 OA
BRANCH  17  19
ATOM     19  O   UNL     1       8.212   4.026  17.310  0.00  0.00    +0.000 OA
ATOM     20  H   UNL     1       9.088   3.857  17.710  0.00  0.00    +0.000 HD
ENDBRANCH  17  19
ENDBRANCH  16  17
ENDBRANCH   3  16
TORSDOF 5
ENDMDL
MODEL 4
REMARK VINA RESULT:      -7.3      1.325      3.669
REMARK  Name = 
REMARK  6 active torsions:
REMARK  status: ('A' for Active; 'I' for Inactive)
REMARK    1  A    between atoms: C_1  and  O_2
REMARK    2  A    between atoms: O_2  and  C_3
REMARK    3  A    between atoms: C_5  and  C_6
REMARK    4  A    between atoms: C_6  and  C_7
REMARK    5  A    between atoms: C_7  and  O_9
REMARK    6  A    between atoms: C_11  and  C_12
REMARK                            x       y       z     vdW  Elec       q    Type
REMARK                         _______ _______ _______ _____ _____    ______ ____
ROOT
ATOM      1  C   UNL     1       3.583   3.714  19.353  0.00  0.00    +0.000 A 
ATOM      2  C   UNL     1       4.494   3.567  18.305  0.00  0.00    +0.000 A 
ATOM      3  C   UNL     1       4.711   4.604  17.392  0.00  0.00    +0.000 A 
ATOM      4  C   UNL     1       3.941   5.770  17.515  0.00  0.00    +0.000 A 
ATOM      5  C   UNL     1       3.068   5.984  18.600  0.00  0.00    +0.000 A 
ATOM      6  C   UNL     1       2.893   4.922  19.505  0.00  0.00    +0.000 A 
ENDROOT
BRANCH   5   7
ATOM      7  C   UNL     1       2.429   7.310  18.803  0.00  0.00    +0.000 A 
ATOM      8  C   UNL     1       2.326   8.257  17.771  0.00  0.00    +0.000 A 
ATOM      9  C   UNL     1       1.676   9.483  17.971  0.00  0.00    +0.000 A 
ATOM     10  C   UNL     1       1.129   9.784  19.215  0.00  0.00    +0.000 A 
ATOM     11 CL   UNL     1       0.331  11.289  19.462  0.00  0.00    +0.000 Cl
ATOM     12  C   UNL     1       1.221   8.874  20.257  0.00  0.00    +0.000 A 
ATOM     13  C   UNL     1       1.855   7.647  20.048  0.00  0.00    +0.000 A 
ENDBRANCH   5   7
BRANCH   1  15
ATOM     14  C   UNL     1       2.640   2.749  21.317  0.00  0.00    +0.000 C 
ATOM     15  O   UNL     1       3.483   2.624  20.177  0.00  0.00    +0.000 OA
ENDBRANCH   1  15
BRANCH   3  16
ATOM     16  C   UNL     1       5.733   4.446  16.288  0.00  0.00    +0.000 C 
BRANCH  16  17
ATOM     17  C   UNL     1       7.115   4.970  16.620  0.00  0.00    +0.000 C 
ATOM     18  O   UNL     1       7.891   4.411  17.382  0.00  0.00    +0.000 OA
BRANCH  17  19
ATOM     19  O   UNL     1       7.425   6.143  16.017  0.00  0.00    +0.000 OA
ATOM     20  H   UNL     1       7.060   6.925  16.475  0.00  0.00    +0.000 HD
ENDBRANCH  17  19
ENDBRANCH  16  17
ENDBRANCH   3  16
TORSDOF 5
ENDMDL
MODEL 5
REMARK VINA RESULT:      -7.3      1.443      3.633
REMARK  Name = 
REMARK  6 active torsions:
REMARK  status: ('A' for Active; 'I' for Inactive)
REMARK    1  A    between atoms: C_1  and  O_2
REMARK    2  A    between atoms: O_2  and  C_3
REMARK    3  A    between atoms: C_5  and  C_6
REMARK    4  A    between atoms: C_6  and  C_7
REMARK    5  A    between atoms: C_7  and  O_9
REMARK    6  A    between atoms: C_11  and  C_12
REMARK                            x       y       z     vdW  Elec       q    Type
REMARK                         _______ _______ _______ _____ _____    ______ ____
ROOT
ATOM      1  C   UNL     1       2.605   3.769  17.637  0.00  0.00    +0.000 A 
ATOM      2  C   UNL     1       3.970   3.694  17.351  0.00  0.00    +0.000 A 
ATOM      3  C   UNL     1       4.780   4.833  17.412  0.00  0.00    +0.000 A 
ATOM      4  C   UNL     1       4.175   6.065  17.703  0.00  0.00    +0.000 A 
ATOM      5  C   UNL     1       2.818   6.168  18.068  0.00  0.00    +0.000 A 
ATOM      6  C   UNL     1       2.044   4.995  18.010  0.00  0.00    +0.000 A 
ENDROOT
BRANCH   5   7
ATOM      7  C   UNL     1       2.268   7.455  18.565  0.00  0.00    +0.000 A 
ATOM      8  C   UNL     1       2.067   8.559  17.722  0.00  0.00    +0.000 A 
ATOM      9  C   UNL     1       1.501   9.749  18.201  0.00  0.00    +0.000 A 
ATOM     10  C   UNL     1       1.138   9.854  19.542  0.00  0.00    +0.000 A 
ATOM     11 CL   UNL     1       0.444  11.314  20.132  0.00  0.00    +0.000 Cl
ATOM     12  C   UNL     1       1.331   8.785  20.402  0.00  0.00    +0.000 A 
ATOM     13  C   UNL     1       1.879   7.596  19.916  0.00  0.00    +0.000 A 
ENDBRANCH   5   7
BRANCH   1  15
ATOM     14  C   UNL     1       1.198   2.163  18.692  0.00  0.00    +0.000 C 
ATOM     15  O   UNL     1       1.940   2.575  17.550  0.00  0.00    +0.000 OA
ENDBRANCH   1  15
BRANCH   3  16
ATOM     16  C   UNL     1       6.264   4.728  17.142  0.00  0.00    +0.000 C 
BRANCH  16  17
ATOM     17  C   UNL     1       6.779   5.641  16.047  0.00  0.00    +0.000 C 
ATOM     18  O   UNL     1       6.505   5.507  14.863  0.00  0.00    +0.000 OA
BRANCH  17  19
ATOM     19  O   UNL     1       7.603   6.624  16.484  0.00  0.00    +0.000 OA
ATOM     20  H   UNL     1       8.545   6.362  16.503  0.00  0.00    +0.000 HD
ENDBRANCH  17  19
ENDBRANCH  16  17
ENDBRANCH   3  16
TORSDOF 5
ENDMDL
MODEL 6
REMARK VINA RESULT:      -7.2      0.906      1.243
REMARK  Name = 
REMARK  6 active torsions:
REMARK  status: ('A' for Active; 'I' for Inactive)
REMARK    1  A    between atoms: C_1  and  O_2
REMARK    2  A    between atoms: O_2  and  C_3
REMARK    3  A    between atoms: C_5  and  C_6
REMARK    4  A    between atoms: C_6  and  C_7
REMARK    5  A    between atoms: C_7  and  O_9
REMARK    6  A    between atoms: C_11  and  C_12
REMARK                            x       y       z     vdW  Elec       q    Type
REMARK                         _______ _______ _______ _____ _____    ______ ____
ROOT
ATOM      1  C   UNL     1       5.020   5.754  16.655  0.00  0.00    +0.000 A 
ATOM      2  C   UNL     1       4.503   4.457  16.697  0.00  0.00    +0.000 A 
ATOM      3  C   UNL     1       3.325   4.177  17.397  0.00  0.00    +0.000 A 
ATOM      4  C   UNL     1       2.712   5.217  18.112  0.00  0.00    +0.000 A 
ATOM      5  C   UNL     1       3.162   6.550  18.034  0.00  0.00    +0.000 A 
ATOM      6  C   UNL     1       4.340   6.790  17.304  0.00  0.00    +0.000 A 
ENDROOT
BRANCH   5   7
ATOM      7  C   UNL     1       2.368   7.650  18.639  0.00  0.00    +0.000 A 
ATOM      8  C   UNL     1       1.900   8.738  17.884  0.00  0.00    +0.000 A 
ATOM      9  C   UNL     1       1.110   9.741  18.465  0.00  0.00    +0.000 A 
ATOM     10  C   UNL     1       0.788   9.674  19.818  0.00  0.00    +0.000 A 
ATOM     11 CL   UNL     1      -0.180  10.905  20.532  0.00  0.00    +0.000 Cl
ATOM     12  C   UNL     1       1.241   8.617  20.592  0.00  0.00    +0.000 A 
ATOM     13  C   UNL     1       2.014   7.612  20.005  0.00  0.00    +0.000 A 
ENDBRANCH   5   7
BRANCH   1  15
ATOM     14  C   UNL     1       6.900   4.693  15.646  0.00  0.00    +0.000 C 
ATOM     15  O   UNL     1       6.170   5.884  15.923  0.00  0.00    +0.000 OA
ENDBRANCH   1  15
BRANCH   3  16
ATOM     16  C   UNL     1       2.753   2.777  17.397  0.00  0.00    +0.000 C 
BRANCH  16  17
ATOM     17  C   UNL     1       1.953   2.415  18.632  0.00  0.00    +0.000 C 
ATOM     18  O   UNL     1       2.451   2.205  19.728  0.00  0.00    +0.000 OA
BRANCH  17  19
ATOM     19  O   UNL     1       0.619   2.315  18.421  0.00  0.00    +0.000 OA
ATOM     20  H   UNL     1       0.379   1.636  17.760  0.00  0.00    +0.000 HD
ENDBRANCH  17  19
ENDBRANCH  16  17
ENDBRANCH   3  16
TORSDOF 5
ENDMDL
MODEL 7
REMARK VINA RESULT:      -7.2      1.583      3.549
REMARK  Name = 
REMARK  6 active torsions:
REMARK  status: ('A' for Active; 'I' for Inactive)
REMARK    1  A    between atoms: C_1  and  O_2
REMARK    2  A    between atoms: O_2  and  C_3
REMARK    3  A    between atoms: C_5  and  C_6
REMARK    4  A    between atoms: C_6  and  C_7
REMARK    5  A    between atoms: C_7  and  O_9
REMARK    6  A    between atoms: C_11  and  C_12
REMARK                            x       y       z     vdW  Elec       q    Type
REMARK                         _______ _______ _______ _____ _____    ______ ____
ROOT
ATOM      1  C   UNL     1       3.384   3.984  17.492  0.00  0.00    +0.000 A 
ATOM      2  C   UNL     1       4.684   4.209  17.036  0.00  0.00    +0.000 A 
ATOM      3  C   UNL     1       5.231   5.496  17.032  0.00  0.00    +0.000 A 
ATOM      4  C   UNL     1       4.419   6.566  17.437  0.00  0.00    +0.000 A 
ATOM      5  C   UNL     1       3.130   6.370  17.973  0.00  0.00    +0.000 A 
ATOM      6  C   UNL     1       2.625   5.058  17.974  0.00  0.00    +0.000 A 
ENDROOT
BRANCH   5   7
ATOM      7  C   UNL     1       2.386   7.505  18.577  0.00  0.00    +0.000 A 
ATOM      8  C   UNL     1       1.981   8.619  17.825  0.00  0.00    +0.000 A 
ATOM      9  C   UNL     1       1.236   9.657  18.404  0.00  0.00    +0.000 A 
ATOM     10  C   UNL     1       0.897   9.599  19.754  0.00  0.00    +0.000 A 
ATOM     11 CL   UNL     1      -0.016  10.872  20.466  0.00  0.00    +0.000 Cl
ATOM     12  C   UNL     1       1.289   8.515  20.525  0.00  0.00    +0.000 A 
ATOM     13  C   UNL     1       2.016   7.477  19.939  0.00  0.00    +0.000 A 
ENDBRANCH   5   7
BRANCH   1  15
ATOM     14  C   UNL     1       2.295   2.172  18.589  0.00  0.00    +0.000 C 
ATOM     15  O   UNL     1       2.985   2.675  17.451  0.00  0.00    +0.000 OA
ENDBRANCH   1  15
BRANCH   3  16
ATOM     16  C   UNL     1       6.656   5.717  16.575  0.00  0.00    +0.000 C 
BRANCH  16  17
ATOM     17  C   UNL     1       7.459   6.676  17.432  0.00  0.00    +0.000 C 
ATOM     18  O   UNL     1       7.783   7.799  17.075  0.00  0.00    +0.000 OA
BRANCH  17  19
ATOM     19  O   UNL     1       7.818   6.176  18.638  0.00  0.00    +0.000 OA
ATOM     20  H   UNL     1       7.790   5.200  18.680  0.00  0.00    +0.000 HD
ENDBRANCH  17  19
ENDBRANCH  16  17
ENDBRANCH   3  16
TORSDOF 5
ENDMDL
MODEL 8
REMARK VINA RESULT:      -7.2      1.275      3.623
REMARK  Name = 
REMARK  6 active torsions:
REMARK  status: ('A' for Active; 'I' for Inactive)
REMARK    1  A    between atoms: C_1  and  O_2
REMARK    2  A    between atoms: O_2  and  C_3
REMARK    3  A    between atoms: C_5  and  C_6
REMARK    4  A    between atoms: C_6  and  C_7
REMARK    5  A    between atoms: C_7  and  O_9
REMARK    6  A    between atoms: C_11  and  C_12
REMARK                            x       y       z     vdW  Elec       q    Type
REMARK                         _______ _______ _______ _____ _____    ______ ____
ROOT
ATOM      1  C   UNL     1       3.091   3.456  17.750  0.00  0.00    +0.000 A 
ATOM      2  C   UNL     1       4.430   3.445  17.354  0.00  0.00    +0.000 A 
ATOM      3  C   UNL     1       5.161   4.634  17.265  0.00  0.00    +0.000 A 
ATOM      4  C   UNL     1       4.499   5.844  17.519  0.00  0.00    +0.000 A 
ATOM      5  C   UNL     1       3.172   5.890  17.991  0.00  0.00    +0.000 A 
ATOM      6  C   UNL     1       2.479   4.670  18.083  0.00  0.00    +0.000 A 
ENDROOT
BRANCH   5   7
ATOM      7  C   UNL     1       2.577   7.174  18.442  0.00  0.00    +0.000 A 
ATOM      8  C   UNL     1       2.471   8.288  17.594  0.00  0.00    +0.000 A 
ATOM      9  C   UNL     1       1.862   9.476  18.024  0.00  0.00    +0.000 A 
ATOM     10  C   UNL     1       1.359   9.568  19.320  0.00  0.00    +0.000 A 
ATOM     11 CL   UNL     1       0.611  11.025  19.849  0.00  0.00    +0.000 Cl
ATOM     12  C   UNL     1       1.455   8.488  20.184  0.00  0.00    +0.000 A 
ATOM     13  C   UNL     1       2.048   7.302  19.744  0.00  0.00    +0.000 A 
ENDBRANCH   5   7
BRANCH   1  15
ATOM     14  C   UNL     1       1.404   2.064  18.695  0.00  0.00    +0.000 C 
ATOM     15  O   UNL     1       2.504   2.220  17.805  0.00  0.00    +0.000 OA
ENDBRANCH   1  15
BRANCH   3  16
ATOM     16  C   UNL     1       6.623   4.601  16.876  0.00  0.00    +0.000 C 
BRANCH  16  17
ATOM     17  C   UNL     1       6.886   4.599  15.384  0.00  0.00    +0.000 C 
ATOM     18  O   UNL     1       7.532   5.460  14.804  0.00  0.00    +0.000 OA
BRANCH  17  19
ATOM     19  O   UNL     1       6.319   3.562  14.721  0.00  0.00    +0.000 OA
ATOM     20  H   UNL     1       6.059   3.781  13.805  0.00  0.00    +0.000 HD
ENDBRANCH  17  19
ENDBRANCH  16  17
ENDBRANCH   3  16
TORSDOF 5
ENDMDL
MODEL 9
REMARK VINA RESULT:      -7.1      1.230      3.793
REMARK  Name = 
REMARK  6 active torsions:
REMARK  status: ('A' for Active; 'I' for Inactive)
REMARK    1  A    between atoms: C_1  and  O_2
REMARK    2  A    between atoms: O_2  and  C_3
REMARK    3  A    between atoms: C_5  and  C_6
REMARK    4  A    between atoms: C_6  and  C_7
REMARK    5  A    between atoms: C_7  and  O_9
REMARK    6  A    between atoms: C_11  and  C_12
REMARK                            x       y       z     vdW  Elec       q    Type
REMARK                         _______ _______ _______ _____ _____    ______ ____
ROOT
ATOM      1  C   UNL     1       3.885   4.127  19.153  0.00  0.00    +0.000 A 
ATOM      2  C   UNL     1       4.708   4.129  18.025  0.00  0.00    +0.000 A 
ATOM      3  C   UNL     1       4.719   5.216  17.146  0.00  0.00    +0.000 A 
ATOM      4  C   UNL     1       3.834   6.277  17.389  0.00  0.00    +0.000 A 
ATOM      5  C   UNL     1       3.044   6.346  18.553  0.00  0.00    +0.000 A 
ATOM      6  C   UNL     1       3.077   5.238  19.420  0.00  0.00    +0.000 A 
ENDROOT
BRANCH   5   7
ATOM      7  C   UNL     1       2.277   7.577  18.872  0.00  0.00    +0.000 A 
ATOM      8  C   UNL     1       1.765   7.829  20.155  0.00  0.00    +0.000 A 
ATOM      9  C   UNL     1       1.086   9.020  20.447  0.00  0.00    +0.000 A 
ATOM     10  C   UNL     1       0.897   9.974  19.450  0.00  0.00    +0.000 A 
ATOM     11 CL   UNL     1       0.063  11.437  19.807  0.00  0.00    +0.000 Cl
ATOM     12  C   UNL     1       1.384   9.752  18.171  0.00  0.00    +0.000 A 
ATOM     13  C   UNL     1       2.074   8.571  17.890  0.00  0.00    +0.000 A 
ENDBRANCH   5   7
BRANCH   1  15
ATOM     14  C   UNL     1       2.921   2.744  20.836  0.00  0.00    +0.000 C 
ATOM     15  O   UNL     1       3.988   3.005  19.931  0.00  0.00    +0.000 OA
ENDBRANCH   1  15
BRANCH   3  16
ATOM     16  C   UNL     1       5.648   5.221  15.952  0.00  0.00    +0.000 C 
BRANCH  16  17
ATOM     17  C   UNL     1       7.119   5.361  16.290  0.00  0.00    +0.000 C 
ATOM     18  O   UNL     1       7.868   4.413  16.474  0.00  0.00    +0.000 OA
BRANCH  17  19
ATOM     19  O   UNL     1       7.545   6.642  16.400  0.00  0.00    +0.000 OA
ATOM     20  H   UNL     1       8.141   6.917  15.676  0.00  0.00    +0.000 HD
ENDBRANCH  17  19
ENDBRANCH  16  17
ENDBRANCH   3  16
TORSDOF 5
ENDMDL
