MODEL 1
REMARK VINA RESULT:      -8.5      0.000      0.000
REMARK  Name = 
REMARK  5 active torsions:
REMARK  status: ('A' for Active; 'I' for Inactive)
REMARK    1  A    between atoms: C_4  and  C_5
REMARK    2  A    between atoms: C_5  and  C_6
REMARK    3  A    between atoms: C_6  and  C_7
REMARK    4  A    between atoms: C_7  and  N_8
REMARK    5  A    between atoms: C_11  and  C_12
REMARK                            x       y       z     vdW  Elec       q    Type
REMARK                         _______ _______ _______ _____ _____    ______ ____
ROOT
ATOM      1  C   UNL     1       5.259   6.515  18.015  0.00  0.00    +0.000 C 
ENDROOT
BRANCH   1   2
ATOM      2  C   UNL     1       5.842   5.186  17.521  0.00  0.00    +0.000 C 
BRANCH   2   6
ATOM      3  O   UNL     1       5.139   1.988  20.893  0.00  0.00    +0.000 OA
ATOM      4  C   UNL     1       4.678   2.718  20.025  0.00  0.00    +0.000 C 
ATOM      5  N   UNL     1       5.465   3.392  19.125  0.00  0.00    +0.000 N 
ATOM      6  C   UNL     1       4.944   4.094  18.068  0.00  0.00    +0.000 C 
ATOM      7  N   UNL     1       3.726   3.953  17.656  0.00  0.00    +0.000 NA
ATOM      8  C   UNL     1       2.911   2.953  18.387  0.00  0.00    +0.000 C 
ATOM      9  C   UNL     1       1.422   3.191  18.069  0.00  0.00    +0.000 C 
ATOM     10  C   UNL     1       0.428   2.683  19.125  0.00  0.00    +0.000 C 
ATOM     11  C   UNL     1       0.884   2.936  20.557  0.00  0.00    +0.000 C 
ATOM     12  C   UNL     1       2.265   2.325  20.763  0.00  0.00    +0.000 C 
ATOM     13  C   UNL     1       3.227   3.089  19.874  0.00  0.00    +0.000 C 
ATOM     14  H   UNL     1       6.463   3.355  19.297  0.00  0.00    +0.000 HD
ENDBRANCH   2   6
ENDBRANCH   1   2
BRANCH   1  15
ATOM     15  C   UNL     1       4.078   7.060  17.203  0.00  0.00    +0.000 C 
BRANCH  15  16
ATOM     16  N   UNL     1       3.144   7.676  18.146  0.00  0.00    +0.000 NA
ATOM     17  C   UNL     1       2.590   6.740  19.137  0.00  0.00    +0.000 C 
ATOM     18  C   UNL     1       1.766   7.462  20.165  0.00  0.00    +0.000 C 
ATOM     19  C   UNL     1       1.276   8.695  19.944  0.00  0.00    +0.000 C 
ATOM     20  C   UNL     1       1.451   9.383  18.612  0.00  0.00    +0.000 C 
ATOM     21  C   UNL     1       2.063   8.456  17.539  0.00  0.00    +0.000 C 
BRANCH  19  22
ATOM     22  C   UNL     1       0.601   9.442  21.005  0.00  0.00    +0.000 A 
ATOM     23  C   UNL     1       0.071  10.712  20.735  0.00  0.00    +0.000 A 
ATOM     24  C   UNL     1      -0.601  11.423  21.729  0.00  0.00    +0.000 A 
ATOM     25  C   UNL     1      -0.738  10.874  23.005  0.00  0.00    +0.000 A 
ATOM     26  C   UNL     1      -0.201   9.617  23.283  0.00  0.00    +0.000 A 
ATOM     27  C   UNL     1       0.470   8.904  22.286  0.00  0.00    +0.000 A 
ENDBRANCH  19  22
ENDBRANCH  15  16
ENDBRANCH   1  15
TORSDOF 5
ENDMDL
MODEL 2
REMARK VINA RESULT:      -8.3      0.482      1.053
REMARK  Name = 
REMARK  5 active torsions:
REMARK  status: ('A' for Active; 'I' for Inactive)
REMARK    1  A    between atoms: C_4  and  C_5
REMARK    2  A    between atoms: C_5  and  C_6
REMARK    3  A    between atoms: C_6  and  C_7
REMARK    4  A    between atoms: C_7  and  N_8
REMARK    5  A    between atoms: C_11  and  C_12
REMARK                            x       y       z     vdW  Elec       q    Type
REMARK                         _______ _______ _______ _____ _____    ______ ____
ROOT
ATOM      1  C   UNL     1       5.072   6.348  17.658  0.00  0.00    +0.000 C 
ENDROOT
BRANCH   1   2
ATOM      2  C   UNL     1       5.136   5.039  16.864  0.00  0.00    +0.000 C 
BRANCH   2   6
ATOM      3  O   UNL     1       5.233   2.035  20.478  0.00  0.00    +0.000 OA
ATOM      4  C   UNL     1       4.585   2.738  19.712  0.00  0.00    +0.000 C 
ATOM      5  N   UNL     1       5.135   3.340  18.609  0.00  0.00    +0.000 N 
ATOM      6  C   UNL     1       4.381   4.006  17.677  0.00  0.00    +0.000 C 
ATOM      7  N   UNL     1       3.096   3.887  17.590  0.00  0.00    +0.000 NA
ATOM      8  C   UNL     1       2.469   2.953  18.556  0.00  0.00    +0.000 C 
ATOM      9  C   UNL     1       0.953   3.225  18.605  0.00  0.00    +0.000 C 
ATOM     10  C   UNL     1       0.245   2.805  19.902  0.00  0.00    +0.000 C 
ATOM     11  C   UNL     1       1.050   3.111  21.160  0.00  0.00    +0.000 C 
ATOM     12  C   UNL     1       2.426   2.465  21.049  0.00  0.00    +0.000 C 
ATOM     13  C   UNL     1       3.150   3.150  19.908  0.00  0.00    +0.000 C 
ATOM     14  H   UNL     1       6.144   3.277  18.529  0.00  0.00    +0.000 HD
ENDBRANCH   2   6
ENDBRANCH   1   2
BRANCH   1  15
ATOM     15  C   UNL     1       4.278   7.482  16.998  0.00  0.00    +0.000 C 
BRANCH  15  16
ATOM     16  N   UNL     1       3.289   7.949  17.970  0.00  0.00    +0.000 NA
ATOM     17  C   UNL     1       2.947   6.955  19.000  0.00  0.00    +0.000 C 
ATOM     18  C   UNL     1       2.050   7.547  20.050  0.00  0.00    +0.000 C 
ATOM     19  C   UNL     1       1.344   8.670  19.830  0.00  0.00    +0.000 C 
ATOM     20  C   UNL     1       1.343   9.346  18.480  0.00  0.00    +0.000 C 
ATOM     21  C   UNL     1       2.064   8.514  17.397  0.00  0.00    +0.000 C 
BRANCH  19  22
ATOM     22  C   UNL     1       0.592   9.314  20.907  0.00  0.00    +0.000 A 
ATOM     23  C   UNL     1       0.681   8.815  22.214  0.00  0.00    +0.000 A 
ATOM     24  C   UNL     1      -0.008   9.437  23.255  0.00  0.00    +0.000 A 
ATOM     25  C   UNL     1      -0.800  10.555  22.995  0.00  0.00    +0.000 A 
ATOM     26  C   UNL     1      -0.903  11.048  21.694  0.00  0.00    +0.000 A 
ATOM     27  C   UNL     1      -0.211  10.426  20.652  0.00  0.00    +0.000 A 
ENDBRANCH  19  22
ENDBRANCH  15  16
ENDBRANCH   1  15
TORSDOF 5
ENDMDL
MODEL 3
REMARK VINA RESULT:      -8.1      3.175      8.506
REMARK  Name = 
REMARK  5 active torsions:
REMARK  status: ('A' for Active; 'I' for Inactive)
REMARK    1  A    between atoms: C_4  and  C_5
REMARK    2  A    between atoms: C_5  and  C_6
REMARK    3  A    between atoms: C_6  and  C_7
REMARK    4  A    between atoms: C_7  and  N_8
REMARK    5  A    between atoms: C_11  and  C_12
REMARK                            x       y       z     vdW  Elec       q    Type
REMARK                         _______ _______ _______ _____ _____    ______ ____
ROOT
ATOM      1  C   UNL     1       2.656   5.521  19.411  0.00  0.00    +0.000 C 
ENDROOT
BRANCH   1   2
ATOM      2  C   UNL     1       1.893   6.095  20.610  0.00  0.00    +0.000 C 
BRANCH   2   6
ATOM      3  O   UNL     1       2.000   9.571  17.448  0.00  0.00    +0.000 OA
ATOM      4  C   UNL     1       1.602   9.140  18.524  0.00  0.00    +0.000 C 
ATOM      5  N   UNL     1       2.084   7.985  19.086  0.00  0.00    +0.000 N 
ATOM      6  C   UNL     1       1.743   7.581  20.352  0.00  0.00    +0.000 C 
ATOM      7  N   UNL     1       1.190   8.364  21.220  0.00  0.00    +0.000 NA
ATOM      8  C   UNL     1       0.961   9.760  20.774  0.00  0.00    +0.000 C 
ATOM      9  C   UNL     1      -0.045  10.432  21.729  0.00  0.00    +0.000 C 
ATOM     10  C   UNL     1      -0.833  11.611  21.139  0.00  0.00    +0.000 C 
ATOM     11  C   UNL     1      -1.282  11.382  19.699  0.00  0.00    +0.000 C 
ATOM     12  C   UNL     1      -0.070  11.044  18.840  0.00  0.00    +0.000 C 
ATOM     13  C   UNL     1       0.469   9.715  19.330  0.00  0.00    +0.000 C 
ATOM     14  H   UNL     1       2.700   7.433  18.501  0.00  0.00    +0.000 HD
ENDBRANCH   2   6
ENDBRANCH   1   2
BRANCH   1  15
ATOM     15  C   UNL     1       4.152   5.274  19.639  0.00  0.00    +0.000 C 
BRANCH  15  16
ATOM     16  N   UNL     1       4.758   5.017  18.332  0.00  0.00    +0.000 NA
ATOM     17  C   UNL     1       4.148   3.895  17.600  0.00  0.00    +0.000 C 
ATOM     18  C   UNL     1       4.708   3.784  16.210  0.00  0.00    +0.000 C 
ATOM     19  C   UNL     1       5.877   4.353  15.868  0.00  0.00    +0.000 C 
ATOM     20  C   UNL     1       6.737   5.057  16.890  0.00  0.00    +0.000 C 
ATOM     21  C   UNL     1       6.216   4.876  18.332  0.00  0.00    +0.000 C 
BRANCH  19  22
ATOM     22  C   UNL     1       6.337   4.361  14.480  0.00  0.00    +0.000 A 
ATOM     23  C   UNL     1       7.408   5.184  14.105  0.00  0.00    +0.000 A 
ATOM     24  C   UNL     1       7.876   5.180  12.791  0.00  0.00    +0.000 A 
ATOM     25  C   UNL     1       7.269   4.360  11.839  0.00  0.00    +0.000 A 
ATOM     26  C   UNL     1       6.194   3.549  12.204  0.00  0.00    +0.000 A 
ATOM     27  C   UNL     1       5.727   3.552  13.520  0.00  0.00    +0.000 A 
ENDBRANCH  19  22
ENDBRANCH  15  16
ENDBRANCH   1  15
TORSDOF 5
ENDMDL
MODEL 4
REMARK VINA RESULT:      -8.1      5.524      8.849
REMARK  Name = 
REMARK  5 active torsions:
REMARK  status: ('A' for Active; 'I' for Inactive)
REMARK    1  A    between atoms: C_4  and  C_5
REMARK    2  A    between atoms: C_5  and  C_6
REMARK    3  A    between atoms: C_6  and  C_7
REMARK    4  A    between atoms: C_7  and  N_8
REMARK    5  A    between atoms: C_11  and  C_12
REMARK                            x       y       z     vdW  Elec       q    Type
REMARK                         _______ _______ _______ _____ _____    ______ ____
ROOT
ATOM      1  C   UNL     1       7.599   8.305  17.610  0.00  0.00    +0.000 C 
ENDROOT
BRANCH   1   2
ATOM      2  C   UNL     1       8.641   8.383  18.731  0.00  0.00    +0.000 C 
BRANCH   2   6
ATOM      3  O   UNL     1       9.558  11.859  21.761  0.00  0.00    +0.000 OA
ATOM      4  C   UNL     1       9.653  11.397  20.630  0.00  0.00    +0.000 C 
ATOM      5  N   UNL     1       8.964  10.283  20.221  0.00  0.00    +0.000 N 
ATOM      6  C   UNL     1       8.961   9.853  18.918  0.00  0.00    +0.000 C 
ATOM      7  N   UNL     1       9.348  10.590  17.928  0.00  0.00    +0.000 NA
ATOM      8  C   UNL     1       9.782  11.964  18.280  0.00  0.00    +0.000 C 
ATOM      9  C   UNL     1      10.579  12.555  17.100  0.00  0.00    +0.000 C 
ATOM     10  C   UNL     1      11.572  13.669  17.463  0.00  0.00    +0.000 C 
ATOM     11  C   UNL     1      12.333  13.406  18.757  0.00  0.00    +0.000 C 
ATOM     12  C   UNL     1      11.340  13.165  19.888  0.00  0.00    +0.000 C 
ATOM     13  C   UNL     1      10.601  11.882  19.565  0.00  0.00    +0.000 C 
ATOM     14  H   UNL     1       8.466   9.781  20.946  0.00  0.00    +0.000 HD
ENDBRANCH   2   6
ENDBRANCH   1   2
BRANCH   1  15
ATOM     15  C   UNL     1       7.458   6.935  16.935  0.00  0.00    +0.000 C 
BRANCH  15  16
ATOM     16  N   UNL     1       6.289   6.277  17.519  0.00  0.00    +0.000 NA
ATOM     17  C   UNL     1       5.046   7.057  17.408  0.00  0.00    +0.000 C 
ATOM     18  C   UNL     1       3.862   6.263  17.883  0.00  0.00    +0.000 C 
ATOM     19  C   UNL     1       4.001   5.186  18.675  0.00  0.00    +0.000 C 
ATOM     20  C   UNL     1       5.352   4.770  19.207  0.00  0.00    +0.000 C 
ATOM     21  C   UNL     1       6.458   5.802  18.894  0.00  0.00    +0.000 C 
BRANCH  19  22
ATOM     22  C   UNL     1       2.856   4.340  19.010  0.00  0.00    +0.000 A 
ATOM     23  C   UNL     1       2.190   4.519  20.231  0.00  0.00    +0.000 A 
ATOM     24  C   UNL     1       1.078   3.740  20.550  0.00  0.00    +0.000 A 
ATOM     25  C   UNL     1       0.631   2.767  19.656  0.00  0.00    +0.000 A 
ATOM     26  C   UNL     1       1.299   2.575  18.445  0.00  0.00    +0.000 A 
ATOM     27  C   UNL     1       2.410   3.358  18.125  0.00  0.00    +0.000 A 
ENDBRANCH  19  22
ENDBRANCH  15  16
ENDBRANCH   1  15
TORSDOF 5
ENDMDL
MODEL 5
REMARK VINA RESULT:      -8.1      6.259      9.447
REMARK  Name = 
REMARK  5 active torsions:
REMARK  status: ('A' for Active; 'I' for Inactive)
REMARK    1  A    between atoms: C_4  and  C_5
REMARK    2  A    between atoms: C_5  and  C_6
REMARK    3  A    between atoms: C_6  and  C_7
REMARK    4  A    between atoms: C_7  and  N_8
REMARK    5  A    between atoms: C_11  and  C_12
REMARK                            x       y       z     vdW  Elec       q    Type
REMARK                         _______ _______ _______ _____ _____    ______ ____
ROOT
ATOM      1  C   UNL     1       7.888   9.093  17.855  0.00  0.00    +0.000 C 
ENDROOT
BRANCH   1   2
ATOM      2  C   UNL     1       9.015   9.732  18.674  0.00  0.00    +0.000 C 
BRANCH   2   6
ATOM      3  O   UNL     1       7.324  13.930  17.407  0.00  0.00    +0.000 OA
ATOM      4  C   UNL     1       8.283  13.232  17.711  0.00  0.00    +0.000 C 
ATOM      5  N   UNL     1       8.200  11.867  17.833  0.00  0.00    +0.000 N 
ATOM      6  C   UNL     1       9.302  11.076  18.033  0.00  0.00    +0.000 C 
ATOM      7  N   UNL     1      10.513  11.485  17.839  0.00  0.00    +0.000 NA
ATOM      8  C   UNL     1      10.651  12.880  17.355  0.00  0.00    +0.000 C 
ATOM      9  C   UNL     1      12.106  13.342  17.565  0.00  0.00    +0.000 C 
ATOM     10  C   UNL     1      12.311  14.860  17.681  0.00  0.00    +0.000 C 
ATOM     11  C   UNL     1      11.232  15.556  18.504  0.00  0.00    +0.000 C 
ATOM     12  C   UNL     1       9.862  15.227  17.922  0.00  0.00    +0.000 C 
ATOM     13  C   UNL     1       9.642  13.740  18.111  0.00  0.00    +0.000 C 
ATOM     14  H   UNL     1       7.267  11.476  17.782  0.00  0.00    +0.000 HD
ENDBRANCH   2   6
ENDBRANCH   1   2
BRANCH   1  15
ATOM     15  C   UNL     1       8.085   7.613  17.504  0.00  0.00    +0.000 C 
BRANCH  15  16
ATOM     16  N   UNL     1       6.872   6.901  17.907  0.00  0.00    +0.000 NA
ATOM     17  C   UNL     1       7.126   5.590  18.526  0.00  0.00    +0.000 C 
ATOM     18  C   UNL     1       5.857   4.984  19.056  0.00  0.00    +0.000 C 
ATOM     19  C   UNL     1       4.647   5.391  18.635  0.00  0.00    +0.000 C 
ATOM     20  C   UNL     1       4.500   6.417  17.537  0.00  0.00    +0.000 C 
ATOM     21  C   UNL     1       5.847   6.770  16.869  0.00  0.00    +0.000 C 
BRANCH  19  22
ATOM     22  C   UNL     1       3.422   4.897  19.263  0.00  0.00    +0.000 A 
ATOM     23  C   UNL     1       2.621   5.770  20.012  0.00  0.00    +0.000 A 
ATOM     24  C   UNL     1       1.435   5.319  20.592  0.00  0.00    +0.000 A 
ATOM     25  C   UNL     1       1.047   3.988  20.436  0.00  0.00    +0.000 A 
ATOM     26  C   UNL     1       1.847   3.111  19.702  0.00  0.00    +0.000 A 
ATOM     27  C   UNL     1       3.033   3.564  19.119  0.00  0.00    +0.000 A 
ENDBRANCH  19  22
ENDBRANCH  15  16
ENDBRANCH   1  15
TORSDOF 5
ENDMDL
MODEL 6
REMARK VINA RESULT:      -8.0      3.238      8.526
REMARK  Name = 
REMARK  5 active torsions:
REMARK  status: ('A' for Active; 'I' for Inactive)
REMARK    1  A    between atoms: C_4  and  C_5
REMARK    2  A    between atoms: C_5  and  C_6
REMARK    3  A    between atoms: C_6  and  C_7
REMARK    4  A    between atoms: C_7  and  N_8
REMARK    5  A    between atoms: C_11  and  C_12
REMARK                            x       y       z     vdW  Elec       q    Type
REMARK                         _______ _______ _______ _____ _____    ______ ____
ROOT
ATOM      1  C   UNL     1       2.443   5.795  19.442  0.00  0.00    +0.000 C 
ENDROOT
BRANCH   1   2
ATOM      2  C   UNL     1       1.862   6.429  20.711  0.00  0.00    +0.000 C 
BRANCH   2   6
ATOM      3  O   UNL     1       2.001   9.819  17.457  0.00  0.00    +0.000 OA
ATOM      4  C   UNL     1       1.543   9.389  18.509  0.00  0.00    +0.000 C 
ATOM      5  N   UNL     1       2.053   8.287  19.147  0.00  0.00    +0.000 N 
ATOM      6  C   UNL     1       1.632   7.894  20.392  0.00  0.00    +0.000 C 
ATOM      7  N   UNL     1       0.955   8.658  21.185  0.00  0.00    +0.000 NA
ATOM      8  C   UNL     1       0.670  10.022  20.677  0.00  0.00    +0.000 C 
ATOM      9  C   UNL     1      -0.458  10.646  21.521  0.00  0.00    +0.000 C 
ATOM     10  C   UNL     1      -1.272  11.750  20.829  0.00  0.00    +0.000 C 
ATOM     11  C   UNL     1      -1.578  11.451  19.366  0.00  0.00    +0.000 C 
ATOM     12  C   UNL     1      -0.277  11.178  18.622  0.00  0.00    +0.000 C 
ATOM     13  C   UNL     1       0.307   9.904  19.199  0.00  0.00    +0.000 C 
ATOM     14  H   UNL     1       2.753   7.765  18.634  0.00  0.00    +0.000 HD
ENDBRANCH   2   6
ENDBRANCH   1   2
BRANCH   1  15
ATOM     15  C   UNL     1       3.896   5.316  19.551  0.00  0.00    +0.000 C 
BRANCH  15  16
ATOM     16  N   UNL     1       4.391   5.106  18.190  0.00  0.00    +0.000 NA
ATOM     17  C   UNL     1       4.414   6.326  17.368  0.00  0.00    +0.000 C 
ATOM     18  C   UNL     1       5.075   6.076  16.042  0.00  0.00    +0.000 C 
ATOM     19  C   UNL     1       5.222   4.835  15.545  0.00  0.00    +0.000 C 
ATOM     20  C   UNL     1       4.645   3.632  16.251  0.00  0.00    +0.000 C 
ATOM     21  C   UNL     1       3.750   4.018  17.449  0.00  0.00    +0.000 C 
BRANCH  19  22
ATOM     22  C   UNL     1       5.995   4.595  14.326  0.00  0.00    +0.000 A 
ATOM     23  C   UNL     1       5.528   3.677  13.375  0.00  0.00    +0.000 A 
ATOM     24  C   UNL     1       6.240   3.460  12.195  0.00  0.00    +0.000 A 
ATOM     25  C   UNL     1       7.429   4.152  11.963  0.00  0.00    +0.000 A 
ATOM     26  C   UNL     1       7.904   5.057  12.912  0.00  0.00    +0.000 A 
ATOM     27  C   UNL     1       7.190   5.276  14.093  0.00  0.00    +0.000 A 
ENDBRANCH  19  22
ENDBRANCH  15  16
ENDBRANCH   1  15
TORSDOF 5
ENDMDL
MODEL 7
REMARK VINA RESULT:      -8.0      6.210      9.397
REMARK  Name = 
REMARK  5 active torsions:
REMARK  status: ('A' for Active; 'I' for Inactive)
REMARK    1  A    between atoms: C_4  and  C_5
REMARK    2  A    between atoms: C_5  and  C_6
REMARK    3  A    between atoms: C_6  and  C_7
REMARK    4  A    between atoms: C_7  and  N_8
REMARK    5  A    between atoms: C_11  and  C_12
REMARK                            x       y       z     vdW  Elec       q    Type
REMARK                         _______ _______ _______ _____ _____    ______ ____
ROOT
ATOM      1  C   UNL     1       7.810   9.129  17.881  0.00  0.00    +0.000 C 
ENDROOT
BRANCH   1   2
ATOM      2  C   UNL     1       8.952   9.477  18.843  0.00  0.00    +0.000 C 
BRANCH   2   6
ATOM      3  O   UNL     1       7.761  13.800  17.431  0.00  0.00    +0.000 OA
ATOM      4  C   UNL     1       8.562  13.059  17.988  0.00  0.00    +0.000 C 
ATOM      5  N   UNL     1       8.457  11.691  17.957  0.00  0.00    +0.000 N 
ATOM      6  C   UNL     1       9.429  10.864  18.458  0.00  0.00    +0.000 C 
ATOM      7  N   UNL     1      10.628  11.264  18.731  0.00  0.00    +0.000 NA
ATOM      8  C   UNL     1      10.911  12.692  18.446  0.00  0.00    +0.000 C 
ATOM      9  C   UNL     1      12.198  13.105  19.186  0.00  0.00    +0.000 C 
ATOM     10  C   UNL     1      12.333  14.604  19.495  0.00  0.00    +0.000 C 
ATOM     11  C   UNL     1      11.029  15.250  19.949  0.00  0.00    +0.000 C 
ATOM     12  C   UNL     1       9.949  14.999  18.903  0.00  0.00    +0.000 C 
ATOM     13  C   UNL     1       9.693  13.505  18.876  0.00  0.00    +0.000 C 
ATOM     14  H   UNL     1       7.603  11.324  17.553  0.00  0.00    +0.000 HD
ENDBRANCH   2   6
ENDBRANCH   1   2
BRANCH   1  15
ATOM     15  C   UNL     1       7.885   7.735  17.246  0.00  0.00    +0.000 C 
BRANCH  15  16
ATOM     16  N   UNL     1       6.768   6.952  17.776  0.00  0.00    +0.000 NA
ATOM     17  C   UNL     1       7.180   5.822  18.624  0.00  0.00    +0.000 C 
ATOM     18  C   UNL     1       5.990   5.158  19.259  0.00  0.00    +0.000 C 
ATOM     19  C   UNL     1       4.746   5.316  18.775  0.00  0.00    +0.000 C 
ATOM     20  C   UNL     1       4.489   6.096  17.508  0.00  0.00    +0.000 C 
ATOM     21  C   UNL     1       5.792   6.499  16.783  0.00  0.00    +0.000 C 
BRANCH  19  22
ATOM     22  C   UNL     1       3.584   4.784  19.486  0.00  0.00    +0.000 A 
ATOM     23  C   UNL     1       3.505   3.411  19.764  0.00  0.00    +0.000 A 
ATOM     24  C   UNL     1       2.417   2.895  20.467  0.00  0.00    +0.000 A 
ATOM     25  C   UNL     1       1.394   3.745  20.888  0.00  0.00    +0.000 A 
ATOM     26  C   UNL     1       1.461   5.109  20.602  0.00  0.00    +0.000 A 
ATOM     27  C   UNL     1       2.552   5.626  19.900  0.00  0.00    +0.000 A 
ENDBRANCH  19  22
ENDBRANCH  15  16
ENDBRANCH   1  15
TORSDOF 5
ENDMDL
MODEL 8
REMARK VINA RESULT:      -8.0      5.719      9.236
REMARK  Name = 
REMARK  5 active torsions:
REMARK  status: ('A' for Active; 'I' for Inactive)
REMARK    1  A    between atoms: C_4  and  C_5
REMARK    2  A    between atoms: C_5  and  C_6
REMARK    3  A    between atoms: C_6  and  C_7
REMARK    4  A    between atoms: C_7  and  N_8
REMARK    5  A    between atoms: C_11  and  C_12
REMARK                            x       y       z     vdW  Elec       q    Type
REMARK                         _______ _______ _______ _____ _____    ______ ____
ROOT
ATOM      1  C   UNL     1       7.646   8.613  17.751  0.00  0.00    +0.000 C 
ENDROOT
BRANCH   1   2
ATOM      2  C   UNL     1       8.751   8.694  18.810  0.00  0.00    +0.000 C 
BRANCH   2   6
ATOM      3  O   UNL     1       9.684  12.137  21.871  0.00  0.00    +0.000 OA
ATOM      4  C   UNL     1       9.753  11.698  20.729  0.00  0.00    +0.000 C 
ATOM      5  N   UNL     1       9.078  10.575  20.322  0.00  0.00    +0.000 N 
ATOM      6  C   UNL     1       9.043  10.168  19.013  0.00  0.00    +0.000 C 
ATOM      7  N   UNL     1       9.381  10.931  18.025  0.00  0.00    +0.000 NA
ATOM      8  C   UNL     1       9.794  12.308  18.387  0.00  0.00    +0.000 C 
ATOM      9  C   UNL     1      10.540  12.938  17.194  0.00  0.00    +0.000 C 
ATOM     10  C   UNL     1      11.518  14.069  17.545  0.00  0.00    +0.000 C 
ATOM     11  C   UNL     1      12.326  13.802  18.810  0.00  0.00    +0.000 C 
ATOM     12  C   UNL     1      11.375  13.517  19.967  0.00  0.00    +0.000 C 
ATOM     13  C   UNL     1      10.656  12.223  19.645  0.00  0.00    +0.000 C 
ATOM     14  H   UNL     1       8.615  10.049  21.054  0.00  0.00    +0.000 HD
ENDBRANCH   2   6
ENDBRANCH   1   2
BRANCH   1  15
ATOM     15  C   UNL     1       7.742   7.425  16.786  0.00  0.00    +0.000 C 
BRANCH  15  16
ATOM     16  N   UNL     1       6.579   6.570  17.025  0.00  0.00    +0.000 NA
ATOM     17  C   UNL     1       6.495   5.409  16.125  0.00  0.00    +0.000 C 
ATOM     18  C   UNL     1       5.372   4.493  16.522  0.00  0.00    +0.000 C 
ATOM     19  C   UNL     1       4.360   4.909  17.305  0.00  0.00    +0.000 C 
ATOM     20  C   UNL     1       4.251   6.347  17.750  0.00  0.00    +0.000 C 
ATOM     21  C   UNL     1       5.289   7.263  17.066  0.00  0.00    +0.000 C 
BRANCH  19  22
ATOM     22  C   UNL     1       3.354   3.971  17.801  0.00  0.00    +0.000 A 
ATOM     23  C   UNL     1       2.014   4.372  17.898  0.00  0.00    +0.000 A 
ATOM     24  C   UNL     1       1.039   3.479  18.342  0.00  0.00    +0.000 A 
ATOM     25  C   UNL     1       1.399   2.181  18.703  0.00  0.00    +0.000 A 
ATOM     26  C   UNL     1       2.733   1.779  18.621  0.00  0.00    +0.000 A 
ATOM     27  C   UNL     1       3.708   2.674  18.174  0.00  0.00    +0.000 A 
ENDBRANCH  19  22
ENDBRANCH  15  16
ENDBRANCH   1  15
TORSDOF 5
ENDMDL
MODEL 9
REMARK VINA RESULT:      -8.0      2.249      4.496
REMARK  Name = 
REMARK  5 active torsions:
REMARK  status: ('A' for Active; 'I' for Inactive)
REMARK    1  A    between atoms: C_4  and  C_5
REMARK    2  A    between atoms: C_5  and  C_6
REMARK    3  A    between atoms: C_6  and  C_7
REMARK    4  A    between atoms: C_7  and  N_8
REMARK    5  A    between atoms: C_11  and  C_12
REMARK                            x       y       z     vdW  Elec       q    Type
REMARK                         _______ _______ _______ _____ _____    ______ ____
ROOT
ATOM      1  C   UNL     1       2.072   4.504  19.114  0.00  0.00    +0.000 C 
ENDROOT
BRANCH   1   2
ATOM      2  C   UNL     1       2.959   3.254  19.101  0.00  0.00    +0.000 C 
BRANCH   2   6
ATOM      3  O   UNL     1       5.302   4.274  15.155  0.00  0.00    +0.000 OA
ATOM      4  C   UNL     1       5.187   4.389  16.369  0.00  0.00    +0.000 C 
ATOM      5  N   UNL     1       4.304   3.642  17.107  0.00  0.00    +0.000 N 
ATOM      6  C   UNL     1       4.278   3.671  18.478  0.00  0.00    +0.000 C 
ATOM      7  N   UNL     1       5.238   4.156  19.195  0.00  0.00    +0.000 NA
ATOM      8  C   UNL     1       6.407   4.672  18.441  0.00  0.00    +0.000 C 
ATOM      9  C   UNL     1       7.249   5.565  19.372  0.00  0.00    +0.000 C 
ATOM     10  C   UNL     1       8.121   6.618  18.671  0.00  0.00    +0.000 C 
ATOM     11  C   UNL     1       7.426   7.295  17.495  0.00  0.00    +0.000 C 
ATOM     12  C   UNL     1       6.947   6.234  16.512  0.00  0.00    +0.000 C 
ATOM     13  C   UNL     1       5.882   5.420  17.218  0.00  0.00    +0.000 C 
ATOM     14  H   UNL     1       3.654   3.074  16.575  0.00  0.00    +0.000 HD
ENDBRANCH   2   6
ENDBRANCH   1   2
BRANCH   1  15
ATOM     15  C   UNL     1       2.085   5.308  20.420  0.00  0.00    +0.000 C 
BRANCH  15  16
ATOM     16  N   UNL     1       1.689   6.678  20.095  0.00  0.00    +0.000 NA
ATOM     17  C   UNL     1       2.436   7.266  18.972  0.00  0.00    +0.000 C 
ATOM     18  C   UNL     1       1.878   8.608  18.591  0.00  0.00    +0.000 C 
ATOM     19  C   UNL     1       1.106   9.320  19.431  0.00  0.00    +0.000 C 
ATOM     20  C   UNL     1       0.836   8.850  20.839  0.00  0.00    +0.000 C 
ATOM     21  C   UNL     1       1.674   7.611  21.225  0.00  0.00    +0.000 C 
BRANCH  19  22
ATOM     22  C   UNL     1       0.453  10.554  18.995  0.00  0.00    +0.000 A 
ATOM     23  C   UNL     1       1.161  11.764  19.018  0.00  0.00    +0.000 A 
ATOM     24  C   UNL     1       0.560  12.943  18.578  0.00  0.00    +0.000 A 
ATOM     25  C   UNL     1      -0.758  12.923  18.121  0.00  0.00    +0.000 A 
ATOM     26  C   UNL     1      -1.472  11.724  18.107  0.00  0.00    +0.000 A 
ATOM     27  C   UNL     1      -0.868  10.543  18.546  0.00  0.00    +0.000 A 
ENDBRANCH  19  22
ENDBRANCH  15  16
ENDBRANCH   1  15
TORSDOF 5
ENDMDL
