MODEL 1
REMARK VINA RESULT:      -8.7      0.000      0.000
REMARK  Name = 
REMARK  11 active torsions:
REMARK  status: ('A' for Active; 'I' for Inactive)
REMARK    1  A    between atoms: C_1  and  N_2
REMARK    2  A    between atoms: N_5  and  C_6
REMARK    3  A    between atoms: C_6  and  C_7
REMARK    4  A    between atoms: C_8  and  C_9
REMARK    5  A    between atoms: C_12  and  C_13
REMARK    6  A    between atoms: C_16  and  C_17
REMARK    7  A    between atoms: N_19  and  C_20
REMARK    8  A    between atoms: N_29  and  C_30
REMARK    9  A    between atoms: C_30  and  C_31
REMARK   10  A    between atoms: C_31  and  C_32
REMARK   11  A    between atoms: C_31  and  C_33
REMARK                            x       y       z     vdW  Elec       q    Type
REMARK                         _______ _______ _______ _____ _____    ______ ____
ROOT
ATOM      1  C   UNL     1      -2.088  10.645  17.327  0.00  0.00    +0.000 A 
ATOM      2  C   UNL     1      -1.059   9.928  17.805  0.00  0.00    +0.000 A 
ATOM      3  N   UNL     1      -0.555  10.243  19.052  0.00  0.00    +0.000 N 
ATOM      4  C   UNL     1       0.502   9.748  19.811  0.00  0.00    +0.000 A 
ATOM      5  C   UNL     1       0.402  10.465  20.997  0.00  0.00    +0.000 A 
ATOM      6  N   UNL     1      -0.625  11.382  20.976  0.00  0.00    +0.000 NA
ATOM      7  C   UNL     1      -1.160  11.234  19.785  0.00  0.00    +0.000 A 
ATOM      8  C   UNL     1      -2.307  11.943  19.231  0.00  0.00    +0.000 A 
ATOM      9  N   UNL     1      -2.953  12.915  19.973  0.00  0.00    +0.000 N 
ATOM     10  N   UNL     1      -2.730  11.648  18.023  0.00  0.00    +0.000 NA
ATOM     11  H   UNL     1      -2.593  13.007  20.919  0.00  0.00    +0.000 HD
ENDROOT
BRANCH   4  12
ATOM     12  C   UNL     1       1.456   8.709  19.395  0.00  0.00    +0.000 A 
ATOM     13  C   UNL     1       2.139   8.801  18.180  0.00  0.00    +0.000 A 
ATOM     14  C   UNL     1       2.969   7.770  17.739  0.00  0.00    +0.000 A 
ATOM     15  C   UNL     1       3.199   6.633  18.526  0.00  0.00    +0.000 A 
ATOM     16  C   UNL     1       2.588   6.563  19.781  0.00  0.00    +0.000 A 
ATOM     17  C   UNL     1       1.720   7.592  20.205  0.00  0.00    +0.000 A 
BRANCH  15  18
ATOM     18  C   UNL     1       4.088   5.591  17.930  0.00  0.00    +0.000 C 
ATOM     19  O   UNL     1       4.458   4.653  18.643  0.00  0.00    +0.000 OA
ATOM     20  N   UNL     1       4.504   5.710  16.614  0.00  0.00    +0.000 N 
ATOM     21  H   UNL     1       4.262   6.512  16.053  0.00  0.00    +0.000 HD
BRANCH  20  22
ATOM     22  C   UNL     1       5.466   4.772  16.107  0.00  0.00    +0.000 C 
ATOM     23  C   UNL     1       6.131   5.047  14.783  0.00  0.00    +0.000 C 
ATOM     24  C   UNL     1       6.941   5.029  16.046  0.00  0.00    +0.000 C 
ENDBRANCH  20  22
ENDBRANCH  15  18
ENDBRANCH   4  12
BRANCH   1  26
ATOM     25  C   UNL     1      -2.981  10.022  14.722  0.00  0.00    +0.000 C 
ATOM     26  C   UNL     1      -2.569  10.310  15.925  0.00  0.00    +0.000 C 
BRANCH  25  27
ATOM     27  C   UNL     1      -3.462   9.686  13.319  0.00  0.00    +0.000 C 
BRANCH  27  32
ATOM     28  C   UNL     1      -7.609   9.647  10.820  0.00  0.00    +0.000 C 
ATOM     29  N   UNL     1      -6.807   9.913  11.984  0.00  0.00    +0.000 N 
ATOM     30  C   UNL     1      -5.470   9.611  11.988  0.00  0.00    +0.000 C 
ATOM     31  O   UNL     1      -4.863   9.203  11.005  0.00  0.00    +0.000 OA
ATOM     32  N   UNL     1      -4.891   9.819  13.211  0.00  0.00    +0.000 N 
ATOM     33  H   UNL     1      -7.267  10.032  12.874  0.00  0.00    +0.000 HD
ATOM     34  H   UNL     1      -5.368  10.402  13.877  0.00  0.00    +0.000 HD
ENDBRANCH  27  32
ENDBRANCH  25  27
ENDBRANCH   1  26
BRANCH   9  35
ATOM     35  C   UNL     1      -4.364  13.222  19.816  0.00  0.00    +0.000 C 
BRANCH  35  36
ATOM     36  C   UNL     1      -5.133  13.186  21.152  0.00  0.00    +0.000 C 
ATOM     37  C   UNL     1      -6.336  12.241  21.111  0.00  0.00    +0.000 C 
ATOM     38  C   UNL     1      -4.195  12.774  22.289  0.00  0.00    +0.000 C 
ENDBRANCH  35  36
ENDBRANCH   9  35
TORSDOF 8
ENDMDL
MODEL 2
REMARK VINA RESULT:      -8.3      0.651      1.068
REMARK  Name = 
REMARK  11 active torsions:
REMARK  status: ('A' for Active; 'I' for Inactive)
REMARK    1  A    between atoms: C_1  and  N_2
REMARK    2  A    between atoms: N_5  and  C_6
REMARK    3  A    between atoms: C_6  and  C_7
REMARK    4  A    between atoms: C_8  and  C_9
REMARK    5  A    between atoms: C_12  and  C_13
REMARK    6  A    between atoms: C_16  and  C_17
REMARK    7  A    between atoms: N_19  and  C_20
REMARK    8  A    between atoms: N_29  and  C_30
REMARK    9  A    between atoms: C_30  and  C_31
REMARK   10  A    between atoms: C_31  and  C_32
REMARK   11  A    between atoms: C_31  and  C_33
REMARK                            x       y       z     vdW  Elec       q    Type
REMARK                         _______ _______ _______ _____ _____    ______ ____
ROOT
ATOM      1  C   UNL     1      -2.047  10.652  17.314  0.00  0.00    +0.000 A 
ATOM      2  C   UNL     1      -1.031   9.909  17.780  0.00  0.00    +0.000 A 
ATOM      3  N   UNL     1      -0.511  10.204  19.025  0.00  0.00    +0.000 N 
ATOM      4  C   UNL     1       0.541   9.681  19.773  0.00  0.00    +0.000 A 
ATOM      5  C   UNL     1       0.465  10.392  20.964  0.00  0.00    +0.000 A 
ATOM      6  N   UNL     1      -0.543  11.331  20.957  0.00  0.00    +0.000 NA
ATOM      7  C   UNL     1      -1.089  11.203  19.769  0.00  0.00    +0.000 A 
ATOM      8  C   UNL     1      -2.225  11.940  19.228  0.00  0.00    +0.000 A 
ATOM      9  N   UNL     1      -2.844  12.921  19.981  0.00  0.00    +0.000 N 
ATOM     10  N   UNL     1      -2.662  11.664  18.021  0.00  0.00    +0.000 NA
ATOM     11  H   UNL     1      -2.475  12.998  20.926  0.00  0.00    +0.000 HD
ENDROOT
BRANCH   4  12
ATOM     12  C   UNL     1       1.469   8.625  19.343  0.00  0.00    +0.000 A 
ATOM     13  C   UNL     1       1.702   7.501  20.139  0.00  0.00    +0.000 A 
ATOM     14  C   UNL     1       2.654   6.546  19.780  0.00  0.00    +0.000 A 
ATOM     15  C   UNL     1       3.367   6.647  18.577  0.00  0.00    +0.000 A 
ATOM     16  C   UNL     1       3.086   7.722  17.729  0.00  0.00    +0.000 A 
ATOM     17  C   UNL     1       2.149   8.704  18.117  0.00  0.00    +0.000 A 
BRANCH  15  18
ATOM     18  C   UNL     1       4.374   5.574  18.320  0.00  0.00    +0.000 C 
ATOM     19  O   UNL     1       4.758   4.885  19.270  0.00  0.00    +0.000 OA
ATOM     20  N   UNL     1       4.877   5.392  17.043  0.00  0.00    +0.000 N 
ATOM     21  H   UNL     1       4.619   6.000  16.281  0.00  0.00    +0.000 HD
BRANCH  20  22
ATOM     22  C   UNL     1       5.941   4.449  16.847  0.00  0.00    +0.000 C 
ATOM     23  C   UNL     1       6.890   4.640  15.692  0.00  0.00    +0.000 C 
ATOM     24  C   UNL     1       7.388   4.746  17.103  0.00  0.00    +0.000 C 
ENDBRANCH  20  22
ENDBRANCH  15  18
ENDBRANCH   4  12
BRANCH   1  26
ATOM     25  C   UNL     1      -2.973  10.066  14.712  0.00  0.00    +0.000 C 
ATOM     26  C   UNL     1      -2.545  10.336  15.913  0.00  0.00    +0.000 C 
BRANCH  25  27
ATOM     27  C   UNL     1      -3.471   9.750  13.310  0.00  0.00    +0.000 C 
BRANCH  27  32
ATOM     28  C   UNL     1      -7.675   9.513  10.919  0.00  0.00    +0.000 C 
ATOM     29  N   UNL     1      -6.856   9.817  12.063  0.00  0.00    +0.000 N 
ATOM     30  C   UNL     1      -5.507   9.579  12.032  0.00  0.00    +0.000 C 
ATOM     31  O   UNL     1      -4.907   9.199  11.033  0.00  0.00    +0.000 OA
ATOM     32  N   UNL     1      -4.907   9.815  13.239  0.00  0.00    +0.000 N 
ATOM     33  H   UNL     1      -7.299   9.916  12.964  0.00  0.00    +0.000 HD
ATOM     34  H   UNL     1      -5.393  10.376  13.917  0.00  0.00    +0.000 HD
ENDBRANCH  27  32
ENDBRANCH  25  27
ENDBRANCH   1  26
BRANCH   9  35
ATOM     35  C   UNL     1      -4.249  13.260  19.837  0.00  0.00    +0.000 C 
BRANCH  35  36
ATOM     36  C   UNL     1      -4.678  14.424  20.753  0.00  0.00    +0.000 C 
ATOM     37  C   UNL     1      -5.955  14.115  21.536  0.00  0.00    +0.000 C 
ATOM     38  C   UNL     1      -3.548  14.772  21.726  0.00  0.00    +0.000 C 
ENDBRANCH  35  36
ENDBRANCH   9  35
TORSDOF 8
ENDMDL
MODEL 3
REMARK VINA RESULT:      -8.2      5.058      8.125
REMARK  Name = 
REMARK  11 active torsions:
REMARK  status: ('A' for Active; 'I' for Inactive)
REMARK    1  A    between atoms: C_1  and  N_2
REMARK    2  A    between atoms: N_5  and  C_6
REMARK    3  A    between atoms: C_6  and  C_7
REMARK    4  A    between atoms: C_8  and  C_9
REMARK    5  A    between atoms: C_12  and  C_13
REMARK    6  A    between atoms: C_16  and  C_17
REMARK    7  A    between atoms: N_19  and  C_20
REMARK    8  A    between atoms: N_29  and  C_30
REMARK    9  A    between atoms: C_30  and  C_31
REMARK   10  A    between atoms: C_31  and  C_32
REMARK   11  A    between atoms: C_31  and  C_33
REMARK                            x       y       z     vdW  Elec       q    Type
REMARK                         _______ _______ _______ _____ _____    ______ ____
ROOT
ATOM      1  C   UNL     1       2.452  14.095  18.486  0.00  0.00    +0.000 A 
ATOM      2  C   UNL     1       2.143  12.795  18.611  0.00  0.00    +0.000 A 
ATOM      3  N   UNL     1       0.834  12.449  18.886  0.00  0.00    +0.000 N 
ATOM      4  C   UNL     1       0.192  11.235  19.116  0.00  0.00    +0.000 A 
ATOM      5  C   UNL     1      -1.140  11.604  19.255  0.00  0.00    +0.000 A 
ATOM      6  N   UNL     1      -1.326  12.965  19.159  0.00  0.00    +0.000 NA
ATOM      7  C   UNL     1      -0.115  13.438  18.962  0.00  0.00    +0.000 A 
ATOM      8  C   UNL     1       0.275  14.829  18.765  0.00  0.00    +0.000 A 
ATOM      9  N   UNL     1      -0.675  15.833  18.797  0.00  0.00    +0.000 N 
ATOM     10  N   UNL     1       1.537  15.125  18.552  0.00  0.00    +0.000 NA
ATOM     11  H   UNL     1      -1.627  15.486  18.891  0.00  0.00    +0.000 HD
ENDROOT
BRANCH   4  12
ATOM     12  C   UNL     1       0.834   9.914  19.180  0.00  0.00    +0.000 A 
ATOM     13  C   UNL     1       0.899   9.200  20.379  0.00  0.00    +0.000 A 
ATOM     14  C   UNL     1       1.592   7.991  20.463  0.00  0.00    +0.000 A 
ATOM     15  C   UNL     1       2.195   7.419  19.335  0.00  0.00    +0.000 A 
ATOM     16  C   UNL     1       2.068   8.079  18.110  0.00  0.00    +0.000 A 
ATOM     17  C   UNL     1       1.399   9.319  18.039  0.00  0.00    +0.000 A 
BRANCH  15  18
ATOM     18  C   UNL     1       2.926   6.136  19.562  0.00  0.00    +0.000 C 
ATOM     19  O   UNL     1       3.919   5.892  18.870  0.00  0.00    +0.000 OA
ATOM     20  N   UNL     1       2.466   5.239  20.511  0.00  0.00    +0.000 N 
ATOM     21  H   UNL     1       1.614   5.403  21.026  0.00  0.00    +0.000 HD
BRANCH  20  22
ATOM     22  C   UNL     1       3.103   3.957  20.616  0.00  0.00    +0.000 C 
ATOM     23  C   UNL     1       2.434   2.866  21.412  0.00  0.00    +0.000 C 
ATOM     24  C   UNL     1       2.617   2.715  19.930  0.00  0.00    +0.000 C 
ENDBRANCH  20  22
ENDBRANCH  15  18
ENDBRANCH   4  12
BRANCH   1  26
ATOM     25  C   UNL     1       5.168  14.728  18.045  0.00  0.00    +0.000 C 
ATOM     26  C   UNL     1       3.914  14.436  18.249  0.00  0.00    +0.000 C 
BRANCH  25  27
ATOM     27  C   UNL     1       6.631  15.068  17.808  0.00  0.00    +0.000 C 
BRANCH  27  32
ATOM     28  C   UNL     1      10.753  12.532  17.641  0.00  0.00    +0.000 C 
ATOM     29  N   UNL     1       9.373  12.774  17.314  0.00  0.00    +0.000 N 
ATOM     30  C   UNL     1       8.729  13.882  17.800  0.00  0.00    +0.000 C 
ATOM     31  O   UNL     1       9.288  14.765  18.441  0.00  0.00    +0.000 OA
ATOM     32  N   UNL     1       7.397  13.892  17.490  0.00  0.00    +0.000 N 
ATOM     33  H   UNL     1       8.808  12.003  16.991  0.00  0.00    +0.000 HD
ATOM     34  H   UNL     1       7.071  13.298  16.746  0.00  0.00    +0.000 HD
ENDBRANCH  27  32
ENDBRANCH  25  27
ENDBRANCH   1  26
BRANCH   9  35
ATOM     35  C   UNL     1      -0.541  17.074  18.052  0.00  0.00    +0.000 C 
BRANCH  35  36
ATOM     36  C   UNL     1      -1.116  18.287  18.810  0.00  0.00    +0.000 C 
ATOM     37  C   UNL     1      -2.637  18.394  18.680  0.00  0.00    +0.000 C 
ATOM     38  C   UNL     1      -0.730  18.216  20.290  0.00  0.00    +0.000 C 
ENDBRANCH  35  36
ENDBRANCH   9  35
TORSDOF 8
ENDMDL
MODEL 4
REMARK VINA RESULT:      -8.2      0.954      1.151
REMARK  Name = 
REMARK  11 active torsions:
REMARK  status: ('A' for Active; 'I' for Inactive)
REMARK    1  A    between atoms: C_1  and  N_2
REMARK    2  A    between atoms: N_5  and  C_6
REMARK    3  A    between atoms: C_6  and  C_7
REMARK    4  A    between atoms: C_8  and  C_9
REMARK    5  A    between atoms: C_12  and  C_13
REMARK    6  A    between atoms: C_16  and  C_17
REMARK    7  A    between atoms: N_19  and  C_20
REMARK    8  A    between atoms: N_29  and  C_30
REMARK    9  A    between atoms: C_30  and  C_31
REMARK   10  A    between atoms: C_31  and  C_32
REMARK   11  A    between atoms: C_31  and  C_33
REMARK                            x       y       z     vdW  Elec       q    Type
REMARK                         _______ _______ _______ _____ _____    ______ ____
ROOT
ATOM      1  C   UNL     1      -2.525  10.582  16.740  0.00  0.00    +0.000 A 
ATOM      2  C   UNL     1      -1.497   9.981  17.359  0.00  0.00    +0.000 A 
ATOM      3  N   UNL     1      -1.178  10.375  18.645  0.00  0.00    +0.000 N 
ATOM      4  C   UNL     1      -0.176  10.005  19.538  0.00  0.00    +0.000 A 
ATOM      5  C   UNL     1      -0.484  10.737  20.678  0.00  0.00    +0.000 A 
ATOM      6  N   UNL     1      -1.584  11.548  20.505  0.00  0.00    +0.000 NA
ATOM      7  C   UNL     1      -1.956  11.319  19.266  0.00  0.00    +0.000 A 
ATOM      8  C   UNL     1      -3.092  11.898  18.557  0.00  0.00    +0.000 A 
ATOM      9  N   UNL     1      -3.910  12.819  19.184  0.00  0.00    +0.000 N 
ATOM     10  N   UNL     1      -3.338  11.534  17.320  0.00  0.00    +0.000 NA
ATOM     11  H   UNL     1      -3.675  12.969  20.162  0.00  0.00    +0.000 HD
ENDROOT
BRANCH   4  12
ATOM     12  C   UNL     1       0.915   9.055  19.273  0.00  0.00    +0.000 A 
ATOM     13  C   UNL     1       1.598   9.062  18.054  0.00  0.00    +0.000 A 
ATOM     14  C   UNL     1       2.566   8.099  17.764  0.00  0.00    +0.000 A 
ATOM     15  C   UNL     1       2.933   7.130  18.707  0.00  0.00    +0.000 A 
ATOM     16  C   UNL     1       2.318   7.160  19.962  0.00  0.00    +0.000 A 
ATOM     17  C   UNL     1       1.313   8.112  20.235  0.00  0.00    +0.000 A 
BRANCH  15  18
ATOM     18  C   UNL     1       3.963   6.142  18.265  0.00  0.00    +0.000 C 
ATOM     19  O   UNL     1       4.662   5.594  19.122  0.00  0.00    +0.000 OA
ATOM     20  N   UNL     1       4.137   5.885  16.915  0.00  0.00    +0.000 N 
ATOM     21  H   UNL     1       3.618   6.384  16.210  0.00  0.00    +0.000 HD
BRANCH  20  22
ATOM     22  C   UNL     1       5.223   5.037  16.508  0.00  0.00    +0.000 C 
ATOM     23  C   UNL     1       5.235   4.480  15.108  0.00  0.00    +0.000 C 
ATOM     24  C   UNL     1       6.296   5.447  15.544  0.00  0.00    +0.000 C 
ENDBRANCH  20  22
ENDBRANCH  15  18
ENDBRANCH   4  12
BRANCH   1  26
ATOM     25  C   UNL     1      -3.038   9.810  14.073  0.00  0.00    +0.000 C 
ATOM     26  C   UNL     1      -2.802  10.167  15.304  0.00  0.00    +0.000 C 
BRANCH  25  27
ATOM     27  C   UNL     1      -3.315   9.395  12.637  0.00  0.00    +0.000 C 
BRANCH  27  32
ATOM     28  C   UNL     1      -7.752  10.349  10.948  0.00  0.00    +0.000 C 
ATOM     29  N   UNL     1      -6.352  10.628  11.127  0.00  0.00    +0.000 N 
ATOM     30  C   UNL     1      -5.563   9.776  11.854  0.00  0.00    +0.000 C 
ATOM     31  O   UNL     1      -5.954   8.704  12.302  0.00  0.00    +0.000 OA
ATOM     32  N   UNL     1      -4.292  10.255  12.022  0.00  0.00    +0.000 N 
ATOM     33  H   UNL     1      -6.023  11.572  10.984  0.00  0.00    +0.000 HD
ATOM     34  H   UNL     1      -3.967  10.984  11.410  0.00  0.00    +0.000 HD
ENDBRANCH  27  32
ENDBRANCH  25  27
ENDBRANCH   1  26
BRANCH   9  35
ATOM     35  C   UNL     1      -5.316  12.983  18.854  0.00  0.00    +0.000 C 
BRANCH  35  36
ATOM     36  C   UNL     1      -6.251  12.569  20.008  0.00  0.00    +0.000 C 
ATOM     37  C   UNL     1      -5.521  12.476  21.349  0.00  0.00    +0.000 C 
ATOM     38  C   UNL     1      -7.414  13.558  20.124  0.00  0.00    +0.000 C 
ENDBRANCH  35  36
ENDBRANCH   9  35
TORSDOF 8
ENDMDL
MODEL 5
REMARK VINA RESULT:      -8.1      4.727      7.683
REMARK  Name = 
REMARK  11 active torsions:
REMARK  status: ('A' for Active; 'I' for Inactive)
REMARK    1  A    between atoms: C_1  and  N_2
REMARK    2  A    between atoms: N_5  and  C_6
REMARK    3  A    between atoms: C_6  and  C_7
REMARK    4  A    between atoms: C_8  and  C_9
REMARK    5  A    between atoms: C_12  and  C_13
REMARK    6  A    between atoms: C_16  and  C_17
REMARK    7  A    between atoms: N_19  and  C_20
REMARK    8  A    between atoms: N_29  and  C_30
REMARK    9  A    between atoms: C_30  and  C_31
REMARK   10  A    between atoms: C_31  and  C_32
REMARK   11  A    between atoms: C_31  and  C_33
REMARK                            x       y       z     vdW  Elec       q    Type
REMARK                         _______ _______ _______ _____ _____    ______ ____
ROOT
ATOM      1  C   UNL     1       2.519  14.010  18.615  0.00  0.00    +0.000 A 
ATOM      2  C   UNL     1       2.329  12.682  18.625  0.00  0.00    +0.000 A 
ATOM      3  N   UNL     1       1.052  12.198  18.838  0.00  0.00    +0.000 N 
ATOM      4  C   UNL     1       0.521  10.916  18.952  0.00  0.00    +0.000 A 
ATOM      5  C   UNL     1      -0.842  11.150  19.085  0.00  0.00    +0.000 A 
ATOM      6  N   UNL     1      -1.150  12.493  19.095  0.00  0.00    +0.000 NA
ATOM      7  C   UNL     1       0.015  13.087  18.969  0.00  0.00    +0.000 A 
ATOM      8  C   UNL     1       0.279  14.519  18.896  0.00  0.00    +0.000 A 
ATOM      9  N   UNL     1      -0.760  15.427  18.985  0.00  0.00    +0.000 N 
ATOM     10  N   UNL     1       1.512  14.945  18.741  0.00  0.00    +0.000 NA
ATOM     11  H   UNL     1      -1.677  14.989  19.026  0.00  0.00    +0.000 HD
ENDROOT
BRANCH   4  12
ATOM     12  C   UNL     1       1.280   9.657  18.924  0.00  0.00    +0.000 A 
ATOM     13  C   UNL     1       2.009   9.278  17.793  0.00  0.00    +0.000 A 
ATOM     14  C   UNL     1       2.649   8.040  17.729  0.00  0.00    +0.000 A 
ATOM     15  C   UNL     1       2.637   7.157  18.817  0.00  0.00    +0.000 A 
ATOM     16  C   UNL     1       1.982   7.556  19.986  0.00  0.00    +0.000 A 
ATOM     17  C   UNL     1       1.304   8.793  20.031  0.00  0.00    +0.000 A 
BRANCH  15  18
ATOM     18  C   UNL     1       3.339   5.855  18.613  0.00  0.00    +0.000 C 
ATOM     19  O   UNL     1       3.525   5.124  19.590  0.00  0.00    +0.000 OA
ATOM     20  N   UNL     1       3.791   5.506  17.351  0.00  0.00    +0.000 N 
ATOM     21  H   UNL     1       3.705   6.132  16.566  0.00  0.00    +0.000 HD
BRANCH  20  22
ATOM     22  C   UNL     1       4.581   4.315  17.205  0.00  0.00    +0.000 C 
ATOM     23  C   UNL     1       5.342   4.091  15.924  0.00  0.00    +0.000 C 
ATOM     24  C   UNL     1       6.080   4.292  17.215  0.00  0.00    +0.000 C 
ENDBRANCH  20  22
ENDBRANCH  15  18
ENDBRANCH   4  12
BRANCH   1  26
ATOM     25  C   UNL     1       5.173  14.919  18.298  0.00  0.00    +0.000 C 
ATOM     26  C   UNL     1       3.948  14.500  18.444  0.00  0.00    +0.000 C 
BRANCH  25  27
ATOM     27  C   UNL     1       6.603  15.409  18.128  0.00  0.00    +0.000 C 
BRANCH  27  32
ATOM     28  C   UNL     1      10.186  12.166  17.809  0.00  0.00    +0.000 C 
ATOM     29  N   UNL     1       9.169  13.024  17.260  0.00  0.00    +0.000 N 
ATOM     30  C   UNL     1       8.389  13.791  18.086  0.00  0.00    +0.000 C 
ATOM     31  O   UNL     1       8.561  13.874  19.297  0.00  0.00    +0.000 OA
ATOM     32  N   UNL     1       7.401  14.451  17.408  0.00  0.00    +0.000 N 
ATOM     33  H   UNL     1       8.833  12.843  16.326  0.00  0.00    +0.000 HD
ATOM     34  H   UNL     1       7.489  14.557  16.411  0.00  0.00    +0.000 HD
ENDBRANCH  27  32
ENDBRANCH  25  27
ENDBRANCH   1  26
BRANCH   9  35
ATOM     35  C   UNL     1      -0.727  16.733  18.348  0.00  0.00    +0.000 C 
BRANCH  35  36
ATOM     36  C   UNL     1      -1.565  17.785  19.102  0.00  0.00    +0.000 C 
ATOM     37  C   UNL     1      -2.428  18.629  18.163  0.00  0.00    +0.000 C 
ATOM     38  C   UNL     1      -2.454  17.102  20.144  0.00  0.00    +0.000 C 
ENDBRANCH  35  36
ENDBRANCH   9  35
TORSDOF 8
ENDMDL
MODEL 6
REMARK VINA RESULT:      -7.9      1.555      1.769
REMARK  Name = 
REMARK  11 active torsions:
REMARK  status: ('A' for Active; 'I' for Inactive)
REMARK    1  A    between atoms: C_1  and  N_2
REMARK    2  A    between atoms: N_5  and  C_6
REMARK    3  A    between atoms: C_6  and  C_7
REMARK    4  A    between atoms: C_8  and  C_9
REMARK    5  A    between atoms: C_12  and  C_13
REMARK    6  A    between atoms: C_16  and  C_17
REMARK    7  A    between atoms: N_19  and  C_20
REMARK    8  A    between atoms: N_29  and  C_30
REMARK    9  A    between atoms: C_30  and  C_31
REMARK   10  A    between atoms: C_31  and  C_32
REMARK   11  A    between atoms: C_31  and  C_33
REMARK                            x       y       z     vdW  Elec       q    Type
REMARK                         _______ _______ _______ _____ _____    ______ ____
ROOT
ATOM      1  C   UNL     1      -2.341  10.865  17.596  0.00  0.00    +0.000 A 
ATOM      2  C   UNL     1      -1.385  10.139  18.194  0.00  0.00    +0.000 A 
ATOM      3  N   UNL     1      -0.975  10.500  19.463  0.00  0.00    +0.000 N 
ATOM      4  C   UNL     1      -0.005  10.010  20.333  0.00  0.00    +0.000 A 
ATOM      5  C   UNL     1      -0.177  10.790  21.470  0.00  0.00    +0.000 A 
ATOM      6  N   UNL     1      -1.164  11.739  21.317  0.00  0.00    +0.000 NA
ATOM      7  C   UNL     1      -1.601  11.547  20.092  0.00  0.00    +0.000 A 
ATOM      8  C   UNL     1      -2.670  12.265  19.408  0.00  0.00    +0.000 A 
ATOM      9  N   UNL     1      -3.339  13.295  20.043  0.00  0.00    +0.000 N 
ATOM     10  N   UNL     1      -3.001  11.923  18.183  0.00  0.00    +0.000 NA
ATOM     11  H   UNL     1      -3.056  13.424  21.012  0.00  0.00    +0.000 HD
ENDROOT
BRANCH   4  12
ATOM     12  C   UNL     1       0.940   8.919  20.052  0.00  0.00    +0.000 A 
ATOM     13  C   UNL     1       1.656   8.875  18.852  0.00  0.00    +0.000 A 
ATOM     14  C   UNL     1       2.478   7.792  18.542  0.00  0.00    +0.000 A 
ATOM     15  C   UNL     1       2.666   6.738  19.447  0.00  0.00    +0.000 A 
ATOM     16  C   UNL     1       2.022   6.807  20.685  0.00  0.00    +0.000 A 
ATOM     17  C   UNL     1       1.162   7.886  20.978  0.00  0.00    +0.000 A 
BRANCH  15  18
ATOM     18  C   UNL     1       3.552   5.628  18.985  0.00  0.00    +0.000 C 
ATOM     19  O   UNL     1       4.463   5.888  18.193  0.00  0.00    +0.000 OA
ATOM     20  N   UNL     1       3.321   4.334  19.423  0.00  0.00    +0.000 N 
ATOM     21  H   UNL     1       2.535   4.107  20.012  0.00  0.00    +0.000 HD
BRANCH  20  22
ATOM     22  C   UNL     1       4.098   3.265  18.861  0.00  0.00    +0.000 C 
ATOM     23  C   UNL     1       4.405   2.057  19.706  0.00  0.00    +0.000 C 
ATOM     24  C   UNL     1       3.540   1.925  18.487  0.00  0.00    +0.000 C 
ENDBRANCH  20  22
ENDBRANCH  15  18
ENDBRANCH   4  12
BRANCH   1  26
ATOM     25  C   UNL     1      -3.035  10.138  14.957  0.00  0.00    +0.000 C 
ATOM     26  C   UNL     1      -2.715  10.473  16.174  0.00  0.00    +0.000 C 
BRANCH  25  27
ATOM     27  C   UNL     1      -3.409   9.746  13.536  0.00  0.00    +0.000 C 
BRANCH  27  32
ATOM     28  C   UNL     1      -7.357   9.703  10.732  0.00  0.00    +0.000 C 
ATOM     29  N   UNL     1      -6.655   9.923  11.969  0.00  0.00    +0.000 N 
ATOM     30  C   UNL     1      -5.309   9.678  12.055  0.00  0.00    +0.000 C 
ATOM     31  O   UNL     1      -4.614   9.362  11.096  0.00  0.00    +0.000 OA
ATOM     32  N   UNL     1      -4.831   9.826  13.328  0.00  0.00    +0.000 N 
ATOM     33  H   UNL     1      -7.184   9.964  12.827  0.00  0.00    +0.000 HD
ATOM     34  H   UNL     1      -5.382  10.344  13.992  0.00  0.00    +0.000 HD
ENDBRANCH  27  32
ENDBRANCH  25  27
ENDBRANCH   1  26
BRANCH   9  35
ATOM     35  C   UNL     1      -4.719  13.642  19.751  0.00  0.00    +0.000 C 
BRANCH  35  36
ATOM     36  C   UNL     1      -5.532  13.968  21.020  0.00  0.00    +0.000 C 
ATOM     37  C   UNL     1      -7.011  14.220  20.721  0.00  0.00    +0.000 C 
ATOM     38  C   UNL     1      -5.400  12.833  22.038  0.00  0.00    +0.000 C 
ENDBRANCH  35  36
ENDBRANCH   9  35
TORSDOF 8
ENDMDL
MODEL 7
REMARK VINA RESULT:      -7.8      4.944      7.931
REMARK  Name = 
REMARK  11 active torsions:
REMARK  status: ('A' for Active; 'I' for Inactive)
REMARK    1  A    between atoms: C_1  and  N_2
REMARK    2  A    between atoms: N_5  and  C_6
REMARK    3  A    between atoms: C_6  and  C_7
REMARK    4  A    between atoms: C_8  and  C_9
REMARK    5  A    between atoms: C_12  and  C_13
REMARK    6  A    between atoms: C_16  and  C_17
REMARK    7  A    between atoms: N_19  and  C_20
REMARK    8  A    between atoms: N_29  and  C_30
REMARK    9  A    between atoms: C_30  and  C_31
REMARK   10  A    between atoms: C_31  and  C_32
REMARK   11  A    between atoms: C_31  and  C_33
REMARK                            x       y       z     vdW  Elec       q    Type
REMARK                         _______ _______ _______ _____ _____    ______ ____
ROOT
ATOM      1  C   UNL     1       2.497  13.896  18.543  0.00  0.00    +0.000 A 
ATOM      2  C   UNL     1       2.303  12.569  18.554  0.00  0.00    +0.000 A 
ATOM      3  N   UNL     1       1.038  12.087  18.833  0.00  0.00    +0.000 N 
ATOM      4  C   UNL     1       0.509  10.806  18.966  0.00  0.00    +0.000 A 
ATOM      5  C   UNL     1      -0.843  11.044  19.177  0.00  0.00    +0.000 A 
ATOM      6  N   UNL     1      -1.145  12.387  19.215  0.00  0.00    +0.000 NA
ATOM      7  C   UNL     1       0.013  12.978  19.028  0.00  0.00    +0.000 A 
ATOM      8  C   UNL     1       0.278  14.410  18.953  0.00  0.00    +0.000 A 
ATOM      9  N   UNL     1      -0.751  15.321  19.106  0.00  0.00    +0.000 N 
ATOM     10  N   UNL     1       1.502  14.833  18.731  0.00  0.00    +0.000 NA
ATOM     11  H   UNL     1      -1.666  14.885  19.195  0.00  0.00    +0.000 HD
ENDROOT
BRANCH   4  12
ATOM     12  C   UNL     1       1.261   9.545  18.887  0.00  0.00    +0.000 A 
ATOM     13  C   UNL     1       1.849   9.129  17.689  0.00  0.00    +0.000 A 
ATOM     14  C   UNL     1       2.479   7.888  17.587  0.00  0.00    +0.000 A 
ATOM     15  C   UNL     1       2.599   7.040  18.695  0.00  0.00    +0.000 A 
ATOM     16  C   UNL     1       2.089   7.476  19.921  0.00  0.00    +0.000 A 
ATOM     17  C   UNL     1       1.420   8.715  20.010  0.00  0.00    +0.000 A 
BRANCH  15  18
ATOM     18  C   UNL     1       3.273   5.729  18.449  0.00  0.00    +0.000 C 
ATOM     19  O   UNL     1       4.085   5.648  17.523  0.00  0.00    +0.000 OA
ATOM     20  N   UNL     1       2.956   4.633  19.233  0.00  0.00    +0.000 N 
ATOM     21  H   UNL     1       2.241   4.678  19.942  0.00  0.00    +0.000 HD
BRANCH  20  22
ATOM     22  C   UNL     1       3.513   3.354  18.891  0.00  0.00    +0.000 C 
ATOM     23  C   UNL     1       4.036   2.463  19.987  0.00  0.00    +0.000 C 
ATOM     24  C   UNL     1       2.847   2.042  19.175  0.00  0.00    +0.000 C 
ENDBRANCH  20  22
ENDBRANCH  15  18
ENDBRANCH   4  12
BRANCH   1  26
ATOM     25  C   UNL     1       5.133  14.800  18.085  0.00  0.00    +0.000 C 
ATOM     26  C   UNL     1       3.916  14.383  18.296  0.00  0.00    +0.000 C 
BRANCH  25  27
ATOM     27  C   UNL     1       6.552  15.286  17.839  0.00  0.00    +0.000 C 
BRANCH  27  32
ATOM     28  C   UNL     1      10.181  12.094  18.145  0.00  0.00    +0.000 C 
ATOM     29  N   UNL     1       9.168  12.833  17.438  0.00  0.00    +0.000 N 
ATOM     30  C   UNL     1       8.359  13.713  18.108  0.00  0.00    +0.000 C 
ATOM     31  O   UNL     1       8.499  13.999  19.291  0.00  0.00    +0.000 OA
ATOM     32  N   UNL     1       7.380  14.236  17.307  0.00  0.00    +0.000 N 
ATOM     33  H   UNL     1       8.858  12.493  16.540  0.00  0.00    +0.000 HD
ATOM     34  H   UNL     1       7.491  14.175  16.308  0.00  0.00    +0.000 HD
ENDBRANCH  27  32
ENDBRANCH  25  27
ENDBRANCH   1  26
BRANCH   9  35
ATOM     35  C   UNL     1      -0.749  16.631  18.478  0.00  0.00    +0.000 C 
BRANCH  35  36
ATOM     36  C   UNL     1      -0.345  17.757  19.451  0.00  0.00    +0.000 C 
ATOM     37  C   UNL     1       0.784  18.631  18.901  0.00  0.00    +0.000 C 
ATOM     38  C   UNL     1      -1.558  18.631  19.779  0.00  0.00    +0.000 C 
ENDBRANCH  35  36
ENDBRANCH   9  35
TORSDOF 8
ENDMDL
MODEL 8
REMARK VINA RESULT:      -7.8      5.695      8.174
REMARK  Name = 
REMARK  11 active torsions:
REMARK  status: ('A' for Active; 'I' for Inactive)
REMARK    1  A    between atoms: C_1  and  N_2
REMARK    2  A    between atoms: N_5  and  C_6
REMARK    3  A    between atoms: C_6  and  C_7
REMARK    4  A    between atoms: C_8  and  C_9
REMARK    5  A    between atoms: C_12  and  C_13
REMARK    6  A    between atoms: C_16  and  C_17
REMARK    7  A    between atoms: N_19  and  C_20
REMARK    8  A    between atoms: N_29  and  C_30
REMARK    9  A    between atoms: C_30  and  C_31
REMARK   10  A    between atoms: C_31  and  C_32
REMARK   11  A    between atoms: C_31  and  C_33
REMARK                            x       y       z     vdW  Elec       q    Type
REMARK                         _______ _______ _______ _____ _____    ______ ____
ROOT
ATOM      1  C   UNL     1       1.223  11.051  18.513  0.00  0.00    +0.000 A 
ATOM      2  C   UNL     1       2.131  12.021  18.701  0.00  0.00    +0.000 A 
ATOM      3  N   UNL     1       1.703  13.335  18.716  0.00  0.00    +0.000 N 
ATOM      4  C   UNL     1       2.360  14.556  18.840  0.00  0.00    +0.000 A 
ATOM      5  C   UNL     1       1.319  15.475  18.850  0.00  0.00    +0.000 A 
ATOM      6  N   UNL     1       0.086  14.881  18.702  0.00  0.00    +0.000 NA
ATOM      7  C   UNL     1       0.361  13.600  18.601  0.00  0.00    +0.000 A 
ATOM      8  C   UNL     1      -0.582  12.497  18.451  0.00  0.00    +0.000 A 
ATOM      9  N   UNL     1      -1.940  12.745  18.375  0.00  0.00    +0.000 N 
ATOM     10  N   UNL     1      -0.134  11.264  18.393  0.00  0.00    +0.000 NA
ATOM     11  H   UNL     1      -2.181  13.724  18.508  0.00  0.00    +0.000 HD
ENDROOT
BRANCH   4  12
ATOM     12  C   UNL     1       3.815  14.751  18.937  0.00  0.00    +0.000 A 
ATOM     13  C   UNL     1       4.623  14.738  17.798  0.00  0.00    +0.000 A 
ATOM     14  C   UNL     1       6.012  14.826  17.897  0.00  0.00    +0.000 A 
ATOM     15  C   UNL     1       6.644  14.991  19.136  0.00  0.00    +0.000 A 
ATOM     16  C   UNL     1       5.845  15.089  20.279  0.00  0.00    +0.000 A 
ATOM     17  C   UNL     1       4.443  14.962  20.176  0.00  0.00    +0.000 A 
BRANCH  15  18
ATOM     18  C   UNL     1       8.136  15.047  19.110  0.00  0.00    +0.000 C 
ATOM     19  O   UNL     1       8.731  15.432  20.121  0.00  0.00    +0.000 OA
ATOM     20  N   UNL     1       8.818  14.701  17.955  0.00  0.00    +0.000 N 
ATOM     21  H   UNL     1       8.333  14.456  17.106  0.00  0.00    +0.000 HD
BRANCH  20  22
ATOM     22  C   UNL     1      10.241  14.892  17.909  0.00  0.00    +0.000 C 
ATOM     23  C   UNL     1      11.051  14.141  16.885  0.00  0.00    +0.000 C 
ATOM     24  C   UNL     1      10.956  15.637  16.823  0.00  0.00    +0.000 C 
ENDBRANCH  20  22
ENDBRANCH  15  18
ENDBRANCH   4  12
BRANCH   1  26
ATOM     25  C   UNL     1       2.193   8.403  18.371  0.00  0.00    +0.000 C 
ATOM     26  C   UNL     1       1.745   9.625  18.436  0.00  0.00    +0.000 C 
BRANCH  25  27
ATOM     27  C   UNL     1       2.715   6.977  18.294  0.00  0.00    +0.000 C 
BRANCH  27  32
ATOM     28  C   UNL     1       2.046   3.514  21.612  0.00  0.00    +0.000 C 
ATOM     29  N   UNL     1       2.453   4.824  21.179  0.00  0.00    +0.000 N 
ATOM     30  C   UNL     1       2.349   5.181  19.859  0.00  0.00    +0.000 C 
ATOM     31  O   UNL     1       1.830   4.474  19.004  0.00  0.00    +0.000 OA
ATOM     32  N   UNL     1       2.889   6.413  19.607  0.00  0.00    +0.000 N 
ATOM     33  H   UNL     1       3.077   5.358  21.765  0.00  0.00    +0.000 HD
ATOM     34  H   UNL     1       3.041   7.039  20.379  0.00  0.00    +0.000 HD
ENDBRANCH  27  32
ENDBRANCH  25  27
ENDBRANCH   1  26
BRANCH   9  35
ATOM     35  C   UNL     1      -2.944  11.796  18.826  0.00  0.00    +0.000 C 
BRANCH  35  36
ATOM     36  C   UNL     1      -3.676  11.104  17.658  0.00  0.00    +0.000 C 
ATOM     37  C   UNL     1      -3.295   9.629  17.519  0.00  0.00    +0.000 C 
ATOM     38  C   UNL     1      -5.191  11.229  17.837  0.00  0.00    +0.000 C 
ENDBRANCH  35  36
ENDBRANCH   9  35
TORSDOF 8
ENDMDL
MODEL 9
REMARK VINA RESULT:      -7.7      4.875      7.876
REMARK  Name = 
REMARK  11 active torsions:
REMARK  status: ('A' for Active; 'I' for Inactive)
REMARK    1  A    between atoms: C_1  and  N_2
REMARK    2  A    between atoms: N_5  and  C_6
REMARK    3  A    between atoms: C_6  and  C_7
REMARK    4  A    between atoms: C_8  and  C_9
REMARK    5  A    between atoms: C_12  and  C_13
REMARK    6  A    between atoms: C_16  and  C_17
REMARK    7  A    between atoms: N_19  and  C_20
REMARK    8  A    between atoms: N_29  and  C_30
REMARK    9  A    between atoms: C_30  and  C_31
REMARK   10  A    between atoms: C_31  and  C_32
REMARK   11  A    between atoms: C_31  and  C_33
REMARK                            x       y       z     vdW  Elec       q    Type
REMARK                         _______ _______ _______ _____ _____    ______ ____
ROOT
ATOM      1  C   UNL     1       2.646  14.240  19.223  0.00  0.00    +0.000 A 
ATOM      2  C   UNL     1       2.336  12.938  19.138  0.00  0.00    +0.000 A 
ATOM      3  N   UNL     1       1.071  12.531  19.519  0.00  0.00    +0.000 N 
ATOM      4  C   UNL     1       0.447  11.289  19.598  0.00  0.00    +0.000 A 
ATOM      5  C   UNL     1      -0.847  11.611  19.986  0.00  0.00    +0.000 A 
ATOM      6  N   UNL     1      -1.022  12.963  20.180  0.00  0.00    +0.000 NA
ATOM      7  C   UNL     1       0.158  13.477  19.913  0.00  0.00    +0.000 A 
ATOM      8  C   UNL     1       0.541  14.884  19.935  0.00  0.00    +0.000 A 
ATOM      9  N   UNL     1      -0.380  15.853  20.289  0.00  0.00    +0.000 N 
ATOM     10  N   UNL     1       1.766  15.229  19.611  0.00  0.00    +0.000 NA
ATOM     11  H   UNL     1      -1.315  15.485  20.445  0.00  0.00    +0.000 HD
ENDROOT
BRANCH   4  12
ATOM     12  C   UNL     1       1.069   9.987  19.317  0.00  0.00    +0.000 A 
ATOM     13  C   UNL     1       1.193   9.016  20.315  0.00  0.00    +0.000 A 
ATOM     14  C   UNL     1       1.869   7.819  20.077  0.00  0.00    +0.000 A 
ATOM     15  C   UNL     1       2.396   7.520  18.813  0.00  0.00    +0.000 A 
ATOM     16  C   UNL     1       2.209   8.444  17.782  0.00  0.00    +0.000 A 
ATOM     17  C   UNL     1       1.557   9.669  18.039  0.00  0.00    +0.000 A 
BRANCH  15  18
ATOM     18  C   UNL     1       3.118   6.217  18.695  0.00  0.00    +0.000 C 
ATOM     19  O   UNL     1       3.179   5.484  19.687  0.00  0.00    +0.000 OA
ATOM     20  N   UNL     1       3.726   5.872  17.500  0.00  0.00    +0.000 N 
ATOM     21  H   UNL     1       3.739   6.500  16.712  0.00  0.00    +0.000 HD
BRANCH  20  22
ATOM     22  C   UNL     1       4.528   4.682  17.451  0.00  0.00    +0.000 C 
ATOM     23  C   UNL     1       4.977   4.152  16.114  0.00  0.00    +0.000 C 
ATOM     24  C   UNL     1       5.985   4.661  17.102  0.00  0.00    +0.000 C 
ENDBRANCH  20  22
ENDBRANCH  15  18
ENDBRANCH   4  12
BRANCH   1  26
ATOM     25  C   UNL     1       5.286  14.973  18.542  0.00  0.00    +0.000 C 
ATOM     26  C   UNL     1       4.068  14.635  18.857  0.00  0.00    +0.000 C 
BRANCH  25  27
ATOM     27  C   UNL     1       6.708  15.368  18.176  0.00  0.00    +0.000 C 
BRANCH  27  32
ATOM     28  C   UNL     1      10.111  11.938  17.851  0.00  0.00    +0.000 C 
ATOM     29  N   UNL     1       9.073  12.781  17.318  0.00  0.00    +0.000 N 
ATOM     30  C   UNL     1       8.418  13.669  18.130  0.00  0.00    +0.000 C 
ATOM     31  O   UNL     1       8.723  13.874  19.299  0.00  0.00    +0.000 OA
ATOM     32  N   UNL     1       7.387  14.301  17.489  0.00  0.00    +0.000 N 
ATOM     33  H   UNL     1       8.631  12.516  16.451  0.00  0.00    +0.000 HD
ATOM     34  H   UNL     1       7.369  14.294  16.483  0.00  0.00    +0.000 HD
ENDBRANCH  27  32
ENDBRANCH  25  27
ENDBRANCH   1  26
BRANCH   9  35
ATOM     35  C   UNL     1      -0.329  17.216  19.786  0.00  0.00    +0.000 C 
BRANCH  35  36
ATOM     36  C   UNL     1      -1.111  17.393  18.469  0.00  0.00    +0.000 C 
ATOM     37  C   UNL     1      -2.246  18.411  18.594  0.00  0.00    +0.000 C 
ATOM     38  C   UNL     1      -0.162  17.817  17.345  0.00  0.00    +0.000 C 
ENDBRANCH  35  36
ENDBRANCH   9  35
TORSDOF 8
ENDMDL
