MODEL 1
REMARK VINA RESULT:      -7.9      0.000      0.000
REMARK  Name = 
REMARK  5 active torsions:
REMARK  status: ('A' for Active; 'I' for Inactive)
REMARK    1  A    between atoms: C_1  and  C_2
REMARK    2  A    between atoms: C_7  and  C_8
REMARK    3  A    between atoms: C_12  and  C_13
REMARK    4  A    between atoms: C_13  and  O_14
REMARK    5  A    between atoms: C_17  and  C_18
REMARK                            x       y       z     vdW  Elec       q    Type
REMARK                         _______ _______ _______ _____ _____    ______ ____
ROOT
ATOM      1  C   UNL     1       3.520   5.219  17.693  0.00  0.00    +0.000 C 
ATOM      2  O   UNL     1       2.836   4.307  17.230  0.00  0.00    +0.000 OA
ATOM      3  N   UNL     1       4.893   5.316  17.455  0.00  0.00    +0.000 N 
ATOM      4  C   UNL     1       5.482   4.460  16.412  0.00  0.00    +0.000 C 
ATOM      5  C   UNL     1       6.290   5.320  15.419  0.00  0.00    +0.000 C 
ATOM      6  O   UNL     1       7.277   6.122  16.117  0.00  0.00    +0.000 OA
ATOM      7  C   UNL     1       6.649   6.989  17.077  0.00  0.00    +0.000 C 
ATOM      8  C   UNL     1       5.881   6.181  18.141  0.00  0.00    +0.000 C 
ATOM      9  C   UNL     1       6.840   5.371  19.019  0.00  0.00    +0.000 C 
ENDROOT
BRANCH   1  16
ATOM     10  C   UNL     1       0.062  11.415  21.176  0.00  0.00    +0.000 C 
ATOM     11  C   UNL     1       0.702  10.433  20.245  0.00  0.00    +0.000 A 
ATOM     12  C   UNL     1       1.070  10.781  18.953  0.00  0.00    +0.000 A 
ATOM     13  C   UNL     1       1.668   9.815  18.143  0.00  0.00    +0.000 A 
ATOM     14  C   UNL     1       1.907   8.529  18.649  0.00  0.00    +0.000 A 
ATOM     15  C   UNL     1       2.523   7.502  17.897  0.00  0.00    +0.000 A 
ATOM     16  C   UNL     1       2.801   6.261  18.484  0.00  0.00    +0.000 A 
ATOM     17  C   UNL     1       2.516   6.084  19.836  0.00  0.00    +0.000 A 
ATOM     18  C   UNL     1       1.828   7.065  20.550  0.00  0.00    +0.000 A 
ATOM     19  C   UNL     1       1.524   8.286  19.983  0.00  0.00    +0.000 A 
ATOM     20  N   UNL     1       0.919   9.199  20.753  0.00  0.00    +0.000 NA
ENDBRANCH   1  16
BRANCH   5  21
ATOM     21  C   UNL     1       7.048   4.457  14.407  0.00  0.00    +0.000 C 
BRANCH  21  22
ATOM     22  O   UNL     1       6.252   3.343  14.005  0.00  0.00    +0.000 OA
ATOM     23  H   UNL     1       5.327   3.650  14.070  0.00  0.00    +0.000 HD
ENDBRANCH  21  22
ENDBRANCH   5  21
TORSDOF 3
ENDMDL
MODEL 2
REMARK VINA RESULT:      -7.8      0.967      1.101
REMARK  Name = 
REMARK  5 active torsions:
REMARK  status: ('A' for Active; 'I' for Inactive)
REMARK    1  A    between atoms: C_1  and  C_2
REMARK    2  A    between atoms: C_7  and  C_8
REMARK    3  A    between atoms: C_12  and  C_13
REMARK    4  A    between atoms: C_13  and  O_14
REMARK    5  A    between atoms: C_17  and  C_18
REMARK                            x       y       z     vdW  Elec       q    Type
REMARK                         _______ _______ _______ _____ _____    ______ ____
ROOT
ATOM      1  C   UNL     1       3.895   4.388  17.418  0.00  0.00    +0.000 C 
ATOM      2  O   UNL     1       3.273   3.429  16.961  0.00  0.00    +0.000 OA
ATOM      3  N   UNL     1       5.206   4.679  17.030  0.00  0.00    +0.000 N 
ATOM      4  C   UNL     1       5.757   3.981  15.857  0.00  0.00    +0.000 C 
ATOM      5  C   UNL     1       6.324   5.005  14.854  0.00  0.00    +0.000 C 
ATOM      6  O   UNL     1       7.288   5.879  15.497  0.00  0.00    +0.000 OA
ATOM      7  C   UNL     1       6.686   6.587  16.594  0.00  0.00    +0.000 C 
ATOM      8  C   UNL     1       6.161   5.614  17.668  0.00  0.00    +0.000 C 
ATOM      9  C   UNL     1       7.313   4.876  18.357  0.00  0.00    +0.000 C 
ENDROOT
BRANCH   1  16
ATOM     10  C   UNL     1       0.303   9.848  21.863  0.00  0.00    +0.000 C 
ATOM     11  C   UNL     1       0.950   9.041  20.781  0.00  0.00    +0.000 A 
ATOM     12  C   UNL     1       1.253   9.587  19.541  0.00  0.00    +0.000 A 
ATOM     13  C   UNL     1       1.863   8.777  18.583  0.00  0.00    +0.000 A 
ATOM     14  C   UNL     1       2.176   7.445  18.891  0.00  0.00    +0.000 A 
ATOM     15  C   UNL     1       2.808   6.568  17.979  0.00  0.00    +0.000 A 
ATOM     16  C   UNL     1       3.161   5.270  18.372  0.00  0.00    +0.000 A 
ATOM     17  C   UNL     1       2.935   4.889  19.693  0.00  0.00    +0.000 A 
ATOM     18  C   UNL     1       2.232   5.723  20.562  0.00  0.00    +0.000 A 
ATOM     19  C   UNL     1       1.854   6.996  20.187  0.00  0.00    +0.000 A 
ATOM     20  N   UNL     1       1.239   7.760  21.098  0.00  0.00    +0.000 NA
ENDBRANCH   1  16
BRANCH   5  21
ATOM     21  C   UNL     1       7.046   4.321  13.691  0.00  0.00    +0.000 C 
BRANCH  21  22
ATOM     22  O   UNL     1       6.284   3.215  13.210  0.00  0.00    +0.000 OA
ATOM     23  H   UNL     1       6.831   2.808  12.510  0.00  0.00    +0.000 HD
ENDBRANCH  21  22
ENDBRANCH   5  21
TORSDOF 3
ENDMDL
MODEL 3
REMARK VINA RESULT:      -7.5      2.618      4.213
REMARK  Name = 
REMARK  5 active torsions:
REMARK  status: ('A' for Active; 'I' for Inactive)
REMARK    1  A    between atoms: C_1  and  C_2
REMARK    2  A    between atoms: C_7  and  C_8
REMARK    3  A    between atoms: C_12  and  C_13
REMARK    4  A    between atoms: C_13  and  O_14
REMARK    5  A    between atoms: C_17  and  C_18
REMARK                            x       y       z     vdW  Elec       q    Type
REMARK                         _______ _______ _______ _____ _____    ______ ____
ROOT
ATOM      1  C   UNL     1       3.444   5.981  18.473  0.00  0.00    +0.000 C 
ATOM      2  O   UNL     1       4.525   6.149  17.908  0.00  0.00    +0.000 OA
ATOM      3  N   UNL     1       2.999   4.716  18.869  0.00  0.00    +0.000 N 
ATOM      4  C   UNL     1       3.960   3.601  18.849  0.00  0.00    +0.000 C 
ATOM      5  C   UNL     1       3.974   2.894  20.219  0.00  0.00    +0.000 C 
ATOM      6  O   UNL     1       2.637   2.482  20.602  0.00  0.00    +0.000 OA
ATOM      7  C   UNL     1       1.752   3.613  20.672  0.00  0.00    +0.000 C 
ATOM      8  C   UNL     1       1.640   4.322  19.308  0.00  0.00    +0.000 C 
ATOM      9  C   UNL     1       0.941   3.431  18.277  0.00  0.00    +0.000 C 
ENDROOT
BRANCH   1  16
ATOM     10  C   UNL     1      -1.128  11.960  20.887  0.00  0.00    +0.000 C 
ATOM     11  C   UNL     1      -0.269  10.741  20.751  0.00  0.00    +0.000 A 
ATOM     12  C   UNL     1      -0.097   9.845  21.797  0.00  0.00    +0.000 A 
ATOM     13  C   UNL     1       0.713   8.727  21.596  0.00  0.00    +0.000 A 
ATOM     14  C   UNL     1       1.314   8.515  20.346  0.00  0.00    +0.000 A 
ATOM     15  C   UNL     1       2.133   7.398  20.060  0.00  0.00    +0.000 A 
ATOM     16  C   UNL     1       2.645   7.205  18.770  0.00  0.00    +0.000 A 
ATOM     17  C   UNL     1       2.278   8.100  17.767  0.00  0.00    +0.000 A 
ATOM     18  C   UNL     1       1.545   9.246  18.071  0.00  0.00    +0.000 A 
ATOM     19  C   UNL     1       1.052   9.467  19.341  0.00  0.00    +0.000 A 
ATOM     20  N   UNL     1       0.304  10.559  19.540  0.00  0.00    +0.000 NA
ENDBRANCH   1  16
BRANCH   5  21
ATOM     21  C   UNL     1       4.843   1.635  20.199  0.00  0.00    +0.000 C 
BRANCH  21  22
ATOM     22  O   UNL     1       5.439   1.417  21.477  0.00  0.00    +0.000 OA
ATOM     23  H   UNL     1       5.526   0.447  21.560  0.00  0.00    +0.000 HD
ENDBRANCH  21  22
ENDBRANCH   5  21
TORSDOF 3
ENDMDL
MODEL 4
REMARK VINA RESULT:      -7.5      0.946      1.700
REMARK  Name = 
REMARK  5 active torsions:
REMARK  status: ('A' for Active; 'I' for Inactive)
REMARK    1  A    between atoms: C_1  and  C_2
REMARK    2  A    between atoms: C_7  and  C_8
REMARK    3  A    between atoms: C_12  and  C_13
REMARK    4  A    between atoms: C_13  and  O_14
REMARK    5  A    between atoms: C_17  and  C_18
REMARK                            x       y       z     vdW  Elec       q    Type
REMARK                         _______ _______ _______ _____ _____    ______ ____
ROOT
ATOM      1  C   UNL     1       3.084   5.622  17.853  0.00  0.00    +0.000 C 
ATOM      2  O   UNL     1       2.279   4.719  17.628  0.00  0.00    +0.000 OA
ATOM      3  N   UNL     1       4.443   5.503  17.545  0.00  0.00    +0.000 N 
ATOM      4  C   UNL     1       4.869   4.382  16.692  0.00  0.00    +0.000 C 
ATOM      5  C   UNL     1       5.699   4.909  15.505  0.00  0.00    +0.000 C 
ATOM      6  O   UNL     1       6.808   5.719  15.971  0.00  0.00    +0.000 OA
ATOM      7  C   UNL     1       6.339   6.838  16.742  0.00  0.00    +0.000 C 
ATOM      8  C   UNL     1       5.559   6.371  17.987  0.00  0.00    +0.000 C 
ATOM      9  C   UNL     1       6.480   5.659  18.982  0.00  0.00    +0.000 C 
ENDROOT
BRANCH   1  16
ATOM     10  C   UNL     1      -0.170  11.732  21.669  0.00  0.00    +0.000 C 
ATOM     11  C   UNL     1       0.456  10.439  21.249  0.00  0.00    +0.000 A 
ATOM     12  C   UNL     1       0.578   9.366  22.122  0.00  0.00    +0.000 A 
ATOM     13  C   UNL     1       1.166   8.189  21.659  0.00  0.00    +0.000 A 
ATOM     14  C   UNL     1       1.599   8.100  20.328  0.00  0.00    +0.000 A 
ATOM     15  C   UNL     1       2.189   6.936  19.782  0.00  0.00    +0.000 A 
ATOM     16  C   UNL     1       2.533   6.886  18.425  0.00  0.00    +0.000 A 
ATOM     17  C   UNL     1       2.224   7.979  17.617  0.00  0.00    +0.000 A 
ATOM     18  C   UNL     1       1.726   9.155  18.176  0.00  0.00    +0.000 A 
ATOM     19  C   UNL     1       1.403   9.234  19.515  0.00  0.00    +0.000 A 
ATOM     20  N   UNL     1       0.870  10.377  19.964  0.00  0.00    +0.000 NA
ENDBRANCH   1  16
BRANCH   5  21
ATOM     21  C   UNL     1       6.293   3.768  14.676  0.00  0.00    +0.000 C 
BRANCH  21  22
ATOM     22  O   UNL     1       5.894   3.881  13.311  0.00  0.00    +0.000 OA
ATOM     23  H   UNL     1       6.249   4.740  13.008  0.00  0.00    +0.000 HD
ENDBRANCH  21  22
ENDBRANCH   5  21
TORSDOF 3
ENDMDL
MODEL 5
REMARK VINA RESULT:      -7.2      1.861      3.171
REMARK  Name = 
REMARK  5 active torsions:
REMARK  status: ('A' for Active; 'I' for Inactive)
REMARK    1  A    between atoms: C_1  and  C_2
REMARK    2  A    between atoms: C_7  and  C_8
REMARK    3  A    between atoms: C_12  and  C_13
REMARK    4  A    between atoms: C_13  and  O_14
REMARK    5  A    between atoms: C_17  and  C_18
REMARK                            x       y       z     vdW  Elec       q    Type
REMARK                         _______ _______ _______ _____ _____    ______ ____
ROOT
ATOM      1  C   UNL     1       2.692   7.719  18.072  0.00  0.00    +0.000 C 
ATOM      2  O   UNL     1       3.123   8.479  17.205  0.00  0.00    +0.000 OA
ATOM      3  N   UNL     1       3.032   6.364  18.111  0.00  0.00    +0.000 N 
ATOM      4  C   UNL     1       4.136   5.897  17.257  0.00  0.00    +0.000 C 
ATOM      5  C   UNL     1       5.167   5.125  18.104  0.00  0.00    +0.000 C 
ATOM      6  O   UNL     1       4.529   4.051  18.841  0.00  0.00    +0.000 OA
ATOM      7  C   UNL     1       3.505   4.562  19.710  0.00  0.00    +0.000 C 
ATOM      8  C   UNL     1       2.403   5.287  18.911  0.00  0.00    +0.000 C 
ATOM      9  C   UNL     1       1.620   4.305  18.034  0.00  0.00    +0.000 C 
ENDROOT
BRANCH   1  16
ATOM     10  C   UNL     1      -1.882  11.789  23.072  0.00  0.00    +0.000 C 
ATOM     11  C   UNL     1      -1.130  11.236  21.901  0.00  0.00    +0.000 A 
ATOM     12  C   UNL     1      -1.091  11.892  20.679  0.00  0.00    +0.000 A 
ATOM     13  C   UNL     1      -0.364  11.321  19.634  0.00  0.00    +0.000 A 
ATOM     14  C   UNL     1       0.328  10.118  19.839  0.00  0.00    +0.000 A 
ATOM     15  C   UNL     1       1.099   9.487  18.836  0.00  0.00    +0.000 A 
ATOM     16  C   UNL     1       1.826   8.325  19.125  0.00  0.00    +0.000 A 
ATOM     17  C   UNL     1       1.822   7.845  20.434  0.00  0.00    +0.000 A 
ATOM     18  C   UNL     1       0.991   8.416  21.397  0.00  0.00    +0.000 A 
ATOM     19  C   UNL     1       0.249   9.548  21.125  0.00  0.00    +0.000 A 
ATOM     20  N   UNL     1      -0.475  10.074  22.121  0.00  0.00    +0.000 NA
ENDBRANCH   1  16
BRANCH   5  21
ATOM     21  C   UNL     1       6.254   4.489  17.234  0.00  0.00    +0.000 C 
BRANCH  21  22
ATOM     22  O   UNL     1       7.425   4.231  18.006  0.00  0.00    +0.000 OA
ATOM     23  H   UNL     1       8.017   3.724  17.416  0.00  0.00    +0.000 HD
ENDBRANCH  21  22
ENDBRANCH   5  21
TORSDOF 3
ENDMDL
MODEL 6
REMARK VINA RESULT:      -7.1      2.084      3.232
REMARK  Name = 
REMARK  5 active torsions:
REMARK  status: ('A' for Active; 'I' for Inactive)
REMARK    1  A    between atoms: C_1  and  C_2
REMARK    2  A    between atoms: C_7  and  C_8
REMARK    3  A    between atoms: C_12  and  C_13
REMARK    4  A    between atoms: C_13  and  O_14
REMARK    5  A    between atoms: C_17  and  C_18
REMARK                            x       y       z     vdW  Elec       q    Type
REMARK                         _______ _______ _______ _____ _____    ______ ____
ROOT
ATOM      1  C   UNL     1       2.491   5.779  19.995  0.00  0.00    +0.000 C 
ATOM      2  O   UNL     1       1.849   5.277  20.917  0.00  0.00    +0.000 OA
ATOM      3  N   UNL     1       3.473   5.070  19.297  0.00  0.00    +0.000 N 
ATOM      4  C   UNL     1       3.552   3.613  19.493  0.00  0.00    +0.000 C 
ATOM      5  C   UNL     1       3.520   2.896  18.128  0.00  0.00    +0.000 C 
ATOM      6  O   UNL     1       4.558   3.407  17.253  0.00  0.00    +0.000 OA
ATOM      7  C   UNL     1       4.400   4.819  17.038  0.00  0.00    +0.000 C 
ATOM      8  C   UNL     1       4.494   5.600  18.364  0.00  0.00    +0.000 C 
ATOM      9  C   UNL     1       5.905   5.522  18.953  0.00  0.00    +0.000 C 
ENDROOT
BRANCH   1  16
ATOM     10  C   UNL     1      -0.010  13.183  18.807  0.00  0.00    +0.000 C 
ATOM     11  C   UNL     1       0.381  11.843  19.348  0.00  0.00    +0.000 A 
ATOM     12  C   UNL     1       0.079  11.460  20.648  0.00  0.00    +0.000 A 
ATOM     13  C   UNL     1       0.468  10.193  21.081  0.00  0.00    +0.000 A 
ATOM     14  C   UNL     1       1.131   9.326  20.201  0.00  0.00    +0.000 A 
ATOM     15  C   UNL     1       1.542   8.022  20.561  0.00  0.00    +0.000 A 
ATOM     16  C   UNL     1       2.134   7.177  19.613  0.00  0.00    +0.000 A 
ATOM     17  C   UNL     1       2.250   7.627  18.299  0.00  0.00    +0.000 A 
ATOM     18  C   UNL     1       1.927   8.943  17.968  0.00  0.00    +0.000 A 
ATOM     19  C   UNL     1       1.364   9.798  18.893  0.00  0.00    +0.000 A 
ATOM     20  N   UNL     1       1.022  11.026  18.483  0.00  0.00    +0.000 NA
ENDBRANCH   1  16
BRANCH   5  21
ATOM     21  C   UNL     1       3.755   1.391  18.272  0.00  0.00    +0.000 C 
BRANCH  21  22
ATOM     22  O   UNL     1       4.709   1.130  19.301  0.00  0.00    +0.000 OA
ATOM     23  H   UNL     1       4.239   1.307  20.140  0.00  0.00    +0.000 HD
ENDBRANCH  21  22
ENDBRANCH   5  21
TORSDOF 3
ENDMDL
MODEL 7
REMARK VINA RESULT:      -7.1      2.032      3.569
REMARK  Name = 
REMARK  5 active torsions:
REMARK  status: ('A' for Active; 'I' for Inactive)
REMARK    1  A    between atoms: C_1  and  C_2
REMARK    2  A    between atoms: C_7  and  C_8
REMARK    3  A    between atoms: C_12  and  C_13
REMARK    4  A    between atoms: C_13  and  O_14
REMARK    5  A    between atoms: C_17  and  C_18
REMARK                            x       y       z     vdW  Elec       q    Type
REMARK                         _______ _______ _______ _____ _____    ______ ____
ROOT
ATOM      1  C   UNL     1       2.727   7.745  17.763  0.00  0.00    +0.000 C 
ATOM      2  O   UNL     1       3.234   8.313  16.796  0.00  0.00    +0.000 OA
ATOM      3  N   UNL     1       2.992   6.406  18.064  0.00  0.00    +0.000 N 
ATOM      4  C   UNL     1       4.104   5.741  17.365  0.00  0.00    +0.000 C 
ATOM      5  C   UNL     1       5.056   5.091  18.390  0.00  0.00    +0.000 C 
ATOM      6  O   UNL     1       4.331   4.201  19.276  0.00  0.00    +0.000 OA
ATOM      7  C   UNL     1       3.301   4.909  19.985  0.00  0.00    +0.000 C 
ATOM      8  C   UNL     1       2.274   5.523  19.013  0.00  0.00    +0.000 C 
ATOM      9  C   UNL     1       1.475   4.434  18.290  0.00  0.00    +0.000 C 
ENDROOT
BRANCH   1  16
ATOM     10  C   UNL     1      -1.758  11.399  23.150  0.00  0.00    +0.000 C 
ATOM     11  C   UNL     1      -0.767  10.568  22.396  0.00  0.00    +0.000 A 
ATOM     12  C   UNL     1       0.011   9.605  23.025  0.00  0.00    +0.000 A 
ATOM     13  C   UNL     1       0.909   8.863  22.257  0.00  0.00    +0.000 A 
ATOM     14  C   UNL     1       0.994   9.081  20.875  0.00  0.00    +0.000 A 
ATOM     15  C   UNL     1       1.867   8.359  20.029  0.00  0.00    +0.000 A 
ATOM     16  C   UNL     1       1.852   8.573  18.644  0.00  0.00    +0.000 A 
ATOM     17  C   UNL     1       0.918   9.463  18.117  0.00  0.00    +0.000 A 
ATOM     18  C   UNL     1       0.123  10.238  18.960  0.00  0.00    +0.000 A 
ATOM     19  C   UNL     1       0.140  10.060  20.328  0.00  0.00    +0.000 A 
ATOM     20  N   UNL     1      -0.699  10.798  21.066  0.00  0.00    +0.000 NA
ENDBRANCH   1  16
BRANCH   5  21
ATOM     21  C   UNL     1       6.142   4.258  17.705  0.00  0.00    +0.000 C 
BRANCH  21  22
ATOM     22  O   UNL     1       7.362   4.325  18.441  0.00  0.00    +0.000 OA
ATOM     23  H   UNL     1       7.782   3.450  18.327  0.00  0.00    +0.000 HD
ENDBRANCH  21  22
ENDBRANCH   5  21
TORSDOF 3
ENDMDL
MODEL 8
REMARK VINA RESULT:      -6.9      2.885      4.183
REMARK  Name = 
REMARK  5 active torsions:
REMARK  status: ('A' for Active; 'I' for Inactive)
REMARK    1  A    between atoms: C_1  and  C_2
REMARK    2  A    between atoms: C_7  and  C_8
REMARK    3  A    between atoms: C_12  and  C_13
REMARK    4  A    between atoms: C_13  and  O_14
REMARK    5  A    between atoms: C_17  and  C_18
REMARK                            x       y       z     vdW  Elec       q    Type
REMARK                         _______ _______ _______ _____ _____    ______ ____
ROOT
ATOM      1  C   UNL     1       3.134   5.774  19.036  0.00  0.00    +0.000 C 
ATOM      2  O   UNL     1       4.135   5.999  18.357  0.00  0.00    +0.000 OA
ATOM      3  N   UNL     1       2.784   4.483  19.443  0.00  0.00    +0.000 N 
ATOM      4  C   UNL     1       3.776   3.407  19.280  0.00  0.00    +0.000 C 
ATOM      5  C   UNL     1       3.974   2.667  20.617  0.00  0.00    +0.000 C 
ATOM      6  O   UNL     1       2.706   2.193  21.138  0.00  0.00    +0.000 OA
ATOM      7  C   UNL     1       1.794   3.285  21.343  0.00  0.00    +0.000 C 
ATOM      8  C   UNL     1       1.500   4.024  20.022  0.00  0.00    +0.000 C 
ATOM      9  C   UNL     1       0.719   3.133  19.052  0.00  0.00    +0.000 C 
ENDROOT
BRANCH   1  16
ATOM     10  C   UNL     1      -0.660  12.551  20.502  0.00  0.00    +0.000 C 
ATOM     11  C   UNL     1       0.086  11.392  19.918  0.00  0.00    +0.000 A 
ATOM     12  C   UNL     1       0.644  11.445  18.647  0.00  0.00    +0.000 A 
ATOM     13  C   UNL     1       1.332  10.329  18.170  0.00  0.00    +0.000 A 
ATOM     14  C   UNL     1       1.469   9.193  18.981  0.00  0.00    +0.000 A 
ATOM     15  C   UNL     1       2.166   8.032  18.576  0.00  0.00    +0.000 A 
ATOM     16  C   UNL     1       2.331   6.958  19.460  0.00  0.00    +0.000 A 
ATOM     17  C   UNL     1       1.850   7.086  20.762  0.00  0.00    +0.000 A 
ATOM     18  C   UNL     1       1.087   8.194  21.130  0.00  0.00    +0.000 A 
ATOM     19  C   UNL     1       0.893   9.252  20.266  0.00  0.00    +0.000 A 
ATOM     20  N   UNL     1       0.203  10.307  20.715  0.00  0.00    +0.000 NA
ENDBRANCH   1  16
BRANCH   5  21
ATOM     21  C   UNL     1       4.880   1.443  20.460  0.00  0.00    +0.000 C 
BRANCH  21  22
ATOM     22  O   UNL     1       5.648   1.234  21.644  0.00  0.00    +0.000 OA
ATOM     23  H   UNL     1       6.519   1.638  21.461  0.00  0.00    +0.000 HD
ENDBRANCH  21  22
ENDBRANCH   5  21
TORSDOF 3
ENDMDL
MODEL 9
REMARK VINA RESULT:      -6.7      4.152      7.616
REMARK  Name = 
REMARK  5 active torsions:
REMARK  status: ('A' for Active; 'I' for Inactive)
REMARK    1  A    between atoms: C_1  and  C_2
REMARK    2  A    between atoms: C_7  and  C_8
REMARK    3  A    between atoms: C_12  and  C_13
REMARK    4  A    between atoms: C_13  and  O_14
REMARK    5  A    between atoms: C_17  and  C_18
REMARK                            x       y       z     vdW  Elec       q    Type
REMARK                         _______ _______ _______ _____ _____    ______ ____
ROOT
ATOM      1  C   UNL     1       1.150   8.631  20.913  0.00  0.00    +0.000 C 
ATOM      2  O   UNL     1       1.044   8.636  22.139  0.00  0.00    +0.000 OA
ATOM      3  N   UNL     1       0.877   9.761  20.137  0.00  0.00    +0.000 N 
ATOM      4  C   UNL     1       0.716  11.055  20.821  0.00  0.00    +0.000 C 
ATOM      5  C   UNL     1       1.645  12.106  20.182  0.00  0.00    +0.000 C 
ATOM      6  O   UNL     1       1.421  12.191  18.751  0.00  0.00    +0.000 OA
ATOM      7  C   UNL     1       1.654  10.922  18.119  0.00  0.00    +0.000 C 
ATOM      8  C   UNL     1       0.703   9.840  18.668  0.00  0.00    +0.000 C 
ATOM      9  C   UNL     1      -0.750  10.131  18.277  0.00  0.00    +0.000 C 
ENDROOT
BRANCH   1  16
ATOM     10  C   UNL     1       3.490   1.483  18.483  0.00  0.00    +0.000 C 
ATOM     11  C   UNL     1       2.851   2.663  19.147  0.00  0.00    +0.000 A 
ATOM     12  C   UNL     1       2.033   2.523  20.259  0.00  0.00    +0.000 A 
ATOM     13  C   UNL     1       1.476   3.668  20.830  0.00  0.00    +0.000 A 
ATOM     14  C   UNL     1       1.768   4.929  20.292  0.00  0.00    +0.000 A 
ATOM     15  C   UNL     1       1.256   6.135  20.825  0.00  0.00    +0.000 A 
ATOM     16  C   UNL     1       1.643   7.370  20.287  0.00  0.00    +0.000 A 
ATOM     17  C   UNL     1       2.588   7.383  19.263  0.00  0.00    +0.000 A 
ATOM     18  C   UNL     1       3.022   6.192  18.681  0.00  0.00    +0.000 A 
ATOM     19  C   UNL     1       2.633   4.966  19.181  0.00  0.00    +0.000 A 
ATOM     20  N   UNL     1       3.142   3.868  18.609  0.00  0.00    +0.000 NA
ENDBRANCH   1  16
BRANCH   5  21
ATOM     21  C   UNL     1       1.401  13.503  20.758  0.00  0.00    +0.000 C 
BRANCH  21  22
ATOM     22  O   UNL     1       0.621  13.424  21.949  0.00  0.00    +0.000 OA
ATOM     23  H   UNL     1       0.290  14.331  22.102  0.00  0.00    +0.000 HD
ENDBRANCH  21  22
ENDBRANCH   5  21
TORSDOF 3
ENDMDL
