MODEL 1
REMARK VINA RESULT:      -8.3      0.000      0.000
REMARK  Name = 
REMARK  3 active torsions:
REMARK  status: ('A' for Active; 'I' for Inactive)
REMARK    1  A    between atoms: N_7  and  C_8
REMARK    2  A    between atoms: C_8  and  C_9
REMARK    3  A    between atoms: C_9  and  C_10
REMARK                            x       y       z     vdW  Elec       q    Type
REMARK                         _______ _______ _______ _____ _____    ______ ____
ROOT
ATOM      1  C   UNL     1       0.894  10.093  18.826  0.00  0.00    +0.000 A 
ATOM      2  N   UNL     1       1.220  10.367  20.121  0.00  0.00    +0.000 NA
ATOM      3  C   UNL     1       0.312  10.966  20.925  0.00  0.00    +0.000 A 
ATOM      4  C   UNL     1      -0.974  11.323  20.533  0.00  0.00    +0.000 A 
ATOM      5  C   UNL     1      -1.331  11.045  19.218  0.00  0.00    +0.000 A 
ATOM      6  C   UNL     1      -0.395  10.435  18.395  0.00  0.00    +0.000 A 
ATOM      7  N   UNL     1      -0.979  10.255  17.163  0.00  0.00    +0.000 N 
ATOM      8  C   UNL     1      -2.276  10.696  17.169  0.00  0.00    +0.000 A 
ATOM      9  C   UNL     1      -3.233  10.663  16.154  0.00  0.00    +0.000 A 
ATOM     10  C   UNL     1      -4.492  11.196  16.438  0.00  0.00    +0.000 A 
ATOM     11  C   UNL     1      -4.776  11.734  17.694  0.00  0.00    +0.000 A 
ATOM     12  C   UNL     1      -3.801  11.751  18.706  0.00  0.00    +0.000 A 
ATOM     13  C   UNL     1      -2.523  11.217  18.442  0.00  0.00    +0.000 A 
ATOM     14  H   UNL     1      -0.528   9.826  16.368  0.00  0.00    +0.000 HD
ENDROOT
BRANCH   1  15
ATOM     15  C   UNL     1       1.894   9.380  17.971  0.00  0.00    +0.000 C 
BRANCH  15  16
ATOM     16  C   UNL     1       1.765   7.859  18.166  0.00  0.00    +0.000 C 
BRANCH  16  23
ATOM     17  C   UNL     1       1.714   2.631  18.518  0.00  0.00    +0.000 C 
ATOM     18  C   UNL     1       2.959   2.122  18.330  0.00  0.00    +0.000 C 
ATOM     19  C   UNL     1       3.796   2.673  17.092  0.00  0.00    +0.000 C 
ATOM     20  C   UNL     1       3.717   4.134  17.454  0.00  0.00    +0.000 C 
ATOM     21  C   UNL     1       4.058   5.607  17.307  0.00  0.00    +0.000 C 
ATOM     22  C   UNL     1       3.320   6.068  18.623  0.00  0.00    +0.000 C 
ATOM     23  N   UNL     1       2.772   7.321  19.101  0.00  0.00    +0.000 NA
ATOM     24  C   UNL     1       2.142   6.948  20.424  0.00  0.00    +0.000 C 
ATOM     25  C   UNL     1       0.997   5.845  20.465  0.00  0.00    +0.000 C 
ATOM     26  C   UNL     1       1.367   4.323  20.714  0.00  0.00    +0.000 C 
ATOM     27  C   UNL     1       0.964   3.102  19.773  0.00  0.00    +0.000 C 
ENDBRANCH  16  23
ENDBRANCH  15  16
ENDBRANCH   1  15
TORSDOF 3
ENDMDL
MODEL 2
REMARK VINA RESULT:      -8.1      2.093      8.494
REMARK  Name = 
REMARK  3 active torsions:
REMARK  status: ('A' for Active; 'I' for Inactive)
REMARK    1  A    between atoms: N_7  and  C_8
REMARK    2  A    between atoms: C_8  and  C_9
REMARK    3  A    between atoms: C_9  and  C_10
REMARK                            x       y       z     vdW  Elec       q    Type
REMARK                         _______ _______ _______ _____ _____    ______ ____
ROOT
ATOM      1  C   UNL     1       2.074   4.510  19.619  0.00  0.00    +0.000 A 
ATOM      2  N   UNL     1       1.248   3.464  19.333  0.00  0.00    +0.000 NA
ATOM      3  C   UNL     1       1.525   2.664  18.278  0.00  0.00    +0.000 A 
ATOM      4  C   UNL     1       2.627   2.814  17.444  0.00  0.00    +0.000 A 
ATOM      5  C   UNL     1       3.488   3.869  17.722  0.00  0.00    +0.000 A 
ATOM      6  C   UNL     1       3.198   4.691  18.802  0.00  0.00    +0.000 A 
ATOM      7  N   UNL     1       4.188   5.642  18.879  0.00  0.00    +0.000 N 
ATOM      8  C   UNL     1       5.132   5.443  17.907  0.00  0.00    +0.000 A 
ATOM      9  C   UNL     1       6.314   6.143  17.656  0.00  0.00    +0.000 A 
ATOM     10  C   UNL     1       7.095   5.721  16.578  0.00  0.00    +0.000 A 
ATOM     11  C   UNL     1       6.705   4.636  15.791  0.00  0.00    +0.000 A 
ATOM     12  C   UNL     1       5.516   3.940  16.065  0.00  0.00    +0.000 A 
ATOM     13  C   UNL     1       4.712   4.346  17.149  0.00  0.00    +0.000 A 
ATOM     14  H   UNL     1       4.236   6.370  19.578  0.00  0.00    +0.000 HD
ENDROOT
BRANCH   1  15
ATOM     15  C   UNL     1       1.778   5.348  20.822  0.00  0.00    +0.000 C 
BRANCH  15  16
ATOM     16  C   UNL     1       1.070   6.647  20.399  0.00  0.00    +0.000 C 
BRANCH  16  23
ATOM     17  C   UNL     1      -1.419  11.241  20.006  0.00  0.00    +0.000 C 
ATOM     18  C   UNL     1      -1.019  12.093  20.985  0.00  0.00    +0.000 C 
ATOM     19  C   UNL     1      -0.956  11.524  22.471  0.00  0.00    +0.000 C 
ATOM     20  C   UNL     1      -0.043  10.359  22.181  0.00  0.00    +0.000 C 
ATOM     21  C   UNL     1       0.832   9.173  22.550  0.00  0.00    +0.000 C 
ATOM     22  C   UNL     1       1.393   8.937  21.095  0.00  0.00    +0.000 C 
ATOM     23  N   UNL     1       1.977   7.810  20.396  0.00  0.00    +0.000 NA
ATOM     24  C   UNL     1       2.184   8.336  18.993  0.00  0.00    +0.000 C 
ATOM     25  C   UNL     1       0.936   8.859  18.159  0.00  0.00    +0.000 C 
ATOM     26  C   UNL     1       0.538  10.394  18.200  0.00  0.00    +0.000 C 
ATOM     27  C   UNL     1      -0.896  10.972  18.587  0.00  0.00    +0.000 C 
ENDBRANCH  16  23
ENDBRANCH  15  16
ENDBRANCH   1  15
TORSDOF 3
ENDMDL
MODEL 3
REMARK VINA RESULT:      -7.8      2.371      8.314
REMARK  Name = 
REMARK  3 active torsions:
REMARK  status: ('A' for Active; 'I' for Inactive)
REMARK    1  A    between atoms: N_7  and  C_8
REMARK    2  A    between atoms: C_8  and  C_9
REMARK    3  A    between atoms: C_9  and  C_10
REMARK                            x       y       z     vdW  Elec       q    Type
REMARK                         _______ _______ _______ _____ _____    ______ ____
ROOT
ATOM      1  C   UNL     1       2.307   6.796  19.672  0.00  0.00    +0.000 A 
ATOM      2  N   UNL     1       1.830   5.929  20.609  0.00  0.00    +0.000 NA
ATOM      3  C   UNL     1       2.132   4.614  20.518  0.00  0.00    +0.000 A 
ATOM      4  C   UNL     1       2.929   4.056  19.524  0.00  0.00    +0.000 A 
ATOM      5  C   UNL     1       3.433   4.923  18.561  0.00  0.00    +0.000 A 
ATOM      6  C   UNL     1       3.117   6.271  18.655  0.00  0.00    +0.000 A 
ATOM      7  N   UNL     1       3.734   6.917  17.610  0.00  0.00    +0.000 N 
ATOM      8  C   UNL     1       4.470   6.039  16.860  0.00  0.00    +0.000 A 
ATOM      9  C   UNL     1       5.279   6.278  15.747  0.00  0.00    +0.000 A 
ATOM     10  C   UNL     1       5.917   5.179  15.168  0.00  0.00    +0.000 A 
ATOM     11  C   UNL     1       5.753   3.896  15.692  0.00  0.00    +0.000 A 
ATOM     12  C   UNL     1       4.941   3.678  16.818  0.00  0.00    +0.000 A 
ATOM     13  C   UNL     1       4.288   4.772  17.420  0.00  0.00    +0.000 A 
ATOM     14  H   UNL     1       3.681   7.911  17.435  0.00  0.00    +0.000 HD
ENDROOT
BRANCH   1  15
ATOM     15  C   UNL     1       2.006   8.253  19.824  0.00  0.00    +0.000 C 
BRANCH  15  16
ATOM     16  C   UNL     1       1.305   8.509  21.170  0.00  0.00    +0.000 C 
BRANCH  16  23
ATOM     17  C   UNL     1      -0.409  13.460  21.102  0.00  0.00    +0.000 C 
ATOM     18  C   UNL     1      -1.214  13.678  20.030  0.00  0.00    +0.000 C 
ATOM     19  C   UNL     1      -0.705  13.156  18.614  0.00  0.00    +0.000 C 
ATOM     20  C   UNL     1      -0.496  11.718  19.014  0.00  0.00    +0.000 C 
ATOM     21  C   UNL     1      -0.187  10.252  18.761  0.00  0.00    +0.000 C 
ATOM     22  C   UNL     1      -0.525   9.770  20.225  0.00  0.00    +0.000 C 
ATOM     23  N   UNL     1      -0.159   8.624  21.032  0.00  0.00    +0.000 NA
ATOM     24  C   UNL     1      -0.811   8.912  22.367  0.00  0.00    +0.000 C 
ATOM     25  C   UNL     1      -0.425  10.235  23.159  0.00  0.00    +0.000 C 
ATOM     26  C   UNL     1      -1.274  11.559  22.957  0.00  0.00    +0.000 C 
ATOM     27  C   UNL     1      -0.694  12.981  22.533  0.00  0.00    +0.000 C 
ENDBRANCH  16  23
ENDBRANCH  15  16
ENDBRANCH   1  15
TORSDOF 3
ENDMDL
MODEL 4
REMARK VINA RESULT:      -7.8      2.754      8.925
REMARK  Name = 
REMARK  3 active torsions:
REMARK  status: ('A' for Active; 'I' for Inactive)
REMARK    1  A    between atoms: N_7  and  C_8
REMARK    2  A    between atoms: C_8  and  C_9
REMARK    3  A    between atoms: C_9  and  C_10
REMARK                            x       y       z     vdW  Elec       q    Type
REMARK                         _______ _______ _______ _____ _____    ______ ____
ROOT
ATOM      1  C   UNL     1       1.611   8.238  19.758  0.00  0.00    +0.000 A 
ATOM      2  N   UNL     1       2.048   8.859  18.626  0.00  0.00    +0.000 NA
ATOM      3  C   UNL     1       2.856   8.194  17.769  0.00  0.00    +0.000 A 
ATOM      4  C   UNL     1       3.280   6.882  17.943  0.00  0.00    +0.000 A 
ATOM      5  C   UNL     1       2.841   6.225  19.087  0.00  0.00    +0.000 A 
ATOM      6  C   UNL     1       2.016   6.911  19.967  0.00  0.00    +0.000 A 
ATOM      7  N   UNL     1       1.710   6.059  21.001  0.00  0.00    +0.000 N 
ATOM      8  C   UNL     1       2.280   4.829  20.805  0.00  0.00    +0.000 A 
ATOM      9  C   UNL     1       2.190   3.671  21.580  0.00  0.00    +0.000 A 
ATOM     10  C   UNL     1       2.890   2.547  21.139  0.00  0.00    +0.000 A 
ATOM     11  C   UNL     1       3.643   2.585  19.964  0.00  0.00    +0.000 A 
ATOM     12  C   UNL     1       3.714   3.758  19.194  0.00  0.00    +0.000 A 
ATOM     13  C   UNL     1       3.015   4.906  19.618  0.00  0.00    +0.000 A 
ATOM     14  H   UNL     1       1.117   6.293  21.786  0.00  0.00    +0.000 HD
ENDROOT
BRANCH   1  15
ATOM     15  C   UNL     1       0.674   8.972  20.663  0.00  0.00    +0.000 C 
BRANCH  15  16
ATOM     16  C   UNL     1       0.548  10.439  20.214  0.00  0.00    +0.000 C 
BRANCH  16  23
ATOM     17  C   UNL     1      -3.245  13.789  21.571  0.00  0.00    +0.000 C 
ATOM     18  C   UNL     1      -3.426  13.795  22.917  0.00  0.00    +0.000 C 
ATOM     19  C   UNL     1      -3.525  12.384  23.649  0.00  0.00    +0.000 C 
ATOM     20  C   UNL     1      -2.215  11.827  23.151  0.00  0.00    +0.000 C 
ATOM     21  C   UNL     1      -1.091  10.808  23.085  0.00  0.00    +0.000 C 
ATOM     22  C   UNL     1      -0.148  11.678  22.166  0.00  0.00    +0.000 C 
ATOM     23  N   UNL     1       0.951  11.389  21.267  0.00  0.00    +0.000 NA
ATOM     24  C   UNL     1       1.289  12.741  20.680  0.00  0.00    +0.000 C 
ATOM     25  C   UNL     1       0.178  13.550  19.880  0.00  0.00    +0.000 C 
ATOM     26  C   UNL     1      -0.741  14.599  20.636  0.00  0.00    +0.000 C 
ATOM     27  C   UNL     1      -2.334  14.605  20.643  0.00  0.00    +0.000 C 
ENDBRANCH  16  23
ENDBRANCH  15  16
ENDBRANCH   1  15
TORSDOF 3
ENDMDL
MODEL 5
REMARK VINA RESULT:      -7.7      0.993      1.542
REMARK  Name = 
REMARK  3 active torsions:
REMARK  status: ('A' for Active; 'I' for Inactive)
REMARK    1  A    between atoms: N_7  and  C_8
REMARK    2  A    between atoms: C_8  and  C_9
REMARK    3  A    between atoms: C_9  and  C_10
REMARK                            x       y       z     vdW  Elec       q    Type
REMARK                         _______ _______ _______ _____ _____    ______ ____
ROOT
ATOM      1  C   UNL     1       0.782  10.089  18.742  0.00  0.00    +0.000 A 
ATOM      2  N   UNL     1       1.162  10.297  20.034  0.00  0.00    +0.000 NA
ATOM      3  C   UNL     1       0.297  10.875  20.899  0.00  0.00    +0.000 A 
ATOM      4  C   UNL     1      -0.995  11.273  20.574  0.00  0.00    +0.000 A 
ATOM      5  C   UNL     1      -1.407  11.064  19.262  0.00  0.00    +0.000 A 
ATOM      6  C   UNL     1      -0.515  10.475  18.376  0.00  0.00    +0.000 A 
ATOM      7  N   UNL     1      -1.148  10.364  17.161  0.00  0.00    +0.000 N 
ATOM      8  C   UNL     1      -2.435  10.828  17.237  0.00  0.00    +0.000 A 
ATOM      9  C   UNL     1      -3.430  10.860  16.259  0.00  0.00    +0.000 A 
ATOM     10  C   UNL     1      -4.666  11.403  16.615  0.00  0.00    +0.000 A 
ATOM     11  C   UNL     1      -4.892  11.887  17.905  0.00  0.00    +0.000 A 
ATOM     12  C   UNL     1      -3.879  11.838  18.878  0.00  0.00    +0.000 A 
ATOM     13  C   UNL     1      -2.624  11.293  18.541  0.00  0.00    +0.000 A 
ATOM     14  H   UNL     1      -0.736   9.964  16.330  0.00  0.00    +0.000 HD
ENDROOT
BRANCH   1  15
ATOM     15  C   UNL     1       1.734   9.399  17.817  0.00  0.00    +0.000 C 
BRANCH  15  16
ATOM     16  C   UNL     1       1.714   7.882  18.077  0.00  0.00    +0.000 C 
BRANCH  16  23
ATOM     17  C   UNL     1       3.917   3.422  16.432  0.00  0.00    +0.000 C 
ATOM     18  C   UNL     1       5.263   3.563  16.310  0.00  0.00    +0.000 C 
ATOM     19  C   UNL     1       5.797   4.859  15.554  0.00  0.00    +0.000 C 
ATOM     20  C   UNL     1       5.091   5.877  16.414  0.00  0.00    +0.000 C 
ATOM     21  C   UNL     1       4.765   7.280  16.896  0.00  0.00    +0.000 C 
ATOM     22  C   UNL     1       3.882   6.820  18.121  0.00  0.00    +0.000 C 
ATOM     23  N   UNL     1       2.841   7.437  18.917  0.00  0.00    +0.000 NA
ATOM     24  C   UNL     1       2.416   6.331  19.857  0.00  0.00    +0.000 C 
ATOM     25  C   UNL     1       1.859   4.966  19.261  0.00  0.00    +0.000 C 
ATOM     26  C   UNL     1       2.845   3.754  18.990  0.00  0.00    +0.000 C 
ATOM     27  C   UNL     1       3.021   2.991  17.602  0.00  0.00    +0.000 C 
ENDBRANCH  16  23
ENDBRANCH  15  16
ENDBRANCH   1  15
TORSDOF 3
ENDMDL
MODEL 6
REMARK VINA RESULT:      -7.7      2.573      3.549
REMARK  Name = 
REMARK  3 active torsions:
REMARK  status: ('A' for Active; 'I' for Inactive)
REMARK    1  A    between atoms: N_7  and  C_8
REMARK    2  A    between atoms: C_8  and  C_9
REMARK    3  A    between atoms: C_9  and  C_10
REMARK                            x       y       z     vdW  Elec       q    Type
REMARK                         _______ _______ _______ _____ _____    ______ ____
ROOT
ATOM      1  C   UNL     1       1.375  10.177  18.457  0.00  0.00    +0.000 A 
ATOM      2  N   UNL     1       0.267   9.716  19.102  0.00  0.00    +0.000 NA
ATOM      3  C   UNL     1      -0.539  10.588  19.750  0.00  0.00    +0.000 A 
ATOM      4  C   UNL     1      -0.335  11.962  19.801  0.00  0.00    +0.000 A 
ATOM      5  C   UNL     1       0.786  12.456  19.142  0.00  0.00    +0.000 A 
ATOM      6  C   UNL     1       1.613  11.558  18.483  0.00  0.00    +0.000 A 
ATOM      7  N   UNL     1       2.633  12.278  17.906  0.00  0.00    +0.000 N 
ATOM      8  C   UNL     1       2.476  13.619  18.139  0.00  0.00    +0.000 A 
ATOM      9  C   UNL     1       3.250  14.696  17.703  0.00  0.00    +0.000 A 
ATOM     10  C   UNL     1       2.856  15.974  18.102  0.00  0.00    +0.000 A 
ATOM     11  C   UNL     1       1.726  16.160  18.900  0.00  0.00    +0.000 A 
ATOM     12  C   UNL     1       0.955  15.064  19.321  0.00  0.00    +0.000 A 
ATOM     13  C   UNL     1       1.333  13.763  18.930  0.00  0.00    +0.000 A 
ATOM     14  H   UNL     1       3.381  11.880  17.356  0.00  0.00    +0.000 HD
ENDROOT
BRANCH   1  15
ATOM     15  C   UNL     1       2.221   9.202  17.701  0.00  0.00    +0.000 C 
BRANCH  15  16
ATOM     16  C   UNL     1       1.885   7.765  18.135  0.00  0.00    +0.000 C 
BRANCH  16  23
ATOM     17  C   UNL     1       1.641   2.551  18.604  0.00  0.00    +0.000 C 
ATOM     18  C   UNL     1       2.863   1.991  18.415  0.00  0.00    +0.000 C 
ATOM     19  C   UNL     1       3.707   2.483  17.157  0.00  0.00    +0.000 C 
ATOM     20  C   UNL     1       3.688   3.954  17.487  0.00  0.00    +0.000 C 
ATOM     21  C   UNL     1       4.082   5.409  17.303  0.00  0.00    +0.000 C 
ATOM     22  C   UNL     1       3.376   5.926  18.616  0.00  0.00    +0.000 C 
ATOM     23  N   UNL     1       2.882   7.210  19.072  0.00  0.00    +0.000 NA
ATOM     24  C   UNL     1       2.253   6.890  20.409  0.00  0.00    +0.000 C 
ATOM     25  C   UNL     1       1.067   5.832  20.486  0.00  0.00    +0.000 C 
ATOM     26  C   UNL     1       1.382   4.303  20.765  0.00  0.00    +0.000 C 
ATOM     27  C   UNL     1       0.923   3.078  19.856  0.00  0.00    +0.000 C 
ENDBRANCH  16  23
ENDBRANCH  15  16
ENDBRANCH   1  15
TORSDOF 3
ENDMDL
MODEL 7
REMARK VINA RESULT:      -7.6      3.531      8.582
REMARK  Name = 
REMARK  3 active torsions:
REMARK  status: ('A' for Active; 'I' for Inactive)
REMARK    1  A    between atoms: N_7  and  C_8
REMARK    2  A    between atoms: C_8  and  C_9
REMARK    3  A    between atoms: C_9  and  C_10
REMARK                            x       y       z     vdW  Elec       q    Type
REMARK                         _______ _______ _______ _____ _____    ______ ____
ROOT
ATOM      1  C   UNL     1       5.998   4.647  18.091  0.00  0.00    +0.000 A 
ATOM      2  N   UNL     1       6.580   5.685  18.756  0.00  0.00    +0.000 NA
ATOM      3  C   UNL     1       7.381   6.543  18.084  0.00  0.00    +0.000 A 
ATOM      4  C   UNL     1       7.659   6.462  16.724  0.00  0.00    +0.000 A 
ATOM      5  C   UNL     1       7.070   5.415  16.024  0.00  0.00    +0.000 A 
ATOM      6  C   UNL     1       6.252   4.534  16.717  0.00  0.00    +0.000 A 
ATOM      7  N   UNL     1       5.784   3.605  15.818  0.00  0.00    +0.000 N 
ATOM      8  C   UNL     1       6.243   3.874  14.555  0.00  0.00    +0.000 A 
ATOM      9  C   UNL     1       5.979   3.216  13.352  0.00  0.00    +0.000 A 
ATOM     10  C   UNL     1       6.596   3.709  12.201  0.00  0.00    +0.000 A 
ATOM     11  C   UNL     1       7.437   4.823  12.258  0.00  0.00    +0.000 A 
ATOM     12  C   UNL     1       7.683   5.475  13.478  0.00  0.00    +0.000 A 
ATOM     13  C   UNL     1       7.070   4.996  14.653  0.00  0.00    +0.000 A 
ATOM     14  H   UNL     1       5.160   2.844  16.046  0.00  0.00    +0.000 HD
ENDROOT
BRANCH   1  15
ATOM     15  C   UNL     1       5.072   3.744  18.842  0.00  0.00    +0.000 C 
BRANCH  15  16
ATOM     16  C   UNL     1       4.020   4.577  19.595  0.00  0.00    +0.000 C 
BRANCH  16  23
ATOM     17  C   UNL     1       1.519   9.145  20.175  0.00  0.00    +0.000 C 
ATOM     18  C   UNL     1       1.163   9.658  18.969  0.00  0.00    +0.000 C 
ATOM     19  C   UNL     1       2.270   9.674  17.824  0.00  0.00    +0.000 C 
ATOM     20  C   UNL     1       2.590   8.201  17.859  0.00  0.00    +0.000 C 
ATOM     21  C   UNL     1       3.257   6.928  17.368  0.00  0.00    +0.000 C 
ATOM     22  C   UNL     1       2.484   5.962  18.347  0.00  0.00    +0.000 C 
ATOM     23  N   UNL     1       2.730   4.638  18.881  0.00  0.00    +0.000 NA
ATOM     24  C   UNL     1       1.572   4.420  19.829  0.00  0.00    +0.000 C 
ATOM     25  C   UNL     1       1.352   5.423  21.043  0.00  0.00    +0.000 C 
ATOM     26  C   UNL     1       0.401   6.682  20.873  0.00  0.00    +0.000 C 
ATOM     27  C   UNL     1       0.806   8.197  21.151  0.00  0.00    +0.000 C 
ENDBRANCH  16  23
ENDBRANCH  15  16
ENDBRANCH   1  15
TORSDOF 3
ENDMDL
MODEL 8
REMARK VINA RESULT:      -7.6      2.100      8.840
REMARK  Name = 
REMARK  3 active torsions:
REMARK  status: ('A' for Active; 'I' for Inactive)
REMARK    1  A    between atoms: N_7  and  C_8
REMARK    2  A    between atoms: C_8  and  C_9
REMARK    3  A    between atoms: C_9  and  C_10
REMARK                            x       y       z     vdW  Elec       q    Type
REMARK                         _______ _______ _______ _____ _____    ______ ____
ROOT
ATOM      1  C   UNL     1       1.519   8.338  20.054  0.00  0.00    +0.000 A 
ATOM      2  N   UNL     1       1.815   9.006  18.903  0.00  0.00    +0.000 NA
ATOM      3  C   UNL     1       2.475   8.366  17.911  0.00  0.00    +0.000 A 
ATOM      4  C   UNL     1       2.876   7.036  17.960  0.00  0.00    +0.000 A 
ATOM      5  C   UNL     1       2.577   6.332  19.122  0.00  0.00    +0.000 A 
ATOM      6  C   UNL     1       1.905   6.993  20.140  0.00  0.00    +0.000 A 
ATOM      7  N   UNL     1       1.716   6.096  21.165  0.00  0.00    +0.000 N 
ATOM      8  C   UNL     1       2.213   4.864  20.833  0.00  0.00    +0.000 A 
ATOM      9  C   UNL     1       2.193   3.670  21.556  0.00  0.00    +0.000 A 
ATOM     10  C   UNL     1       2.788   2.552  20.969  0.00  0.00    +0.000 A 
ATOM     11  C   UNL     1       3.372   2.631  19.703  0.00  0.00    +0.000 A 
ATOM     12  C   UNL     1       3.375   3.841  18.988  0.00  0.00    +0.000 A 
ATOM     13  C   UNL     1       2.779   4.982  19.560  0.00  0.00    +0.000 A 
ATOM     14  H   UNL     1       1.246   6.304  22.035  0.00  0.00    +0.000 HD
ENDROOT
BRANCH   1  15
ATOM     15  C   UNL     1       0.741   9.048  21.115  0.00  0.00    +0.000 C 
BRANCH  15  16
ATOM     16  C   UNL     1      -0.471   9.763  20.491  0.00  0.00    +0.000 C 
BRANCH  16  23
ATOM     17  C   UNL     1      -4.874  12.379  21.600  0.00  0.00    +0.000 C 
ATOM     18  C   UNL     1      -4.657  13.298  22.577  0.00  0.00    +0.000 C 
ATOM     19  C   UNL     1      -3.853  12.820  23.866  0.00  0.00    +0.000 C 
ATOM     20  C   UNL     1      -2.633  12.311  23.142  0.00  0.00    +0.000 C 
ATOM     21  C   UNL     1      -1.223  11.753  23.048  0.00  0.00    +0.000 C 
ATOM     22  C   UNL     1      -1.115  11.870  21.479  0.00  0.00    +0.000 C 
ATOM     23  N   UNL     1      -0.309  11.229  20.460  0.00  0.00    +0.000 NA
ATOM     24  C   UNL     1      -0.846  11.809  19.170  0.00  0.00    +0.000 C 
ATOM     25  C   UNL     1      -2.381  11.614  18.801  0.00  0.00    +0.000 C 
ATOM     26  C   UNL     1      -3.445  12.712  19.222  0.00  0.00    +0.000 C 
ATOM     27  C   UNL     1      -4.769  12.448  20.069  0.00  0.00    +0.000 C 
ENDBRANCH  16  23
ENDBRANCH  15  16
ENDBRANCH   1  15
TORSDOF 3
ENDMDL
MODEL 9
REMARK VINA RESULT:      -7.6      1.683      8.656
REMARK  Name = 
REMARK  3 active torsions:
REMARK  status: ('A' for Active; 'I' for Inactive)
REMARK    1  A    between atoms: N_7  and  C_8
REMARK    2  A    between atoms: C_8  and  C_9
REMARK    3  A    between atoms: C_9  and  C_10
REMARK                            x       y       z     vdW  Elec       q    Type
REMARK                         _______ _______ _______ _____ _____    ______ ____
ROOT
ATOM      1  C   UNL     1       1.676   8.380  19.934  0.00  0.00    +0.000 A 
ATOM      2  N   UNL     1       2.010   8.991  18.763  0.00  0.00    +0.000 NA
ATOM      3  C   UNL     1       2.660   8.291  17.806  0.00  0.00    +0.000 A 
ATOM      4  C   UNL     1       3.014   6.951  17.913  0.00  0.00    +0.000 A 
ATOM      5  C   UNL     1       2.676   6.304  19.097  0.00  0.00    +0.000 A 
ATOM      6  C   UNL     1       2.013   7.026  20.079  0.00  0.00    +0.000 A 
ATOM      7  N   UNL     1       1.780   6.178  21.135  0.00  0.00    +0.000 N 
ATOM      8  C   UNL     1       2.239   4.917  20.858  0.00  0.00    +0.000 A 
ATOM      9  C   UNL     1       2.167   3.754  21.626  0.00  0.00    +0.000 A 
ATOM     10  C   UNL     1       2.731   2.594  21.092  0.00  0.00    +0.000 A 
ATOM     11  C   UNL     1       3.334   2.604  19.833  0.00  0.00    +0.000 A 
ATOM     12  C   UNL     1       3.388   3.783  19.071  0.00  0.00    +0.000 A 
ATOM     13  C   UNL     1       2.825   4.966  19.590  0.00  0.00    +0.000 A 
ATOM     14  H   UNL     1       1.306   6.436  21.989  0.00  0.00    +0.000 HD
ENDROOT
BRANCH   1  15
ATOM     15  C   UNL     1       0.908   9.158  20.955  0.00  0.00    +0.000 C 
BRANCH  15  16
ATOM     16  C   UNL     1      -0.425   9.640  20.358  0.00  0.00    +0.000 C 
BRANCH  16  23
ATOM     17  C   UNL     1      -5.105  11.821  19.465  0.00  0.00    +0.000 C 
ATOM     18  C   UNL     1      -5.193  13.039  20.060  0.00  0.00    +0.000 C 
ATOM     19  C   UNL     1      -4.712  13.149  21.575  0.00  0.00    +0.000 C 
ATOM     20  C   UNL     1      -3.323  12.603  21.366  0.00  0.00    +0.000 C 
ATOM     21  C   UNL     1      -1.906  12.254  21.787  0.00  0.00    +0.000 C 
ATOM     22  C   UNL     1      -1.414  11.843  20.345  0.00  0.00    +0.000 C 
ATOM     23  N   UNL     1      -0.343  11.014  19.829  0.00  0.00    +0.000 NA
ATOM     24  C   UNL     1      -0.571  11.037  18.334  0.00  0.00    +0.000 C 
ATOM     25  C   UNL     1      -1.951  10.511  17.742  0.00  0.00    +0.000 C 
ATOM     26  C   UNL     1      -3.147  11.523  17.495  0.00  0.00    +0.000 C 
ATOM     27  C   UNL     1      -4.624  11.377  18.075  0.00  0.00    +0.000 C 
ENDBRANCH  16  23
ENDBRANCH  15  16
ENDBRANCH   1  15
TORSDOF 3
ENDMDL
