MODEL 1
REMARK VINA RESULT:      -8.3      0.000      0.000
REMARK  Name = 
REMARK  7 active torsions:
REMARK  status: ('A' for Active; 'I' for Inactive)
REMARK    1  A    between atoms: C_1  and  C_2
REMARK    2  A    between atoms: C_7  and  C_8
REMARK    3  A    between atoms: C_9  and  C_10
REMARK    4  A    between atoms: C_15  and  N_16
REMARK    5  A    between atoms: C_19  and  N_20
REMARK    6  A    between atoms: N_20  and  C_21
REMARK    7  A    between atoms: N_20  and  C_27
REMARK                            x       y       z     vdW  Elec       q    Type
REMARK                         _______ _______ _______ _____ _____    ______ ____
ROOT
ATOM      1  N   UNL     1       1.637  11.621  19.328  0.00  0.00    +0.000 NA
ATOM      2  C   UNL     1       1.541  12.543  18.188  0.00  0.00    +0.000 C 
ATOM      3  C   UNL     1       2.487  13.722  18.292  0.00  0.00    +0.000 C 
ATOM      4  C   UNL     1       2.188  14.587  19.533  0.00  0.00    +0.000 C 
ATOM      5  C   UNL     1       2.488  13.604  20.688  0.00  0.00    +0.000 C 
ATOM      6  C   UNL     1       1.677  12.292  20.627  0.00  0.00    +0.000 C 
ENDROOT
BRANCH   1  12
ATOM      7  C   UNL     1       2.647   6.554  19.291  0.00  0.00    +0.000 C 
ATOM      8  O   UNL     1       2.947   6.163  20.426  0.00  0.00    +0.000 OA
ATOM      9  N   UNL     1       1.844   7.714  19.127  0.00  0.00    +0.000 N 
ATOM     10  C   UNL     1       1.578   8.419  20.381  0.00  0.00    +0.000 C 
ATOM     11  C   UNL     1       0.505   9.486  20.318  0.00  0.00    +0.000 C 
ATOM     12  C   UNL     1       0.678  10.488  19.158  0.00  0.00    +0.000 C 
ATOM     13  C   UNL     1       0.809   9.665  17.864  0.00  0.00    +0.000 C 
ATOM     14  C   UNL     1       1.833   8.537  17.926  0.00  0.00    +0.000 C 
BRANCH   7  23
ATOM     15  C   UNL     1       5.165   7.146  17.427  0.00  0.00    +0.000 C 
ATOM     16  C   UNL     1       4.329   5.896  17.427  0.00  0.00    +0.000 A 
ATOM     17  C   UNL     1       4.825   4.876  16.600  0.00  0.00    +0.000 A 
ATOM     18  C   UNL     1       4.245   3.624  16.595  0.00  0.00    +0.000 A 
ATOM     19  N   UNL     1       3.123   3.349  17.343  0.00  0.00    +0.000 N 
ATOM     20  O   UNL     1       2.663   2.161  17.318  0.00  0.00    +0.000 OA
ATOM     21  C   UNL     1       2.538   4.370  18.104  0.00  0.00    +0.000 A 
ATOM     22  C   UNL     1       1.293   3.978  18.850  0.00  0.00    +0.000 C 
ATOM     23  C   UNL     1       3.153   5.664  18.183  0.00  0.00    +0.000 A 
ENDBRANCH   7  23
ENDBRANCH   1  12
BRANCH   4  24
ATOM     24  N   UNL     1       0.849  15.327  19.512  0.00  0.00    +0.000 N 
BRANCH  24  25
ATOM     25  C   UNL     1      -0.202  14.952  20.397  0.00  0.00    +0.000 A 
ATOM     26  C   UNL     1      -0.381  15.516  21.669  0.00  0.00    +0.000 A 
ATOM     27  C   UNL     1      -1.385  15.073  22.544  0.00  0.00    +0.000 A 
ATOM     28  C   UNL     1      -2.323  14.141  22.114  0.00  0.00    +0.000 A 
ATOM     29  C   UNL     1      -2.255  13.651  20.816  0.00  0.00    +0.000 A 
ATOM     30  C   UNL     1      -1.193  14.036  19.980  0.00  0.00    +0.000 A 
ENDBRANCH  24  25
BRANCH  24  31
ATOM     31  C   UNL     1       0.704  16.443  18.614  0.00  0.00    +0.000 A 
ATOM     32  C   UNL     1       1.756  17.050  17.914  0.00  0.00    +0.000 A 
ATOM     33  C   UNL     1       1.551  18.048  16.947  0.00  0.00    +0.000 A 
ATOM     34  C   UNL     1       0.276  18.533  16.697  0.00  0.00    +0.000 A 
ATOM     35  C   UNL     1      -0.788  18.022  17.426  0.00  0.00    +0.000 A 
ATOM     36  C   UNL     1      -0.571  17.001  18.365  0.00  0.00    +0.000 A 
ENDBRANCH  24  31
ENDBRANCH   4  24
TORSDOF 5
ENDMDL
MODEL 2
REMARK VINA RESULT:      -8.1      0.072      3.151
REMARK  Name = 
REMARK  7 active torsions:
REMARK  status: ('A' for Active; 'I' for Inactive)
REMARK    1  A    between atoms: C_1  and  C_2
REMARK    2  A    between atoms: C_7  and  C_8
REMARK    3  A    between atoms: C_9  and  C_10
REMARK    4  A    between atoms: C_15  and  N_16
REMARK    5  A    between atoms: C_19  and  N_20
REMARK    6  A    between atoms: N_20  and  C_21
REMARK    7  A    between atoms: N_20  and  C_27
REMARK                            x       y       z     vdW  Elec       q    Type
REMARK                         _______ _______ _______ _____ _____    ______ ____
ROOT
ATOM      1  N   UNL     1       1.679  11.636  19.344  0.00  0.00    +0.000 NA
ATOM      2  C   UNL     1       1.607  12.557  18.203  0.00  0.00    +0.000 C 
ATOM      3  C   UNL     1       2.568  13.725  18.317  0.00  0.00    +0.000 C 
ATOM      4  C   UNL     1       2.266  14.594  19.554  0.00  0.00    +0.000 C 
ATOM      5  C   UNL     1       2.540  13.608  20.713  0.00  0.00    +0.000 C 
ATOM      6  C   UNL     1       1.714  12.307  20.644  0.00  0.00    +0.000 C 
ENDROOT
BRANCH   1  12
ATOM      7  C   UNL     1       2.625   6.556  19.312  0.00  0.00    +0.000 C 
ATOM      8  O   UNL     1       2.911   6.160  20.450  0.00  0.00    +0.000 OA
ATOM      9  N   UNL     1       1.839   7.726  19.141  0.00  0.00    +0.000 N 
ATOM     10  C   UNL     1       1.570   8.434  20.394  0.00  0.00    +0.000 C 
ATOM     11  C   UNL     1       0.511   9.513  20.321  0.00  0.00    +0.000 C 
ATOM     12  C   UNL     1       0.708  10.515  19.164  0.00  0.00    +0.000 C 
ATOM     13  C   UNL     1       0.840   9.691  17.870  0.00  0.00    +0.000 C 
ATOM     14  C   UNL     1       1.850   8.550  17.941  0.00  0.00    +0.000 C 
BRANCH   7  23
ATOM     15  C   UNL     1       5.153   7.131  17.455  0.00  0.00    +0.000 C 
ATOM     16  C   UNL     1       4.310   5.885  17.455  0.00  0.00    +0.000 A 
ATOM     17  C   UNL     1       4.804   4.861  16.632  0.00  0.00    +0.000 A 
ATOM     18  C   UNL     1       4.218   3.611  16.628  0.00  0.00    +0.000 A 
ATOM     19  N   UNL     1       3.092   3.344  17.374  0.00  0.00    +0.000 N 
ATOM     20  O   UNL     1       2.626   2.158  17.350  0.00  0.00    +0.000 OA
ATOM     21  C   UNL     1       2.510   4.369  18.130  0.00  0.00    +0.000 A 
ATOM     22  C   UNL     1       1.261   3.985  18.873  0.00  0.00    +0.000 C 
ATOM     23  C   UNL     1       3.131   5.661  18.208  0.00  0.00    +0.000 A 
ENDBRANCH   7  23
ENDBRANCH   1  12
BRANCH   4  24
ATOM     24  N   UNL     1       0.936  15.351  19.518  0.00  0.00    +0.000 N 
BRANCH  24  25
ATOM     25  C   UNL     1       0.724  16.403  18.581  0.00  0.00    +0.000 A 
ATOM     26  C   UNL     1      -0.532  16.972  18.327  0.00  0.00    +0.000 A 
ATOM     27  C   UNL     1      -0.716  17.958  17.345  0.00  0.00    +0.000 A 
ATOM     28  C   UNL     1       0.381  18.497  16.684  0.00  0.00    +0.000 A 
ATOM     29  C   UNL     1       1.657  18.048  16.999  0.00  0.00    +0.000 A 
ATOM     30  C   UNL     1       1.821  16.998  17.918  0.00  0.00    +0.000 A 
ENDBRANCH  24  25
BRANCH  24  31
ATOM     31  C   UNL     1      -0.108  14.932  20.416  0.00  0.00    +0.000 A 
ATOM     32  C   UNL     1      -0.247  15.366  21.742  0.00  0.00    +0.000 A 
ATOM     33  C   UNL     1      -1.356  15.036  22.539  0.00  0.00    +0.000 A 
ATOM     34  C   UNL     1      -2.340  14.188  22.056  0.00  0.00    +0.000 A 
ATOM     35  C   UNL     1      -2.204  13.665  20.779  0.00  0.00    +0.000 A 
ATOM     36  C   UNL     1      -1.107  14.031  19.983  0.00  0.00    +0.000 A 
ENDBRANCH  24  31
ENDBRANCH   4  24
TORSDOF 5
ENDMDL
MODEL 3
REMARK VINA RESULT:      -7.9      5.010      9.623
REMARK  Name = 
REMARK  7 active torsions:
REMARK  status: ('A' for Active; 'I' for Inactive)
REMARK    1  A    between atoms: C_1  and  C_2
REMARK    2  A    between atoms: C_7  and  C_8
REMARK    3  A    between atoms: C_9  and  C_10
REMARK    4  A    between atoms: C_15  and  N_16
REMARK    5  A    between atoms: C_19  and  N_20
REMARK    6  A    between atoms: N_20  and  C_21
REMARK    7  A    between atoms: N_20  and  C_27
REMARK                            x       y       z     vdW  Elec       q    Type
REMARK                         _______ _______ _______ _____ _____    ______ ____
ROOT
ATOM      1  N   UNL     1       0.635  14.893  20.247  0.00  0.00    +0.000 NA
ATOM      2  C   UNL     1       1.120  13.645  20.850  0.00  0.00    +0.000 C 
ATOM      3  C   UNL     1       1.611  12.638  19.827  0.00  0.00    +0.000 C 
ATOM      4  C   UNL     1       0.485  12.207  18.865  0.00  0.00    +0.000 C 
ATOM      5  C   UNL     1       0.157  13.534  18.142  0.00  0.00    +0.000 C 
ATOM      6  C   UNL     1      -0.233  14.689  19.087  0.00  0.00    +0.000 C 
ENDROOT
BRANCH   1  12
ATOM      7  C   UNL     1      -3.375  14.357  23.461  0.00  0.00    +0.000 C 
ATOM      8  O   UNL     1      -3.143  13.479  24.302  0.00  0.00    +0.000 OA
ATOM      9  N   UNL     1      -2.302  15.045  22.836  0.00  0.00    +0.000 N 
ATOM     10  C   UNL     1      -0.986  14.503  23.177  0.00  0.00    +0.000 C 
ATOM     11  C   UNL     1       0.198  15.360  22.779  0.00  0.00    +0.000 C 
ATOM     12  C   UNL     1       0.170  15.833  21.310  0.00  0.00    +0.000 C 
ATOM     13  C   UNL     1      -1.191  16.513  21.080  0.00  0.00    +0.000 C 
ATOM     14  C   UNL     1      -2.397  15.701  21.539  0.00  0.00    +0.000 C 
BRANCH   7  23
ATOM     15  C   UNL     1      -5.019  16.795  24.694  0.00  0.00    +0.000 C 
ATOM     16  C   UNL     1      -5.538  15.767  23.726  0.00  0.00    +0.000 A 
ATOM     17  C   UNL     1      -6.835  16.028  23.255  0.00  0.00    +0.000 A 
ATOM     18  C   UNL     1      -7.396  15.252  22.262  0.00  0.00    +0.000 A 
ATOM     19  N   UNL     1      -6.739  14.158  21.747  0.00  0.00    +0.000 N 
ATOM     20  O   UNL     1      -7.302  13.509  20.806  0.00  0.00    +0.000 OA
ATOM     21  C   UNL     1      -5.484  13.806  22.262  0.00  0.00    +0.000 A 
ATOM     22  C   UNL     1      -4.871  12.571  21.662  0.00  0.00    +0.000 C 
ATOM     23  C   UNL     1      -4.844  14.628  23.248  0.00  0.00    +0.000 A 
ENDBRANCH   7  23
ENDBRANCH   1  12
BRANCH   4  24
ATOM     24  N   UNL     1      -0.651  11.404  19.501  0.00  0.00    +0.000 N 
BRANCH  24  25
ATOM     25  C   UNL     1      -1.862  11.169  18.787  0.00  0.00    +0.000 A 
ATOM     26  C   UNL     1      -2.992  11.993  18.888  0.00  0.00    +0.000 A 
ATOM     27  C   UNL     1      -4.192  11.692  18.225  0.00  0.00    +0.000 A 
ATOM     28  C   UNL     1      -4.250  10.625  17.337  0.00  0.00    +0.000 A 
ATOM     29  C   UNL     1      -3.112   9.859  17.114  0.00  0.00    +0.000 A 
ATOM     30  C   UNL     1      -1.943  10.115  17.850  0.00  0.00    +0.000 A 
ENDBRANCH  24  25
BRANCH  24  31
ATOM     31  C   UNL     1      -0.439  10.848  20.811  0.00  0.00    +0.000 A 
ATOM     32  C   UNL     1      -1.116  11.249  21.972  0.00  0.00    +0.000 A 
ATOM     33  C   UNL     1      -0.974  10.587  23.203  0.00  0.00    +0.000 A 
ATOM     34  C   UNL     1      -0.082   9.535  23.336  0.00  0.00    +0.000 A 
ATOM     35  C   UNL     1       0.673   9.156  22.236  0.00  0.00    +0.000 A 
ATOM     36  C   UNL     1       0.496   9.805  21.004  0.00  0.00    +0.000 A 
ENDBRANCH  24  31
ENDBRANCH   4  24
TORSDOF 5
ENDMDL
MODEL 4
REMARK VINA RESULT:      -7.7      4.865      9.758
REMARK  Name = 
REMARK  7 active torsions:
REMARK  status: ('A' for Active; 'I' for Inactive)
REMARK    1  A    between atoms: C_1  and  C_2
REMARK    2  A    between atoms: C_7  and  C_8
REMARK    3  A    between atoms: C_9  and  C_10
REMARK    4  A    between atoms: C_15  and  N_16
REMARK    5  A    between atoms: C_19  and  N_20
REMARK    6  A    between atoms: N_20  and  C_21
REMARK    7  A    between atoms: N_20  and  C_27
REMARK                            x       y       z     vdW  Elec       q    Type
REMARK                         _______ _______ _______ _____ _____    ______ ____
ROOT
ATOM      1  N   UNL     1       0.720  14.856  20.223  0.00  0.00    +0.000 NA
ATOM      2  C   UNL     1       1.177  13.651  20.927  0.00  0.00    +0.000 C 
ATOM      3  C   UNL     1       1.858  12.649  20.015  0.00  0.00    +0.000 C 
ATOM      4  C   UNL     1       0.903  12.135  18.919  0.00  0.00    +0.000 C 
ATOM      5  C   UNL     1       0.615  13.424  18.115  0.00  0.00    +0.000 C 
ATOM      6  C   UNL     1       0.036  14.578  18.960  0.00  0.00    +0.000 C 
ENDROOT
BRANCH   1  12
ATOM      7  C   UNL     1      -3.694  14.197  22.828  0.00  0.00    +0.000 C 
ATOM      8  O   UNL     1      -3.550  13.348  23.717  0.00  0.00    +0.000 OA
ATOM      9  N   UNL     1      -2.572  14.922  22.348  0.00  0.00    +0.000 N 
ATOM     10  C   UNL     1      -1.298  14.451  22.893  0.00  0.00    +0.000 C 
ATOM     11  C   UNL     1      -0.107  15.354  22.650  0.00  0.00    +0.000 C 
ATOM     12  C   UNL     1       0.062  15.795  21.181  0.00  0.00    +0.000 C 
ATOM     13  C   UNL     1      -1.279  16.406  20.735  0.00  0.00    +0.000 C 
ATOM     14  C   UNL     1      -2.502  15.547  21.034  0.00  0.00    +0.000 C 
BRANCH   7  23
ATOM     15  C   UNL     1      -5.325  12.292  20.857  0.00  0.00    +0.000 C 
ATOM     16  C   UNL     1      -5.865  13.488  21.594  0.00  0.00    +0.000 A 
ATOM     17  C   UNL     1      -7.252  13.659  21.466  0.00  0.00    +0.000 A 
ATOM     18  C   UNL     1      -7.915  14.630  22.190  0.00  0.00    +0.000 A 
ATOM     19  N   UNL     1      -7.236  15.506  23.006  0.00  0.00    +0.000 N 
ATOM     20  O   UNL     1      -7.916  16.352  23.673  0.00  0.00    +0.000 OA
ATOM     21  C   UNL     1      -5.839  15.431  23.082  0.00  0.00    +0.000 A 
ATOM     22  C   UNL     1      -5.192  16.459  23.968  0.00  0.00    +0.000 C 
ATOM     23  C   UNL     1      -5.125  14.394  22.395  0.00  0.00    +0.000 A 
ENDBRANCH   7  23
ENDBRANCH   1  12
BRANCH   4  24
ATOM     24  N   UNL     1      -0.270  11.286  19.413  0.00  0.00    +0.000 N 
BRANCH  24  25
ATOM     25  C   UNL     1      -1.393  11.037  18.572  0.00  0.00    +0.000 A 
ATOM     26  C   UNL     1      -2.543  11.840  18.559  0.00  0.00    +0.000 A 
ATOM     27  C   UNL     1      -3.659  11.525  17.768  0.00  0.00    +0.000 A 
ATOM     28  C   UNL     1      -3.600  10.468  16.868  0.00  0.00    +0.000 A 
ATOM     29  C   UNL     1      -2.431   9.725  16.761  0.00  0.00    +0.000 A 
ATOM     30  C   UNL     1      -1.353   9.994  17.621  0.00  0.00    +0.000 A 
ENDBRANCH  24  25
BRANCH  24  31
ATOM     31  C   UNL     1      -0.180  10.703  20.726  0.00  0.00    +0.000 A 
ATOM     32  C   UNL     1      -0.892  11.145  21.851  0.00  0.00    +0.000 A 
ATOM     33  C   UNL     1      -0.875  10.462  23.079  0.00  0.00    +0.000 A 
ATOM     34  C   UNL     1      -0.076   9.342  23.249  0.00  0.00    +0.000 A 
ATOM     35  C   UNL     1       0.711   8.916  22.190  0.00  0.00    +0.000 A 
ATOM     36  C   UNL     1       0.658   9.588  20.959  0.00  0.00    +0.000 A 
ENDBRANCH  24  31
ENDBRANCH   4  24
TORSDOF 5
ENDMDL
MODEL 5
REMARK VINA RESULT:      -7.7      4.895      9.505
REMARK  Name = 
REMARK  7 active torsions:
REMARK  status: ('A' for Active; 'I' for Inactive)
REMARK    1  A    between atoms: C_1  and  C_2
REMARK    2  A    between atoms: C_7  and  C_8
REMARK    3  A    between atoms: C_9  and  C_10
REMARK    4  A    between atoms: C_15  and  N_16
REMARK    5  A    between atoms: C_19  and  N_20
REMARK    6  A    between atoms: N_20  and  C_21
REMARK    7  A    between atoms: N_20  and  C_27
REMARK                            x       y       z     vdW  Elec       q    Type
REMARK                         _______ _______ _______ _____ _____    ______ ____
ROOT
ATOM      1  N   UNL     1       0.756  14.841  20.296  0.00  0.00    +0.000 NA
ATOM      2  C   UNL     1       1.243  13.634  20.975  0.00  0.00    +0.000 C 
ATOM      3  C   UNL     1       1.915  12.651  20.037  0.00  0.00    +0.000 C 
ATOM      4  C   UNL     1       0.944  12.138  18.955  0.00  0.00    +0.000 C 
ATOM      5  C   UNL     1       0.622  13.433  18.174  0.00  0.00    +0.000 C 
ATOM      6  C   UNL     1       0.048  14.570  19.045  0.00  0.00    +0.000 C 
ENDROOT
BRANCH   1  12
ATOM      7  C   UNL     1      -3.733  14.218  22.780  0.00  0.00    +0.000 C 
ATOM      8  O   UNL     1      -3.636  13.329  23.635  0.00  0.00    +0.000 OA
ATOM      9  N   UNL     1      -2.578  14.926  22.354  0.00  0.00    +0.000 N 
ATOM     10  C   UNL     1      -1.332  14.391  22.905  0.00  0.00    +0.000 C 
ATOM     11  C   UNL     1      -0.108  15.264  22.725  0.00  0.00    +0.000 C 
ATOM     12  C   UNL     1       0.107  15.760  21.279  0.00  0.00    +0.000 C 
ATOM     13  C   UNL     1      -1.203  16.432  20.832  0.00  0.00    +0.000 C 
ATOM     14  C   UNL     1      -2.460  15.602  21.070  0.00  0.00    +0.000 C 
BRANCH   7  23
ATOM     15  C   UNL     1      -5.486  12.295  20.937  0.00  0.00    +0.000 C 
ATOM     16  C   UNL     1      -5.945  13.572  21.586  0.00  0.00    +0.000 A 
ATOM     17  C   UNL     1      -7.318  13.826  21.439  0.00  0.00    +0.000 A 
ATOM     18  C   UNL     1      -7.915  14.887  22.091  0.00  0.00    +0.000 A 
ATOM     19  N   UNL     1      -7.180  15.770  22.849  0.00  0.00    +0.000 N 
ATOM     20  O   UNL     1      -7.802  16.703  23.452  0.00  0.00    +0.000 OA
ATOM     21  C   UNL     1      -5.791  15.608  22.937  0.00  0.00    +0.000 A 
ATOM     22  C   UNL     1      -5.077  16.649  23.753  0.00  0.00    +0.000 C 
ATOM     23  C   UNL     1      -5.147  14.480  22.326  0.00  0.00    +0.000 A 
ENDBRANCH   7  23
ENDBRANCH   1  12
BRANCH   4  24
ATOM     24  N   UNL     1      -0.208  11.269  19.465  0.00  0.00    +0.000 N 
BRANCH  24  25
ATOM     25  C   UNL     1      -0.175  10.714  20.776  0.00  0.00    +0.000 A 
ATOM     26  C   UNL     1      -1.033  11.118  21.809  0.00  0.00    +0.000 A 
ATOM     27  C   UNL     1      -0.926  10.601  23.110  0.00  0.00    +0.000 A 
ATOM     28  C   UNL     1      -0.039   9.564  23.377  0.00  0.00    +0.000 A 
ATOM     29  C   UNL     1       0.740   9.049  22.348  0.00  0.00    +0.000 A 
ATOM     30  C   UNL     1       0.688   9.636  21.072  0.00  0.00    +0.000 A 
ENDBRANCH  24  25
BRANCH  24  31
ATOM     31  C   UNL     1      -1.345  11.076  18.603  0.00  0.00    +0.000 A 
ATOM     32  C   UNL     1      -1.423  10.120  17.581  0.00  0.00    +0.000 A 
ATOM     33  C   UNL     1      -2.601   9.877  16.854  0.00  0.00    +0.000 A 
ATOM     34  C   UNL     1      -3.735  10.644  17.076  0.00  0.00    +0.000 A 
ATOM     35  C   UNL     1      -3.680  11.659  18.019  0.00  0.00    +0.000 A 
ATOM     36  C   UNL     1      -2.506  11.867  18.761  0.00  0.00    +0.000 A 
ENDBRANCH  24  31
ENDBRANCH   4  24
TORSDOF 5
ENDMDL
MODEL 6
REMARK VINA RESULT:      -7.7      4.902      9.739
REMARK  Name = 
REMARK  7 active torsions:
REMARK  status: ('A' for Active; 'I' for Inactive)
REMARK    1  A    between atoms: C_1  and  C_2
REMARK    2  A    between atoms: C_7  and  C_8
REMARK    3  A    between atoms: C_9  and  C_10
REMARK    4  A    between atoms: C_15  and  N_16
REMARK    5  A    between atoms: C_19  and  N_20
REMARK    6  A    between atoms: N_20  and  C_21
REMARK    7  A    between atoms: N_20  and  C_27
REMARK                            x       y       z     vdW  Elec       q    Type
REMARK                         _______ _______ _______ _____ _____    ______ ____
ROOT
ATOM      1  N   UNL     1       0.785  14.849  20.351  0.00  0.00    +0.000 NA
ATOM      2  C   UNL     1       1.187  13.632  21.066  0.00  0.00    +0.000 C 
ATOM      3  C   UNL     1       1.896  12.625  20.181  0.00  0.00    +0.000 C 
ATOM      4  C   UNL     1       0.990  12.135  19.034  0.00  0.00    +0.000 C 
ATOM      5  C   UNL     1       0.762  13.435  18.229  0.00  0.00    +0.000 C 
ATOM      6  C   UNL     1       0.161  14.592  19.053  0.00  0.00    +0.000 C 
ENDROOT
BRANCH   1  12
ATOM      7  C   UNL     1      -3.729  14.211  22.784  0.00  0.00    +0.000 C 
ATOM      8  O   UNL     1      -3.624  13.362  23.678  0.00  0.00    +0.000 OA
ATOM      9  N   UNL     1      -2.586  14.931  22.347  0.00  0.00    +0.000 N 
ATOM     10  C   UNL     1      -1.336  14.453  22.941  0.00  0.00    +0.000 C 
ATOM     11  C   UNL     1      -0.132  15.351  22.744  0.00  0.00    +0.000 C 
ATOM     12  C   UNL     1       0.095  15.791  21.283  0.00  0.00    +0.000 C 
ATOM     13  C   UNL     1      -1.224  16.408  20.785  0.00  0.00    +0.000 C 
ATOM     14  C   UNL     1      -2.463  15.555  21.037  0.00  0.00    +0.000 C 
BRANCH   7  23
ATOM     15  C   UNL     1      -5.364  12.207  20.919  0.00  0.00    +0.000 C 
ATOM     16  C   UNL     1      -5.887  13.470  21.546  0.00  0.00    +0.000 A 
ATOM     17  C   UNL     1      -7.265  13.670  21.365  0.00  0.00    +0.000 A 
ATOM     18  C   UNL     1      -7.916  14.713  21.994  0.00  0.00    +0.000 A 
ATOM     19  N   UNL     1      -7.233  15.630  22.760  0.00  0.00    +0.000 N 
ATOM     20  O   UNL     1      -7.904  16.544  23.340  0.00  0.00    +0.000 OA
ATOM     21  C   UNL     1      -5.841  15.522  22.881  0.00  0.00    +0.000 A 
ATOM     22  C   UNL     1      -5.186  16.596  23.703  0.00  0.00    +0.000 C 
ATOM     23  C   UNL     1      -5.141  14.414  22.296  0.00  0.00    +0.000 A 
ENDBRANCH   7  23
ENDBRANCH   1  12
BRANCH   4  24
ATOM     24  N   UNL     1      -0.220  11.301  19.463  0.00  0.00    +0.000 N 
BRANCH  24  25
ATOM     25  C   UNL     1      -1.321  11.112  18.579  0.00  0.00    +0.000 A 
ATOM     26  C   UNL     1      -1.347  10.137  17.572  0.00  0.00    +0.000 A 
ATOM     27  C   UNL     1      -2.419  10.025  16.673  0.00  0.00    +0.000 A 
ATOM     28  C   UNL     1      -3.557  10.805  16.845  0.00  0.00    +0.000 A 
ATOM     29  C   UNL     1      -3.622  11.695  17.909  0.00  0.00    +0.000 A 
ATOM     30  C   UNL     1      -2.507  11.862  18.748  0.00  0.00    +0.000 A 
ENDBRANCH  24  25
BRANCH  24  31
ATOM     31  C   UNL     1      -0.187  10.672  20.756  0.00  0.00    +0.000 A 
ATOM     32  C   UNL     1       0.658   9.610  21.110  0.00  0.00    +0.000 A 
ATOM     33  C   UNL     1       0.752   9.116  22.422  0.00  0.00    +0.000 A 
ATOM     34  C   UNL     1      -0.061   9.623  23.423  0.00  0.00    +0.000 A 
ATOM     35  C   UNL     1      -0.974  10.617  23.104  0.00  0.00    +0.000 A 
ATOM     36  C   UNL     1      -1.032  11.124  21.796  0.00  0.00    +0.000 A 
ENDBRANCH  24  31
ENDBRANCH   4  24
TORSDOF 5
ENDMDL
MODEL 7
REMARK VINA RESULT:      -7.6      4.998      9.584
REMARK  Name = 
REMARK  7 active torsions:
REMARK  status: ('A' for Active; 'I' for Inactive)
REMARK    1  A    between atoms: C_1  and  C_2
REMARK    2  A    between atoms: C_7  and  C_8
REMARK    3  A    between atoms: C_9  and  C_10
REMARK    4  A    between atoms: C_15  and  N_16
REMARK    5  A    between atoms: C_19  and  N_20
REMARK    6  A    between atoms: N_20  and  C_21
REMARK    7  A    between atoms: N_20  and  C_27
REMARK                            x       y       z     vdW  Elec       q    Type
REMARK                         _______ _______ _______ _____ _____    ______ ____
ROOT
ATOM      1  N   UNL     1       0.478  15.240  19.787  0.00  0.00    +0.000 NA
ATOM      2  C   UNL     1       0.966  14.159  20.653  0.00  0.00    +0.000 C 
ATOM      3  C   UNL     1       1.494  12.966  19.880  0.00  0.00    +0.000 C 
ATOM      4  C   UNL     1       0.397  12.319  19.010  0.00  0.00    +0.000 C 
ATOM      5  C   UNL     1       0.068  13.454  18.013  0.00  0.00    +0.000 C 
ATOM      6  C   UNL     1      -0.360  14.777  18.681  0.00  0.00    +0.000 C 
ENDROOT
BRANCH   1  12
ATOM      7  C   UNL     1      -2.582  15.062  23.947  0.00  0.00    +0.000 C 
ATOM      8  O   UNL     1      -1.971  14.592  24.916  0.00  0.00    +0.000 OA
ATOM      9  N   UNL     1      -1.869  15.690  22.892  0.00  0.00    +0.000 N 
ATOM     10  C   UNL     1      -0.416  15.572  23.021  0.00  0.00    +0.000 C 
ATOM     11  C   UNL     1       0.397  16.455  22.098  0.00  0.00    +0.000 C 
ATOM     12  C   UNL     1      -0.024  16.377  20.615  0.00  0.00    +0.000 C 
ATOM     13  C   UNL     1      -1.537  16.653  20.560  0.00  0.00    +0.000 C 
ATOM     14  C   UNL     1      -2.373  15.827  21.532  0.00  0.00    +0.000 C 
BRANCH   7  23
ATOM     15  C   UNL     1      -4.608  17.476  24.438  0.00  0.00    +0.000 C 
ATOM     16  C   UNL     1      -4.976  16.040  24.179  0.00  0.00    +0.000 A 
ATOM     17  C   UNL     1      -6.353  15.823  24.021  0.00  0.00    +0.000 A 
ATOM     18  C   UNL     1      -6.836  14.585  23.645  0.00  0.00    +0.000 A 
ATOM     19  N   UNL     1      -5.996  13.507  23.480  0.00  0.00    +0.000 N 
ATOM     20  O   UNL     1      -6.506  12.405  23.096  0.00  0.00    +0.000 OA
ATOM     21  C   UNL     1      -4.625  13.660  23.727  0.00  0.00    +0.000 A 
ATOM     22  C   UNL     1      -3.803  12.413  23.559  0.00  0.00    +0.000 C 
ATOM     23  C   UNL     1      -4.082  14.947  24.055  0.00  0.00    +0.000 A 
ENDBRANCH   7  23
ENDBRANCH   1  12
BRANCH   4  24
ATOM     24  N   UNL     1      -0.744  11.649  19.780  0.00  0.00    +0.000 N 
BRANCH  24  25
ATOM     25  C   UNL     1      -2.093  11.782  19.342  0.00  0.00    +0.000 A 
ATOM     26  C   UNL     1      -3.040  12.591  19.987  0.00  0.00    +0.000 A 
ATOM     27  C   UNL     1      -4.379  12.643  19.570  0.00  0.00    +0.000 A 
ATOM     28  C   UNL     1      -4.775  11.986  18.411  0.00  0.00    +0.000 A 
ATOM     29  C   UNL     1      -3.835  11.277  17.673  0.00  0.00    +0.000 A 
ATOM     30  C   UNL     1      -2.519  11.158  18.149  0.00  0.00    +0.000 A 
ENDBRANCH  24  25
BRANCH  24  31
ATOM     31  C   UNL     1      -0.407  10.839  20.921  0.00  0.00    +0.000 A 
ATOM     32  C   UNL     1      -0.760  11.134  22.246  0.00  0.00    +0.000 A 
ATOM     33  C   UNL     1      -0.528  10.248  23.311  0.00  0.00    +0.000 A 
ATOM     34  C   UNL     1       0.142   9.052  23.097  0.00  0.00    +0.000 A 
ATOM     35  C   UNL     1       0.585   8.754  21.817  0.00  0.00    +0.000 A 
ATOM     36  C   UNL     1       0.315   9.635  20.757  0.00  0.00    +0.000 A 
ENDBRANCH  24  31
ENDBRANCH   4  24
TORSDOF 5
ENDMDL
MODEL 8
REMARK VINA RESULT:      -7.6      4.985      9.368
REMARK  Name = 
REMARK  7 active torsions:
REMARK  status: ('A' for Active; 'I' for Inactive)
REMARK    1  A    between atoms: C_1  and  C_2
REMARK    2  A    between atoms: C_7  and  C_8
REMARK    3  A    between atoms: C_9  and  C_10
REMARK    4  A    between atoms: C_15  and  N_16
REMARK    5  A    between atoms: C_19  and  N_20
REMARK    6  A    between atoms: N_20  and  C_21
REMARK    7  A    between atoms: N_20  and  C_27
REMARK                            x       y       z     vdW  Elec       q    Type
REMARK                         _______ _______ _______ _____ _____    ______ ____
ROOT
ATOM      1  N   UNL     1       0.570  14.813  20.381  0.00  0.00    +0.000 NA
ATOM      2  C   UNL     1       1.125  13.561  20.911  0.00  0.00    +0.000 C 
ATOM      3  C   UNL     1       1.644  12.632  19.831  0.00  0.00    +0.000 C 
ATOM      4  C   UNL     1       0.523  12.197  18.865  0.00  0.00    +0.000 C 
ATOM      5  C   UNL     1       0.120  13.541  18.216  0.00  0.00    +0.000 C 
ATOM      6  C   UNL     1      -0.308  14.626  19.226  0.00  0.00    +0.000 C 
ENDROOT
BRANCH   1  12
ATOM      7  C   UNL     1      -3.606  14.136  23.348  0.00  0.00    +0.000 C 
ATOM      8  O   UNL     1      -3.439  13.183  24.121  0.00  0.00    +0.000 OA
ATOM      9  N   UNL     1      -2.485  14.840  22.834  0.00  0.00    +0.000 N 
ATOM     10  C   UNL     1      -1.202  14.229  23.188  0.00  0.00    +0.000 C 
ATOM     11  C   UNL     1       0.023  15.079  22.921  0.00  0.00    +0.000 C 
ATOM     12  C   UNL     1       0.080  15.674  21.498  0.00  0.00    +0.000 C 
ATOM     13  C   UNL     1      -1.248  16.415  21.264  0.00  0.00    +0.000 C 
ATOM     14  C   UNL     1      -2.498  15.606  21.596  0.00  0.00    +0.000 C 
BRANCH   7  23
ATOM     15  C   UNL     1      -5.190  16.620  24.569  0.00  0.00    +0.000 C 
ATOM     16  C   UNL     1      -5.717  15.630  23.566  0.00  0.00    +0.000 A 
ATOM     17  C   UNL     1      -6.985  15.952  23.057  0.00  0.00    +0.000 A 
ATOM     18  C   UNL     1      -7.544  15.216  22.032  0.00  0.00    +0.000 A 
ATOM     19  N   UNL     1      -6.915  14.104  21.520  0.00  0.00    +0.000 N 
ATOM     20  O   UNL     1      -7.471  13.495  20.550  0.00  0.00    +0.000 OA
ATOM     21  C   UNL     1      -5.694  13.692  22.071  0.00  0.00    +0.000 A 
ATOM     22  C   UNL     1      -5.111  12.443  21.470  0.00  0.00    +0.000 C 
ATOM     23  C   UNL     1      -5.054  14.471  23.092  0.00  0.00    +0.000 A 
ENDBRANCH   7  23
ENDBRANCH   1  12
BRANCH   4  24
ATOM     24  N   UNL     1      -0.562  11.307  19.476  0.00  0.00    +0.000 N 
BRANCH  24  25
ATOM     25  C   UNL     1      -0.388  10.732  20.768  0.00  0.00    +0.000 A 
ATOM     26  C   UNL     1       0.612   9.798  21.070  0.00  0.00    +0.000 A 
ATOM     27  C   UNL     1       0.711   9.198  22.336  0.00  0.00    +0.000 A 
ATOM     28  C   UNL     1      -0.114   9.619  23.373  0.00  0.00    +0.000 A 
ATOM     29  C   UNL     1      -1.034  10.634  23.145  0.00  0.00    +0.000 A 
ATOM     30  C   UNL     1      -1.184  11.164  21.852  0.00  0.00    +0.000 A 
ENDBRANCH  24  25
BRANCH  24  31
ATOM     31  C   UNL     1      -1.781  11.118  18.734  0.00  0.00    +0.000 A 
ATOM     32  C   UNL     1      -1.994  10.105  17.788  0.00  0.00    +0.000 A 
ATOM     33  C   UNL     1      -3.243   9.875  17.187  0.00  0.00    +0.000 A 
ATOM     34  C   UNL     1      -4.317  10.709  17.459  0.00  0.00    +0.000 A 
ATOM     35  C   UNL     1      -4.132  11.777  18.324  0.00  0.00    +0.000 A 
ATOM     36  C   UNL     1      -2.887  11.973  18.942  0.00  0.00    +0.000 A 
ENDBRANCH  24  31
ENDBRANCH   4  24
TORSDOF 5
ENDMDL
MODEL 9
REMARK VINA RESULT:      -7.5      5.058      9.373
REMARK  Name = 
REMARK  7 active torsions:
REMARK  status: ('A' for Active; 'I' for Inactive)
REMARK    1  A    between atoms: C_1  and  C_2
REMARK    2  A    between atoms: C_7  and  C_8
REMARK    3  A    between atoms: C_9  and  C_10
REMARK    4  A    between atoms: C_15  and  N_16
REMARK    5  A    between atoms: C_19  and  N_20
REMARK    6  A    between atoms: N_20  and  C_21
REMARK    7  A    between atoms: N_20  and  C_27
REMARK                            x       y       z     vdW  Elec       q    Type
REMARK                         _______ _______ _______ _____ _____    ______ ____
ROOT
ATOM      1  N   UNL     1       0.349  15.282  19.855  0.00  0.00    +0.000 NA
ATOM      2  C   UNL     1       0.862  14.188  20.690  0.00  0.00    +0.000 C 
ATOM      3  C   UNL     1       1.386  13.016  19.884  0.00  0.00    +0.000 C 
ATOM      4  C   UNL     1       0.279  12.376  19.021  0.00  0.00    +0.000 C 
ATOM      5  C   UNL     1      -0.077  13.528  18.053  0.00  0.00    +0.000 C 
ATOM      6  C   UNL     1      -0.505  14.834  18.755  0.00  0.00    +0.000 C 
ENDROOT
BRANCH   1  12
ATOM      7  C   UNL     1      -2.718  15.002  24.004  0.00  0.00    +0.000 C 
ATOM      8  O   UNL     1      -2.111  14.502  24.960  0.00  0.00    +0.000 OA
ATOM      9  N   UNL     1      -2.000  15.656  22.969  0.00  0.00    +0.000 N 
ATOM     10  C   UNL     1      -0.548  15.526  23.096  0.00  0.00    +0.000 C 
ATOM     11  C   UNL     1       0.271  16.431  22.199  0.00  0.00    +0.000 C 
ATOM     12  C   UNL     1      -0.148  16.398  20.715  0.00  0.00    +0.000 C 
ATOM     13  C   UNL     1      -1.660  16.683  20.665  0.00  0.00    +0.000 C 
ATOM     14  C   UNL     1      -2.501  15.835  21.613  0.00  0.00    +0.000 C 
BRANCH   7  23
ATOM     15  C   UNL     1      -4.753  17.443  24.273  0.00  0.00    +0.000 C 
ATOM     16  C   UNL     1      -5.116  15.990  24.131  0.00  0.00    +0.000 A 
ATOM     17  C   UNL     1      -6.491  15.756  23.978  0.00  0.00    +0.000 A 
ATOM     18  C   UNL     1      -6.967  14.490  23.702  0.00  0.00    +0.000 A 
ATOM     19  N   UNL     1      -6.124  13.404  23.635  0.00  0.00    +0.000 N 
ATOM     20  O   UNL     1      -6.628  12.272  23.340  0.00  0.00    +0.000 OA
ATOM     21  C   UNL     1      -4.756  13.581  23.882  0.00  0.00    +0.000 A 
ATOM     22  C   UNL     1      -3.930  12.326  23.826  0.00  0.00    +0.000 C 
ATOM     23  C   UNL     1      -4.219  14.892  24.107  0.00  0.00    +0.000 A 
ENDBRANCH   7  23
ENDBRANCH   1  12
BRANCH   4  24
ATOM     24  N   UNL     1      -0.841  11.681  19.798  0.00  0.00    +0.000 N 
BRANCH  24  25
ATOM     25  C   UNL     1      -0.545  10.877  20.935  0.00  0.00    +0.000 A 
ATOM     26  C   UNL     1      -0.984  11.179  22.233  0.00  0.00    +0.000 A 
ATOM     27  C   UNL     1      -0.614  10.402  23.342  0.00  0.00    +0.000 A 
ATOM     28  C   UNL     1       0.098   9.223  23.161  0.00  0.00    +0.000 A 
ATOM     29  C   UNL     1       0.443   8.822  21.876  0.00  0.00    +0.000 A 
ATOM     30  C   UNL     1       0.145   9.653  20.783  0.00  0.00    +0.000 A 
ENDBRANCH  24  25
BRANCH  24  31
ATOM     31  C   UNL     1      -2.199  11.909  19.380  0.00  0.00    +0.000 A 
ATOM     32  C   UNL     1      -2.765  11.422  18.193  0.00  0.00    +0.000 A 
ATOM     33  C   UNL     1      -4.131  11.555  17.891  0.00  0.00    +0.000 A 
ATOM     34  C   UNL     1      -4.974  12.255  18.741  0.00  0.00    +0.000 A 
ATOM     35  C   UNL     1      -4.442  12.828  19.886  0.00  0.00    +0.000 A 
ATOM     36  C   UNL     1      -3.082  12.658  20.191  0.00  0.00    +0.000 A 
ENDBRANCH  24  31
ENDBRANCH   4  24
TORSDOF 5
ENDMDL
