MODEL 1
REMARK VINA RESULT:      -8.2      0.000      0.000
REMARK  Name = 
REMARK  5 active torsions:
REMARK  status: ('A' for Active; 'I' for Inactive)
REMARK    1  A    between atoms: C_2  and  C_3
REMARK    2  A    between atoms: C_3  and  S_4
REMARK    3  A    between atoms: S_4  and  C_5
REMARK    4  A    between atoms: N_9  and  C_10
REMARK    5  A    between atoms: C_20  and  C_21
REMARK                            x       y       z     vdW  Elec       q    Type
REMARK                         _______ _______ _______ _____ _____    ______ ____
ROOT
ATOM      1  O   UNL     1       0.708   9.574  23.647  0.00  0.00    +0.000 OA
ATOM      2  C   UNL     1       0.085   9.812  22.607  0.00  0.00    +0.000 C 
ATOM      3  N   UNL     1      -0.449  11.060  22.477  0.00  0.00    +0.000 N 
ATOM      4  C   UNL     1      -1.158  11.591  21.436  0.00  0.00    +0.000 A 
ATOM      5  N   UNL     1      -1.647  12.826  21.535  0.00  0.00    +0.000 NA
ATOM      6  S   UNL     1      -2.465  13.133  20.116  0.00  0.00    +0.000 S 
ATOM      7  C   UNL     1      -2.083  11.598  19.437  0.00  0.00    +0.000 A 
ATOM      8  N   UNL     1      -1.378  10.872  20.282  0.00  0.00    +0.000 NA
ATOM      9  H   UNL     1      -0.310  11.683  23.260  0.00  0.00    +0.000 HD
ENDROOT
BRANCH   7  10
ATOM     10  C   UNL     1      -2.541  11.154  18.115  0.00  0.00    +0.000 A 
ATOM     11  C   UNL     1      -1.821  10.250  17.317  0.00  0.00    +0.000 A 
ATOM     12  C   UNL     1      -2.291   9.878  16.053  0.00  0.00    +0.000 A 
ATOM     13  C   UNL     1      -3.489  10.403  15.574  0.00  0.00    +0.000 A 
ATOM     14 CL   UNL     1      -4.051   9.960  14.010  0.00  0.00    +0.000 Cl
ATOM     15  C   UNL     1      -4.231  11.283  16.355  0.00  0.00    +0.000 A 
ATOM     16  C   UNL     1      -3.761  11.650  17.620  0.00  0.00    +0.000 A 
ENDBRANCH   7  10
BRANCH   2  17
ATOM     17  C   UNL     1      -0.114   8.785  21.495  0.00  0.00    +0.000 C 
BRANCH  17  18
ATOM     18  S   UNL     1       1.443   7.947  21.088  0.00  0.00    +0.000 S 
BRANCH  18  19
ATOM     19  C   UNL     1       1.667   8.397  19.430  0.00  0.00    +0.000 A 
ATOM     20  N   UNL     1       1.412   9.584  18.926  0.00  0.00    +0.000 NA
ATOM     21  N   UNL     1       1.952   9.581  17.667  0.00  0.00    +0.000 NA
ATOM     22  N   UNL     1       2.548   8.427  17.405  0.00  0.00    +0.000 NA
ATOM     23  N   UNL     1       2.313   7.621  18.475  0.00  0.00    +0.000 N 
BRANCH  23  24
ATOM     24  C   UNL     1       2.717   6.261  18.468  0.00  0.00    +0.000 A 
ATOM     25  C   UNL     1       3.976   5.920  18.990  0.00  0.00    +0.000 A 
ATOM     26  C   UNL     1       4.377   4.581  19.034  0.00  0.00    +0.000 A 
ATOM     27  C   UNL     1       3.544   3.583  18.531  0.00  0.00    +0.000 A 
ATOM     28  C   UNL     1       2.314   3.919  17.970  0.00  0.00    +0.000 A 
ATOM     29  C   UNL     1       1.902   5.253  17.935  0.00  0.00    +0.000 A 
ENDBRANCH  23  24
ENDBRANCH  18  19
ENDBRANCH  17  18
ENDBRANCH   2  17
TORSDOF 5
ENDMDL
MODEL 2
REMARK VINA RESULT:      -8.0      0.369      1.297
REMARK  Name = 
REMARK  5 active torsions:
REMARK  status: ('A' for Active; 'I' for Inactive)
REMARK    1  A    between atoms: C_2  and  C_3
REMARK    2  A    between atoms: C_3  and  S_4
REMARK    3  A    between atoms: S_4  and  C_5
REMARK    4  A    between atoms: N_9  and  C_10
REMARK    5  A    between atoms: C_20  and  C_21
REMARK                            x       y       z     vdW  Elec       q    Type
REMARK                         _______ _______ _______ _____ _____    ______ ____
ROOT
ATOM      1  O   UNL     1       0.740   9.538  23.592  0.00  0.00    +0.000 OA
ATOM      2  C   UNL     1       0.086   9.812  22.580  0.00  0.00    +0.000 C 
ATOM      3  N   UNL     1      -0.474  11.053  22.522  0.00  0.00    +0.000 N 
ATOM      4  C   UNL     1      -1.219  11.618  21.525  0.00  0.00    +0.000 A 
ATOM      5  N   UNL     1      -1.729  12.836  21.694  0.00  0.00    +0.000 NA
ATOM      6  S   UNL     1      -2.589  13.193  20.311  0.00  0.00    +0.000 S 
ATOM      7  C   UNL     1      -2.194  11.700  19.551  0.00  0.00    +0.000 A 
ATOM      8  N   UNL     1      -1.454  10.950  20.344  0.00  0.00    +0.000 NA
ATOM      9  H   UNL     1      -0.328  11.641  23.330  0.00  0.00    +0.000 HD
ENDROOT
BRANCH   7  10
ATOM     10  C   UNL     1      -2.676  11.309  18.221  0.00  0.00    +0.000 A 
ATOM     11  C   UNL     1      -3.893  11.759  17.683  0.00  0.00    +0.000 A 
ATOM     12  C   UNL     1      -4.317  11.334  16.419  0.00  0.00    +0.000 A 
ATOM     13  C   UNL     1      -3.527  10.460  15.677  0.00  0.00    +0.000 A 
ATOM     14 CL   UNL     1      -4.064   9.925  14.133  0.00  0.00    +0.000 Cl
ATOM     15  C   UNL     1      -2.308  10.019  16.180  0.00  0.00    +0.000 A 
ATOM     16  C   UNL     1      -1.884  10.446  17.441  0.00  0.00    +0.000 A 
ENDBRANCH   7  10
BRANCH   2  17
ATOM     17  C   UNL     1      -0.120   8.834  21.425  0.00  0.00    +0.000 C 
BRANCH  17  18
ATOM     18  S   UNL     1       1.437   8.029  20.959  0.00  0.00    +0.000 S 
BRANCH  18  19
ATOM     19  C   UNL     1       1.658   8.592  19.335  0.00  0.00    +0.000 A 
ATOM     20  N   UNL     1       1.377   9.804  18.909  0.00  0.00    +0.000 NA
ATOM     21  N   UNL     1       1.922   9.896  17.656  0.00  0.00    +0.000 NA
ATOM     22  N   UNL     1       2.545   8.776  17.321  0.00  0.00    +0.000 NA
ATOM     23  N   UNL     1       2.324   7.896  18.335  0.00  0.00    +0.000 N 
BRANCH  23  24
ATOM     24  C   UNL     1       2.759   6.548  18.240  0.00  0.00    +0.000 A 
ATOM     25  C   UNL     1       1.808   5.517  18.313  0.00  0.00    +0.000 A 
ATOM     26  C   UNL     1       2.208   4.184  18.178  0.00  0.00    +0.000 A 
ATOM     27  C   UNL     1       3.554   3.871  18.003  0.00  0.00    +0.000 A 
ATOM     28  C   UNL     1       4.508   4.885  17.976  0.00  0.00    +0.000 A 
ATOM     29  C   UNL     1       4.114   6.220  18.096  0.00  0.00    +0.000 A 
ENDBRANCH  23  24
ENDBRANCH  18  19
ENDBRANCH  17  18
ENDBRANCH   2  17
TORSDOF 5
ENDMDL
MODEL 3
REMARK VINA RESULT:      -7.7      1.288      1.998
REMARK  Name = 
REMARK  5 active torsions:
REMARK  status: ('A' for Active; 'I' for Inactive)
REMARK    1  A    between atoms: C_2  and  C_3
REMARK    2  A    between atoms: C_3  and  S_4
REMARK    3  A    between atoms: S_4  and  C_5
REMARK    4  A    between atoms: N_9  and  C_10
REMARK    5  A    between atoms: C_20  and  C_21
REMARK                            x       y       z     vdW  Elec       q    Type
REMARK                         _______ _______ _______ _____ _____    ______ ____
ROOT
ATOM      1  O   UNL     1       1.762   9.786  22.574  0.00  0.00    +0.000 OA
ATOM      2  C   UNL     1       0.933   9.973  21.677  0.00  0.00    +0.000 C 
ATOM      3  N   UNL     1       0.009  10.954  21.883  0.00  0.00    +0.000 N 
ATOM      4  C   UNL     1      -0.995  11.380  21.060  0.00  0.00    +0.000 A 
ATOM      5  N   UNL     1      -1.835  12.324  21.481  0.00  0.00    +0.000 NA
ATOM      6  S   UNL     1      -2.932  12.573  20.250  0.00  0.00    +0.000 S 
ATOM      7  C   UNL     1      -2.189  11.421  19.209  0.00  0.00    +0.000 A 
ATOM      8  N   UNL     1      -1.157  10.851  19.799  0.00  0.00    +0.000 NA
ATOM      9  H   UNL     1       0.065  11.434  22.770  0.00  0.00    +0.000 HD
ENDROOT
BRANCH   7  10
ATOM     10  C   UNL     1      -2.690  11.090  17.870  0.00  0.00    +0.000 A 
ATOM     11  C   UNL     1      -3.909  11.571  17.365  0.00  0.00    +0.000 A 
ATOM     12  C   UNL     1      -4.351  11.204  16.089  0.00  0.00    +0.000 A 
ATOM     13  C   UNL     1      -3.577  10.355  15.302  0.00  0.00    +0.000 A 
ATOM     14 CL   UNL     1      -4.135   9.889  13.744  0.00  0.00    +0.000 Cl
ATOM     15  C   UNL     1      -2.355   9.884  15.772  0.00  0.00    +0.000 A 
ATOM     16  C   UNL     1      -1.914  10.254  17.045  0.00  0.00    +0.000 A 
ENDBRANCH   7  10
BRANCH   2  17
ATOM     17  C   UNL     1       0.898   9.160  20.385  0.00  0.00    +0.000 C 
BRANCH  17  18
ATOM     18  S   UNL     1       1.527   7.479  20.648  0.00  0.00    +0.000 S 
BRANCH  18  19
ATOM     19  C   UNL     1       2.311   7.151  19.138  0.00  0.00    +0.000 A 
ATOM     20  N   UNL     1       2.846   8.058  18.350  0.00  0.00    +0.000 NA
ATOM     21  N   UNL     1       3.559   7.362  17.409  0.00  0.00    +0.000 NA
ATOM     22  N   UNL     1       3.486   6.057  17.622  0.00  0.00    +0.000 NA
ATOM     23  N   UNL     1       2.631   5.885  18.665  0.00  0.00    +0.000 N 
BRANCH  23  24
ATOM     24  C   UNL     1       2.236   4.586  19.080  0.00  0.00    +0.000 A 
ATOM     25  C   UNL     1       1.433   3.812  18.226  0.00  0.00    +0.000 A 
ATOM     26  C   UNL     1       1.068   2.513  18.593  0.00  0.00    +0.000 A 
ATOM     27  C   UNL     1       1.472   1.993  19.822  0.00  0.00    +0.000 A 
ATOM     28  C   UNL     1       2.229   2.772  20.693  0.00  0.00    +0.000 A 
ATOM     29  C   UNL     1       2.609   4.065  20.326  0.00  0.00    +0.000 A 
ENDBRANCH  23  24
ENDBRANCH  18  19
ENDBRANCH  17  18
ENDBRANCH   2  17
TORSDOF 5
ENDMDL
MODEL 4
REMARK VINA RESULT:      -7.5      3.286      7.868
REMARK  Name = 
REMARK  5 active torsions:
REMARK  status: ('A' for Active; 'I' for Inactive)
REMARK    1  A    between atoms: C_2  and  C_3
REMARK    2  A    between atoms: C_3  and  S_4
REMARK    3  A    between atoms: S_4  and  C_5
REMARK    4  A    between atoms: N_9  and  C_10
REMARK    5  A    between atoms: C_20  and  C_21
REMARK                            x       y       z     vdW  Elec       q    Type
REMARK                         _______ _______ _______ _____ _____    ______ ____
ROOT
ATOM      1  O   UNL     1       0.400   9.155  21.427  0.00  0.00    +0.000 OA
ATOM      2  C   UNL     1       1.127   8.459  20.711  0.00  0.00    +0.000 C 
ATOM      3  N   UNL     1       1.299   7.158  21.080  0.00  0.00    +0.000 N 
ATOM      4  C   UNL     1       2.024   6.176  20.466  0.00  0.00    +0.000 A 
ATOM      5  N   UNL     1       2.110   4.972  21.030  0.00  0.00    +0.000 NA
ATOM      6  S   UNL     1       3.078   4.046  20.038  0.00  0.00    +0.000 S 
ATOM      7  C   UNL     1       3.295   5.309  18.889  0.00  0.00    +0.000 A 
ATOM      8  N   UNL     1       2.668   6.405  19.271  0.00  0.00    +0.000 NA
ATOM      9  H   UNL     1       0.832   6.876  21.930  0.00  0.00    +0.000 HD
ENDROOT
BRANCH   7  10
ATOM     10  C   UNL     1       4.119   5.181  17.681  0.00  0.00    +0.000 A 
ATOM     11  C   UNL     1       4.556   3.945  17.178  0.00  0.00    +0.000 A 
ATOM     12  C   UNL     1       5.362   3.882  16.035  0.00  0.00    +0.000 A 
ATOM     13  C   UNL     1       5.736   5.054  15.381  0.00  0.00    +0.000 A 
ATOM     14 CL   UNL     1       6.744   4.971  13.991  0.00  0.00    +0.000 Cl
ATOM     15  C   UNL     1       5.296   6.288  15.848  0.00  0.00    +0.000 A 
ATOM     16  C   UNL     1       4.489   6.349  16.988  0.00  0.00    +0.000 A 
ENDBRANCH   7  10
BRANCH   2  17
ATOM     17  C   UNL     1       1.832   8.991  19.464  0.00  0.00    +0.000 C 
BRANCH  17  18
ATOM     18  S   UNL     1       0.636   9.595  18.240  0.00  0.00    +0.000 S 
BRANCH  18  19
ATOM     19  C   UNL     1       0.482  11.262  18.686  0.00  0.00    +0.000 A 
ATOM     20  N   UNL     1       1.455  12.016  19.149  0.00  0.00    +0.000 NA
ATOM     21  N   UNL     1       0.973  13.298  19.138  0.00  0.00    +0.000 NA
ATOM     22  N   UNL     1      -0.262  13.342  18.658  0.00  0.00    +0.000 NA
ATOM     23  N   UNL     1      -0.634  12.052  18.440  0.00  0.00    +0.000 N 
BRANCH  23  24
ATOM     24  C   UNL     1      -1.956  11.732  18.033  0.00  0.00    +0.000 A 
ATOM     25  C   UNL     1      -3.015  11.936  18.933  0.00  0.00    +0.000 A 
ATOM     26  C   UNL     1      -4.330  11.670  18.539  0.00  0.00    +0.000 A 
ATOM     27  C   UNL     1      -4.592  11.171  17.265  0.00  0.00    +0.000 A 
ATOM     28  C   UNL     1      -3.543  10.923  16.383  0.00  0.00    +0.000 A 
ATOM     29  C   UNL     1      -2.228  11.199  16.766  0.00  0.00    +0.000 A 
ENDBRANCH  23  24
ENDBRANCH  18  19
ENDBRANCH  17  18
ENDBRANCH   2  17
TORSDOF 5
ENDMDL
MODEL 5
REMARK VINA RESULT:      -7.5      3.285      7.893
REMARK  Name = 
REMARK  5 active torsions:
REMARK  status: ('A' for Active; 'I' for Inactive)
REMARK    1  A    between atoms: C_2  and  C_3
REMARK    2  A    between atoms: C_3  and  S_4
REMARK    3  A    between atoms: S_4  and  C_5
REMARK    4  A    between atoms: N_9  and  C_10
REMARK    5  A    between atoms: C_20  and  C_21
REMARK                            x       y       z     vdW  Elec       q    Type
REMARK                         _______ _______ _______ _____ _____    ______ ____
ROOT
ATOM      1  O   UNL     1       0.318   9.187  21.458  0.00  0.00    +0.000 OA
ATOM      2  C   UNL     1       1.061   8.507  20.742  0.00  0.00    +0.000 C 
ATOM      3  N   UNL     1       1.251   7.207  21.105  0.00  0.00    +0.000 N 
ATOM      4  C   UNL     1       1.995   6.240  20.489  0.00  0.00    +0.000 A 
ATOM      5  N   UNL     1       2.098   5.035  21.046  0.00  0.00    +0.000 NA
ATOM      6  S   UNL     1       3.086   4.130  20.054  0.00  0.00    +0.000 S 
ATOM      7  C   UNL     1       3.288   5.403  18.914  0.00  0.00    +0.000 A 
ATOM      8  N   UNL     1       2.642   6.486  19.299  0.00  0.00    +0.000 NA
ATOM      9  H   UNL     1       0.785   6.912  21.951  0.00  0.00    +0.000 HD
ENDROOT
BRANCH   7  10
ATOM     10  C   UNL     1       4.120   5.295  17.710  0.00  0.00    +0.000 A 
ATOM     11  C   UNL     1       4.494   6.404  16.933  0.00  0.00    +0.000 A 
ATOM     12  C   UNL     1       5.269   6.242  15.780  0.00  0.00    +0.000 A 
ATOM     13  C   UNL     1       5.682   4.969  15.392  0.00  0.00    +0.000 A 
ATOM     14 CL   UNL     1       6.616   4.774  13.961  0.00  0.00    +0.000 Cl
ATOM     15  C   UNL     1       5.343   3.859  16.157  0.00  0.00    +0.000 A 
ATOM     16  C   UNL     1       4.572   4.023  17.311  0.00  0.00    +0.000 A 
ENDBRANCH   7  10
BRANCH   2  17
ATOM     17  C   UNL     1       1.763   9.057  19.502  0.00  0.00    +0.000 C 
BRANCH  17  18
ATOM     18  S   UNL     1       0.564   9.620  18.262  0.00  0.00    +0.000 S 
BRANCH  18  19
ATOM     19  C   UNL     1       0.433  11.307  18.633  0.00  0.00    +0.000 A 
ATOM     20  N   UNL     1       1.425  12.076  19.024  0.00  0.00    +0.000 NA
ATOM     21  N   UNL     1       0.949  13.359  18.968  0.00  0.00    +0.000 NA
ATOM     22  N   UNL     1      -0.302  13.387  18.531  0.00  0.00    +0.000 NA
ATOM     23  N   UNL     1      -0.688  12.091  18.389  0.00  0.00    +0.000 N 
BRANCH  23  24
ATOM     24  C   UNL     1      -2.025  11.760  18.045  0.00  0.00    +0.000 A 
ATOM     25  C   UNL     1      -2.293  11.241  16.769  0.00  0.00    +0.000 A 
ATOM     26  C   UNL     1      -3.595  10.866  16.424  0.00  0.00    +0.000 A 
ATOM     27  C   UNL     1      -4.637  11.038  17.333  0.00  0.00    +0.000 A 
ATOM     28  C   UNL     1      -4.386  11.596  18.585  0.00  0.00    +0.000 A 
ATOM     29  C   UNL     1      -3.085  11.959  18.940  0.00  0.00    +0.000 A 
ENDBRANCH  23  24
ENDBRANCH  18  19
ENDBRANCH  17  18
ENDBRANCH   2  17
TORSDOF 5
ENDMDL
MODEL 6
REMARK VINA RESULT:      -7.5      1.185      1.297
REMARK  Name = 
REMARK  5 active torsions:
REMARK  status: ('A' for Active; 'I' for Inactive)
REMARK    1  A    between atoms: C_2  and  C_3
REMARK    2  A    between atoms: C_3  and  S_4
REMARK    3  A    between atoms: S_4  and  C_5
REMARK    4  A    between atoms: N_9  and  C_10
REMARK    5  A    between atoms: C_20  and  C_21
REMARK                            x       y       z     vdW  Elec       q    Type
REMARK                         _______ _______ _______ _____ _____    ______ ____
ROOT
ATOM      1  O   UNL     1       0.744   9.745  23.618  0.00  0.00    +0.000 OA
ATOM      2  C   UNL     1       0.104   9.951  22.582  0.00  0.00    +0.000 C 
ATOM      3  N   UNL     1      -0.577  11.129  22.499  0.00  0.00    +0.000 N 
ATOM      4  C   UNL     1      -1.338  11.615  21.473  0.00  0.00    +0.000 A 
ATOM      5  N   UNL     1      -1.974  12.776  21.618  0.00  0.00    +0.000 NA
ATOM      6  S   UNL     1      -2.814  13.043  20.203  0.00  0.00    +0.000 S 
ATOM      7  C   UNL     1      -2.242  11.598  19.464  0.00  0.00    +0.000 A 
ATOM      8  N   UNL     1      -1.460  10.927  20.286  0.00  0.00    +0.000 NA
ATOM      9  H   UNL     1      -0.521  11.729  23.309  0.00  0.00    +0.000 HD
ENDROOT
BRANCH   7  10
ATOM     10  C   UNL     1      -2.633  11.159  18.119  0.00  0.00    +0.000 A 
ATOM     11  C   UNL     1      -1.871  10.263  17.352  0.00  0.00    +0.000 A 
ATOM     12  C   UNL     1      -2.277   9.897  16.064  0.00  0.00    +0.000 A 
ATOM     13  C   UNL     1      -3.452  10.421  15.529  0.00  0.00    +0.000 A 
ATOM     14 CL   UNL     1      -3.935   9.985  13.938  0.00  0.00    +0.000 Cl
ATOM     15  C   UNL     1      -4.235  11.293  16.278  0.00  0.00    +0.000 A 
ATOM     16  C   UNL     1      -3.829  11.655  17.566  0.00  0.00    +0.000 A 
ENDBRANCH   7  10
BRANCH   2  17
ATOM     17  C   UNL     1       0.040   8.957  21.424  0.00  0.00    +0.000 C 
BRANCH  17  18
ATOM     18  S   UNL     1       1.433   7.795  21.477  0.00  0.00    +0.000 S 
BRANCH  18  19
ATOM     19  C   UNL     1       1.838   7.648  19.799  0.00  0.00    +0.000 A 
ATOM     20  N   UNL     1       2.073   8.653  18.985  0.00  0.00    +0.000 NA
ATOM     21  N   UNL     1       2.585   8.098  17.843  0.00  0.00    +0.000 NA
ATOM     22  N   UNL     1       2.687   6.781  17.954  0.00  0.00    +0.000 NA
ATOM     23  N   UNL     1       2.141   6.454  19.156  0.00  0.00    +0.000 N 
BRANCH  23  24
ATOM     24  C   UNL     1       1.981   5.097  19.541  0.00  0.00    +0.000 A 
ATOM     25  C   UNL     1       2.165   4.743  20.887  0.00  0.00    +0.000 A 
ATOM     26  C   UNL     1       1.970   3.422  21.297  0.00  0.00    +0.000 A 
ATOM     27  C   UNL     1       1.624   2.443  20.367  0.00  0.00    +0.000 A 
ATOM     28  C   UNL     1       1.484   2.778  19.022  0.00  0.00    +0.000 A 
ATOM     29  C   UNL     1       1.665   4.100  18.608  0.00  0.00    +0.000 A 
ENDBRANCH  23  24
ENDBRANCH  18  19
ENDBRANCH  17  18
ENDBRANCH   2  17
TORSDOF 5
ENDMDL
MODEL 7
REMARK VINA RESULT:      -7.4      1.784      2.483
REMARK  Name = 
REMARK  5 active torsions:
REMARK  status: ('A' for Active; 'I' for Inactive)
REMARK    1  A    between atoms: C_2  and  C_3
REMARK    2  A    between atoms: C_3  and  S_4
REMARK    3  A    between atoms: S_4  and  C_5
REMARK    4  A    between atoms: N_9  and  C_10
REMARK    5  A    between atoms: C_20  and  C_21
REMARK                            x       y       z     vdW  Elec       q    Type
REMARK                         _______ _______ _______ _____ _____    ______ ____
ROOT
ATOM      1  O   UNL     1       1.681   9.142  22.814  0.00  0.00    +0.000 OA
ATOM      2  C   UNL     1       0.918   9.413  21.881  0.00  0.00    +0.000 C 
ATOM      3  N   UNL     1       0.320  10.637  21.905  0.00  0.00    +0.000 N 
ATOM      4  C   UNL     1      -0.540  11.195  21.001  0.00  0.00    +0.000 A 
ATOM      5  N   UNL     1      -1.064  12.395  21.245  0.00  0.00    +0.000 NA
ATOM      6  S   UNL     1      -2.072  12.748  19.965  0.00  0.00    +0.000 S 
ATOM      7  C   UNL     1      -1.715  11.281  19.140  0.00  0.00    +0.000 A 
ATOM      8  N   UNL     1      -0.876  10.540  19.838  0.00  0.00    +0.000 NA
ATOM      9  H   UNL     1       0.532  11.216  22.705  0.00  0.00    +0.000 HD
ENDROOT
BRANCH   7  10
ATOM     10  C   UNL     1      -2.321  10.897  17.859  0.00  0.00    +0.000 A 
ATOM     11  C   UNL     1      -1.768   9.926  17.009  0.00  0.00    +0.000 A 
ATOM     12  C   UNL     1      -2.374   9.616  15.786  0.00  0.00    +0.000 A 
ATOM     13  C   UNL     1      -3.542  10.271  15.402  0.00  0.00    +0.000 A 
ATOM     14 CL   UNL     1      -4.270   9.901  13.889  0.00  0.00    +0.000 Cl
ATOM     15  C   UNL     1      -4.120  11.220  16.238  0.00  0.00    +0.000 A 
ATOM     16  C   UNL     1      -3.516  11.526  17.460  0.00  0.00    +0.000 A 
ENDBRANCH   7  10
BRANCH   2  17
ATOM     17  C   UNL     1       0.621   8.448  20.734  0.00  0.00    +0.000 C 
BRANCH  17  18
ATOM     18  S   UNL     1       2.133   8.019  19.828  0.00  0.00    +0.000 S 
BRANCH  18  19
ATOM     19  C   UNL     1       2.212   6.304  20.058  0.00  0.00    +0.000 A 
ATOM     20  N   UNL     1       1.328   5.586  20.717  0.00  0.00    +0.000 NA
ATOM     21  N   UNL     1       1.635   4.278  20.450  0.00  0.00    +0.000 NA
ATOM     22  N   UNL     1       2.670   4.186  19.628  0.00  0.00    +0.000 NA
ATOM     23  N   UNL     1       3.113   5.456  19.426  0.00  0.00    +0.000 N 
BRANCH  23  24
ATOM     24  C   UNL     1       4.294   5.707  18.680  0.00  0.00    +0.000 A 
ATOM     25  C   UNL     1       4.183   6.215  17.375  0.00  0.00    +0.000 A 
ATOM     26  C   UNL     1       5.333   6.512  16.638  0.00  0.00    +0.000 A 
ATOM     27  C   UNL     1       6.594   6.275  17.182  0.00  0.00    +0.000 A 
ATOM     28  C   UNL     1       6.712   5.729  18.458  0.00  0.00    +0.000 A 
ATOM     29  C   UNL     1       5.567   5.443  19.204  0.00  0.00    +0.000 A 
ENDBRANCH  23  24
ENDBRANCH  18  19
ENDBRANCH  17  18
ENDBRANCH   2  17
TORSDOF 5
ENDMDL
MODEL 8
REMARK VINA RESULT:      -7.3      3.656      8.040
REMARK  Name = 
REMARK  5 active torsions:
REMARK  status: ('A' for Active; 'I' for Inactive)
REMARK    1  A    between atoms: C_2  and  C_3
REMARK    2  A    between atoms: C_3  and  S_4
REMARK    3  A    between atoms: S_4  and  C_5
REMARK    4  A    between atoms: N_9  and  C_10
REMARK    5  A    between atoms: C_20  and  C_21
REMARK                            x       y       z     vdW  Elec       q    Type
REMARK                         _______ _______ _______ _____ _____    ______ ____
ROOT
ATOM      1  O   UNL     1       0.549   8.571  21.320  0.00  0.00    +0.000 OA
ATOM      2  C   UNL     1       1.310   7.958  20.563  0.00  0.00    +0.000 C 
ATOM      3  N   UNL     1       1.578   6.658  20.874  0.00  0.00    +0.000 N 
ATOM      4  C   UNL     1       2.357   5.756  20.207  0.00  0.00    +0.000 A 
ATOM      5  N   UNL     1       2.538   4.539  20.718  0.00  0.00    +0.000 NA
ATOM      6  S   UNL     1       3.550   3.725  19.672  0.00  0.00    +0.000 S 
ATOM      7  C   UNL     1       3.657   5.047  18.576  0.00  0.00    +0.000 A 
ATOM      8  N   UNL     1       2.963   6.079  19.014  0.00  0.00    +0.000 NA
ATOM      9  H   UNL     1       1.147   6.309  21.718  0.00  0.00    +0.000 HD
ENDROOT
BRANCH   7  10
ATOM     10  C   UNL     1       4.466   5.028  17.352  0.00  0.00    +0.000 A 
ATOM     11  C   UNL     1       4.756   6.181  16.605  0.00  0.00    +0.000 A 
ATOM     12  C   UNL     1       5.512   6.103  15.430  0.00  0.00    +0.000 A 
ATOM     13  C   UNL     1       5.991   4.870  14.991  0.00  0.00    +0.000 A 
ATOM     14 CL   UNL     1       6.902   4.777  13.536  0.00  0.00    +0.000 Cl
ATOM     15  C   UNL     1       5.736   3.718  15.726  0.00  0.00    +0.000 A 
ATOM     16  C   UNL     1       4.983   3.798  16.901  0.00  0.00    +0.000 A 
ENDBRANCH   7  10
BRANCH   2  17
ATOM     17  C   UNL     1       1.953   8.590  19.330  0.00  0.00    +0.000 C 
BRANCH  17  18
ATOM     18  S   UNL     1       0.783   9.666  18.456  0.00  0.00    +0.000 S 
BRANCH  18  19
ATOM     19  C   UNL     1       1.472  11.234  18.726  0.00  0.00    +0.000 A 
ATOM     20  N   UNL     1       2.528  11.714  18.107  0.00  0.00    +0.000 NA
ATOM     21  N   UNL     1       2.579  13.044  18.431  0.00  0.00    +0.000 NA
ATOM     22  N   UNL     1       1.567  13.385  19.214  0.00  0.00    +0.000 NA
ATOM     23  N   UNL     1       0.890  12.238  19.489  0.00  0.00    +0.000 N 
BRANCH  23  24
ATOM     24  C   UNL     1      -0.193  12.230  20.407  0.00  0.00    +0.000 A 
ATOM     25  C   UNL     1       0.034  11.810  21.727  0.00  0.00    +0.000 A 
ATOM     26  C   UNL     1      -1.007  11.836  22.660  0.00  0.00    +0.000 A 
ATOM     27  C   UNL     1      -2.282  12.248  22.275  0.00  0.00    +0.000 A 
ATOM     28  C   UNL     1      -2.525  12.623  20.956  0.00  0.00    +0.000 A 
ATOM     29  C   UNL     1      -1.486  12.612  20.023  0.00  0.00    +0.000 A 
ENDBRANCH  23  24
ENDBRANCH  18  19
ENDBRANCH  17  18
ENDBRANCH   2  17
TORSDOF 5
ENDMDL
MODEL 9
REMARK VINA RESULT:      -7.2      4.167      5.853
REMARK  Name = 
REMARK  5 active torsions:
REMARK  status: ('A' for Active; 'I' for Inactive)
REMARK    1  A    between atoms: C_2  and  C_3
REMARK    2  A    between atoms: C_3  and  S_4
REMARK    3  A    between atoms: S_4  and  C_5
REMARK    4  A    between atoms: N_9  and  C_10
REMARK    5  A    between atoms: C_20  and  C_21
REMARK                            x       y       z     vdW  Elec       q    Type
REMARK                         _______ _______ _______ _____ _____    ______ ____
ROOT
ATOM      1  O   UNL     1      -3.533  10.529  15.094  0.00  0.00    +0.000 OA
ATOM      2  C   UNL     1      -3.737  11.040  16.200  0.00  0.00    +0.000 C 
ATOM      3  N   UNL     1      -5.036  11.170  16.592  0.00  0.00    +0.000 N 
ATOM      4  C   UNL     1      -5.538  11.674  17.759  0.00  0.00    +0.000 A 
ATOM      5  N   UNL     1      -6.857  11.768  17.922  0.00  0.00    +0.000 NA
ATOM      6  S   UNL     1      -7.108  12.440  19.426  0.00  0.00    +0.000 S 
ATOM      7  C   UNL     1      -5.428  12.532  19.785  0.00  0.00    +0.000 A 
ATOM      8  N   UNL     1      -4.706  12.088  18.775  0.00  0.00    +0.000 NA
ATOM      9  H   UNL     1      -5.731  10.858  15.929  0.00  0.00    +0.000 HD
ENDROOT
BRANCH   7  10
ATOM     10  C   UNL     1      -4.889  13.088  21.032  0.00  0.00    +0.000 A 
ATOM     11  C   UNL     1      -3.743  13.899  21.079  0.00  0.00    +0.000 A 
ATOM     12  C   UNL     1      -3.257  14.383  22.299  0.00  0.00    +0.000 A 
ATOM     13  C   UNL     1      -3.915  14.066  23.485  0.00  0.00    +0.000 A 
ATOM     14 CL   UNL     1      -3.301  14.645  24.983  0.00  0.00    +0.000 Cl
ATOM     15  C   UNL     1      -5.065  13.283  23.461  0.00  0.00    +0.000 A 
ATOM     16  C   UNL     1      -5.550  12.804  22.242  0.00  0.00    +0.000 A 
ENDBRANCH   7  10
BRANCH   2  17
ATOM     17  C   UNL     1      -2.617  11.527  17.117  0.00  0.00    +0.000 C 
BRANCH  17  18
ATOM     18  S   UNL     1      -1.670  10.137  17.796  0.00  0.00    +0.000 S 
BRANCH  18  19
ATOM     19  C   UNL     1      -0.738  10.911  19.034  0.00  0.00    +0.000 A 
ATOM     20  N   UNL     1      -1.089  12.003  19.676  0.00  0.00    +0.000 NA
ATOM     21  N   UNL     1      -0.206  12.127  20.716  0.00  0.00    +0.000 NA
ATOM     22  N   UNL     1       0.659  11.124  20.732  0.00  0.00    +0.000 NA
ATOM     23  N   UNL     1       0.400  10.376  19.625  0.00  0.00    +0.000 N 
BRANCH  23  24
ATOM     24  C   UNL     1       1.230   9.280  19.274  0.00  0.00    +0.000 A 
ATOM     25  C   UNL     1       1.436   8.252  20.209  0.00  0.00    +0.000 A 
ATOM     26  C   UNL     1       2.213   7.141  19.870  0.00  0.00    +0.000 A 
ATOM     27  C   UNL     1       2.813   7.063  18.615  0.00  0.00    +0.000 A 
ATOM     28  C   UNL     1       2.651   8.100  17.699  0.00  0.00    +0.000 A 
ATOM     29  C   UNL     1       1.865   9.206  18.027  0.00  0.00    +0.000 A 
ENDBRANCH  23  24
ENDBRANCH  18  19
ENDBRANCH  17  18
ENDBRANCH   2  17
TORSDOF 5
ENDMDL
