MODEL 1
REMARK VINA RESULT:      -7.5      0.000      0.000
REMARK  Name = 
REMARK  8 active torsions:
REMARK  status: ('A' for Active; 'I' for Inactive)
REMARK    1  A    between atoms: C_1  and  C_2
REMARK    2  A    between atoms: C_4  and  C_5
REMARK    3  A    between atoms: C_5  and  O_6
REMARK    4  A    between atoms: N_7  and  C_8
REMARK    5  A    between atoms: C_8  and  C_9
REMARK    6  A    between atoms: C_12  and  N_13
REMARK    7  A    between atoms: C_14  and  C_16
REMARK    8  A    between atoms: C_22  and  C_23
REMARK                            x       y       z     vdW  Elec       q    Type
REMARK                         _______ _______ _______ _____ _____    ______ ____
ROOT
ATOM      1  C   UNL     1       2.120   7.362  18.603  0.00  0.00    +0.000 C 
ATOM      2  C   UNL     1       2.316   7.405  20.124  0.00  0.00    +0.000 C 
ATOM      3  C   UNL     1       1.199   8.229  20.749  0.00  0.00    +0.000 C 
ATOM      4  C   UNL     1       1.042   9.623  20.121  0.00  0.00    +0.000 C 
ATOM      5  C   UNL     1       1.240   9.694  18.594  0.00  0.00    +0.000 C 
ATOM      6  C   UNL     1       2.348   8.780  18.071  0.00  0.00    +0.000 C 
ENDROOT
BRANCH   4   7
ATOM      7  N   UNL     1      -0.223  10.231  20.527  0.00  0.00    +0.000 N 
ATOM      8  C   UNL     1      -0.300  11.441  21.206  0.00  0.00    +0.000 C 
ATOM      9  O   UNL     1       0.668  12.089  21.573  0.00  0.00    +0.000 OA
ATOM     10  H   UNL     1      -1.065   9.841  20.126  0.00  0.00    +0.000 HD
BRANCH   8  11
ATOM     11  C   UNL     1      -1.673  11.936  21.468  0.00  0.00    +0.000 A 
ATOM     12  C   UNL     1      -2.156  11.946  22.784  0.00  0.00    +0.000 A 
ATOM     13  C   UNL     1      -3.442  12.404  23.035  0.00  0.00    +0.000 A 
ATOM     14 CL   UNL     1      -4.070  12.396  24.630  0.00  0.00    +0.000 Cl
ATOM     15  C   UNL     1      -4.199  12.856  21.969  0.00  0.00    +0.000 A 
ATOM     16  N   UNL     1      -3.757  12.876  20.689  0.00  0.00    +0.000 NA
ATOM     17  C   UNL     1      -2.498  12.418  20.442  0.00  0.00    +0.000 A 
ATOM     18  C   UNL     1      -2.072  12.462  19.003  0.00  0.00    +0.000 C 
ENDBRANCH   8  11
ENDBRANCH   4   7
BRANCH   1  19
ATOM     19  C   UNL     1       2.975   6.307  17.883  0.00  0.00    +0.000 C 
BRANCH  19  24
ATOM     20  C   UNL     1       0.876   2.105  18.822  0.00  0.00    +0.000 C 
ATOM     21  C   UNL     1       1.943   3.129  18.873  0.00  0.00    +0.000 A 
ATOM     22  C   UNL     1       3.303   2.968  19.213  0.00  0.00    +0.000 A 
ATOM     23  C   UNL     1       3.884   4.205  19.015  0.00  0.00    +0.000 A 
ATOM     24  N   UNL     1       2.873   5.006  18.537  0.00  0.00    +0.000 N 
ATOM     25  N   UNL     1       1.670   4.394  18.547  0.00  0.00    +0.000 NA
BRANCH  23  26
ATOM     26  C   UNL     1       5.280   4.645  19.240  0.00  0.00    +0.000 C 
BRANCH  26  27
ATOM     27  O   UNL     1       6.133   3.856  18.433  0.00  0.00    +0.000 OA
ATOM     28  H   UNL     1       6.411   4.408  17.679  0.00  0.00    +0.000 HD
ENDBRANCH  26  27
ENDBRANCH  23  26
ENDBRANCH  19  24
ENDBRANCH   1  19
TORSDOF 6
ENDMDL
MODEL 2
REMARK VINA RESULT:      -7.5      2.327      2.683
REMARK  Name = 
REMARK  8 active torsions:
REMARK  status: ('A' for Active; 'I' for Inactive)
REMARK    1  A    between atoms: C_1  and  C_2
REMARK    2  A    between atoms: C_4  and  C_5
REMARK    3  A    between atoms: C_5  and  O_6
REMARK    4  A    between atoms: N_7  and  C_8
REMARK    5  A    between atoms: C_8  and  C_9
REMARK    6  A    between atoms: C_12  and  N_13
REMARK    7  A    between atoms: C_14  and  C_16
REMARK    8  A    between atoms: C_22  and  C_23
REMARK                            x       y       z     vdW  Elec       q    Type
REMARK                         _______ _______ _______ _____ _____    ______ ____
ROOT
ATOM      1  C   UNL     1       2.246   7.500  19.047  0.00  0.00    +0.000 C 
ATOM      2  C   UNL     1       1.904   8.144  20.397  0.00  0.00    +0.000 C 
ATOM      3  C   UNL     1       0.536   8.805  20.302  0.00  0.00    +0.000 C 
ATOM      4  C   UNL     1       0.408   9.779  19.120  0.00  0.00    +0.000 C 
ATOM      5  C   UNL     1       1.102   9.341  17.815  0.00  0.00    +0.000 C 
ATOM      6  C   UNL     1       2.440   8.633  18.034  0.00  0.00    +0.000 C 
ENDROOT
BRANCH   4   7
ATOM      7  N   UNL     1      -0.993  10.129  18.890  0.00  0.00    +0.000 N 
ATOM      8  C   UNL     1      -1.398  11.376  18.432  0.00  0.00    +0.000 C 
ATOM      9  O   UNL     1      -0.642  12.313  18.224  0.00  0.00    +0.000 OA
ATOM     10  H   UNL     1      -1.658   9.367  18.888  0.00  0.00    +0.000 HD
BRANCH   8  11
ATOM     11  C   UNL     1      -2.853  11.522  18.189  0.00  0.00    +0.000 A 
ATOM     12  C   UNL     1      -3.674  12.002  19.219  0.00  0.00    +0.000 A 
ATOM     13  C   UNL     1      -5.037  12.137  18.999  0.00  0.00    +0.000 A 
ATOM     14 CL   UNL     1      -6.069  12.690  20.252  0.00  0.00    +0.000 Cl
ATOM     15  C   UNL     1      -5.538  11.806  17.752  0.00  0.00    +0.000 A 
ATOM     16  N   UNL     1      -4.771  11.356  16.730  0.00  0.00    +0.000 NA
ATOM     17  C   UNL     1      -3.434  11.216  16.950  0.00  0.00    +0.000 A 
ATOM     18  C   UNL     1      -2.643  10.708  15.779  0.00  0.00    +0.000 C 
ENDBRANCH   8  11
ENDBRANCH   4   7
BRANCH   1  19
ATOM     19  C   UNL     1       3.436   6.528  19.092  0.00  0.00    +0.000 C 
BRANCH  19  24
ATOM     20  C   UNL     1       0.440   2.794  18.922  0.00  0.00    +0.000 C 
ATOM     21  C   UNL     1       1.651   3.577  18.590  0.00  0.00    +0.000 A 
ATOM     22  C   UNL     1       2.529   3.419  17.497  0.00  0.00    +0.000 A 
ATOM     23  C   UNL     1       3.438   4.455  17.599  0.00  0.00    +0.000 A 
ATOM     24  N   UNL     1       3.034   5.181  18.695  0.00  0.00    +0.000 N 
ATOM     25  N   UNL     1       2.017   4.600  19.365  0.00  0.00    +0.000 NA
BRANCH  23  26
ATOM     26  C   UNL     1       4.608   4.778  16.750  0.00  0.00    +0.000 C 
BRANCH  26  27
ATOM     27  O   UNL     1       5.399   3.613  16.617  0.00  0.00    +0.000 OA
ATOM     28  H   UNL     1       4.860   2.861  16.925  0.00  0.00    +0.000 HD
ENDBRANCH  26  27
ENDBRANCH  23  26
ENDBRANCH  19  24
ENDBRANCH   1  19
TORSDOF 6
ENDMDL
MODEL 3
REMARK VINA RESULT:      -7.3      2.641      3.845
REMARK  Name = 
REMARK  8 active torsions:
REMARK  status: ('A' for Active; 'I' for Inactive)
REMARK    1  A    between atoms: C_1  and  C_2
REMARK    2  A    between atoms: C_4  and  C_5
REMARK    3  A    between atoms: C_5  and  O_6
REMARK    4  A    between atoms: N_7  and  C_8
REMARK    5  A    between atoms: C_8  and  C_9
REMARK    6  A    between atoms: C_12  and  N_13
REMARK    7  A    between atoms: C_14  and  C_16
REMARK    8  A    between atoms: C_22  and  C_23
REMARK                            x       y       z     vdW  Elec       q    Type
REMARK                         _______ _______ _______ _____ _____    ______ ____
ROOT
ATOM      1  C   UNL     1       3.779   5.501  19.170  0.00  0.00    +0.000 C 
ATOM      2  C   UNL     1       3.415   6.239  17.874  0.00  0.00    +0.000 C 
ATOM      3  C   UNL     1       2.953   7.649  18.216  0.00  0.00    +0.000 C 
ATOM      4  C   UNL     1       1.833   7.687  19.268  0.00  0.00    +0.000 C 
ATOM      5  C   UNL     1       1.952   6.658  20.409  0.00  0.00    +0.000 C 
ATOM      6  C   UNL     1       2.484   5.296  19.961  0.00  0.00    +0.000 C 
ENDROOT
BRANCH   4   7
ATOM      7  N   UNL     1       1.658   9.043  19.785  0.00  0.00    +0.000 N 
ATOM      8  C   UNL     1       0.806   9.973  19.203  0.00  0.00    +0.000 C 
ATOM      9  O   UNL     1       0.159   9.775  18.185  0.00  0.00    +0.000 OA
ATOM     10  H   UNL     1       2.034   9.231  20.704  0.00  0.00    +0.000 HD
BRANCH   8  11
ATOM     11  C   UNL     1       0.704  11.272  19.911  0.00  0.00    +0.000 A 
ATOM     12  C   UNL     1      -0.116  11.371  21.044  0.00  0.00    +0.000 A 
ATOM     13  C   UNL     1      -0.219  12.585  21.708  0.00  0.00    +0.000 A 
ATOM     14 CL   UNL     1      -1.240  12.743  23.075  0.00  0.00    +0.000 Cl
ATOM     15  C   UNL     1       0.515  13.659  21.233  0.00  0.00    +0.000 A 
ATOM     16  N   UNL     1       1.329  13.593  20.152  0.00  0.00    +0.000 NA
ATOM     17  C   UNL     1       1.422  12.402  19.496  0.00  0.00    +0.000 A 
ATOM     18  C   UNL     1       2.336  12.399  18.305  0.00  0.00    +0.000 C 
ENDBRANCH   8  11
ENDBRANCH   4   7
BRANCH   1  19
ATOM     19  C   UNL     1       4.563   4.196  18.957  0.00  0.00    +0.000 C 
BRANCH  19  24
ATOM     20  C   UNL     1       6.317   4.366  14.502  0.00  0.00    +0.000 C 
ATOM     21  C   UNL     1       6.343   4.501  15.976  0.00  0.00    +0.000 A 
ATOM     22  C   UNL     1       7.252   5.221  16.779  0.00  0.00    +0.000 A 
ATOM     23  C   UNL     1       6.782   5.101  18.072  0.00  0.00    +0.000 A 
ATOM     24  N   UNL     1       5.621   4.369  17.967  0.00  0.00    +0.000 N 
ATOM     25  N   UNL     1       5.402   3.911  16.717  0.00  0.00    +0.000 NA
BRANCH  23  26
ATOM     26  C   UNL     1       7.345   5.620  19.340  0.00  0.00    +0.000 C 
BRANCH  26  27
ATOM     27  O   UNL     1       8.266   6.649  19.031  0.00  0.00    +0.000 OA
ATOM     28  H   UNL     1       8.605   6.997  19.875  0.00  0.00    +0.000 HD
ENDBRANCH  26  27
ENDBRANCH  23  26
ENDBRANCH  19  24
ENDBRANCH   1  19
TORSDOF 6
ENDMDL
MODEL 4
REMARK VINA RESULT:      -7.3      1.434      1.844
REMARK  Name = 
REMARK  8 active torsions:
REMARK  status: ('A' for Active; 'I' for Inactive)
REMARK    1  A    between atoms: C_1  and  C_2
REMARK    2  A    between atoms: C_4  and  C_5
REMARK    3  A    between atoms: C_5  and  O_6
REMARK    4  A    between atoms: N_7  and  C_8
REMARK    5  A    between atoms: C_8  and  C_9
REMARK    6  A    between atoms: C_12  and  N_13
REMARK    7  A    between atoms: C_14  and  C_16
REMARK    8  A    between atoms: C_22  and  C_23
REMARK                            x       y       z     vdW  Elec       q    Type
REMARK                         _______ _______ _______ _____ _____    ______ ____
ROOT
ATOM      1  C   UNL     1       2.067   7.475  18.408  0.00  0.00    +0.000 C 
ATOM      2  C   UNL     1       2.301   7.658  19.914  0.00  0.00    +0.000 C 
ATOM      3  C   UNL     1       1.154   8.468  20.503  0.00  0.00    +0.000 C 
ATOM      4  C   UNL     1       0.899   9.792  19.767  0.00  0.00    +0.000 C 
ATOM      5  C   UNL     1       1.051   9.746  18.234  0.00  0.00    +0.000 C 
ATOM      6  C   UNL     1       2.196   8.854  17.753  0.00  0.00    +0.000 C 
ENDROOT
BRANCH   4   7
ATOM      7  N   UNL     1      -0.389  10.361  20.161  0.00  0.00    +0.000 N 
ATOM      8  C   UNL     1      -0.642  11.727  20.179  0.00  0.00    +0.000 C 
ATOM      9  O   UNL     1       0.187  12.585  19.919  0.00  0.00    +0.000 OA
ATOM     10  H   UNL     1      -1.166   9.718  20.237  0.00  0.00    +0.000 HD
BRANCH   8  11
ATOM     11  C   UNL     1      -2.029  12.111  20.535  0.00  0.00    +0.000 A 
ATOM     12  C   UNL     1      -3.004  12.161  19.528  0.00  0.00    +0.000 A 
ATOM     13  C   UNL     1      -4.303  12.525  19.853  0.00  0.00    +0.000 A 
ATOM     14 CL   UNL     1      -5.507  12.626  18.638  0.00  0.00    +0.000 Cl
ATOM     15  C   UNL     1      -4.595  12.809  21.176  0.00  0.00    +0.000 A 
ATOM     16  N   UNL     1      -3.681  12.755  22.175  0.00  0.00    +0.000 NA
ATOM     17  C   UNL     1      -2.404  12.406  21.853  0.00  0.00    +0.000 A 
ATOM     18  C   UNL     1      -1.441  12.370  23.004  0.00  0.00    +0.000 C 
ENDBRANCH   8  11
ENDBRANCH   4   7
BRANCH   1  19
ATOM     19  C   UNL     1       2.963   6.414  17.752  0.00  0.00    +0.000 C 
BRANCH  19  24
ATOM     20  C   UNL     1       0.887   2.221  18.782  0.00  0.00    +0.000 C 
ATOM     21  C   UNL     1       1.943   3.258  18.821  0.00  0.00    +0.000 A 
ATOM     22  C   UNL     1       3.298   3.121  19.191  0.00  0.00    +0.000 A 
ATOM     23  C   UNL     1       3.871   4.358  18.965  0.00  0.00    +0.000 A 
ATOM     24  N   UNL     1       2.861   5.133  18.444  0.00  0.00    +0.000 N 
ATOM     25  N   UNL     1       1.664   4.509  18.450  0.00  0.00    +0.000 NA
BRANCH  23  26
ATOM     26  C   UNL     1       5.258   4.819  19.202  0.00  0.00    +0.000 C 
BRANCH  26  27
ATOM     27  O   UNL     1       6.146   3.814  18.751  0.00  0.00    +0.000 OA
ATOM     28  H   UNL     1       6.588   3.445  19.538  0.00  0.00    +0.000 HD
ENDBRANCH  26  27
ENDBRANCH  23  26
ENDBRANCH  19  24
ENDBRANCH   1  19
TORSDOF 6
ENDMDL
MODEL 5
REMARK VINA RESULT:      -7.3      2.593      3.279
REMARK  Name = 
REMARK  8 active torsions:
REMARK  status: ('A' for Active; 'I' for Inactive)
REMARK    1  A    between atoms: C_1  and  C_2
REMARK    2  A    between atoms: C_4  and  C_5
REMARK    3  A    between atoms: C_5  and  O_6
REMARK    4  A    between atoms: N_7  and  C_8
REMARK    5  A    between atoms: C_8  and  C_9
REMARK    6  A    between atoms: C_12  and  N_13
REMARK    7  A    between atoms: C_14  and  C_16
REMARK    8  A    between atoms: C_22  and  C_23
REMARK                            x       y       z     vdW  Elec       q    Type
REMARK                         _______ _______ _______ _____ _____    ______ ____
ROOT
ATOM      1  C   UNL     1       2.098   7.452  19.317  0.00  0.00    +0.000 C 
ATOM      2  C   UNL     1       1.772   8.213  20.609  0.00  0.00    +0.000 C 
ATOM      3  C   UNL     1       0.425   8.904  20.455  0.00  0.00    +0.000 C 
ATOM      4  C   UNL     1       0.328   9.782  19.197  0.00  0.00    +0.000 C 
ATOM      5  C   UNL     1       1.012   9.220  17.936  0.00  0.00    +0.000 C 
ATOM      6  C   UNL     1       2.328   8.493  18.217  0.00  0.00    +0.000 C 
ENDROOT
BRANCH   4   7
ATOM      7  N   UNL     1      -1.061  10.154  18.933  0.00  0.00    +0.000 N 
ATOM      8  C   UNL     1      -1.433  11.401  18.447  0.00  0.00    +0.000 C 
ATOM      9  O   UNL     1      -0.656  12.320  18.239  0.00  0.00    +0.000 OA
ATOM     10  H   UNL     1      -1.739   9.405  18.931  0.00  0.00    +0.000 HD
BRANCH   8  11
ATOM     11  C   UNL     1      -2.880  11.569  18.172  0.00  0.00    +0.000 A 
ATOM     12  C   UNL     1      -3.714  12.070  19.182  0.00  0.00    +0.000 A 
ATOM     13  C   UNL     1      -5.070  12.225  18.932  0.00  0.00    +0.000 A 
ATOM     14 CL   UNL     1      -6.119  12.803  20.158  0.00  0.00    +0.000 Cl
ATOM     15  C   UNL     1      -5.550  11.894  17.676  0.00  0.00    +0.000 A 
ATOM     16  N   UNL     1      -4.769  11.425  16.674  0.00  0.00    +0.000 NA
ATOM     17  C   UNL     1      -3.439  11.264  16.923  0.00  0.00    +0.000 A 
ATOM     18  C   UNL     1      -2.633  10.735  15.773  0.00  0.00    +0.000 C 
ENDBRANCH   8  11
ENDBRANCH   4   7
BRANCH   1  19
ATOM     19  C   UNL     1       3.258   6.452  19.445  0.00  0.00    +0.000 C 
BRANCH  19  24
ATOM     20  C   UNL     1       5.289   4.266  15.697  0.00  0.00    +0.000 C 
ATOM     21  C   UNL     1       4.242   4.529  16.710  0.00  0.00    +0.000 A 
ATOM     22  C   UNL     1       3.182   3.693  17.120  0.00  0.00    +0.000 A 
ATOM     23  C   UNL     1       2.553   4.367  18.149  0.00  0.00    +0.000 A 
ATOM     24  N   UNL     1       3.282   5.521  18.321  0.00  0.00    +0.000 N 
ATOM     25  N   UNL     1       4.243   5.680  17.386  0.00  0.00    +0.000 NA
BRANCH  23  26
ATOM     26  C   UNL     1       1.360   3.991  18.940  0.00  0.00    +0.000 C 
BRANCH  26  27
ATOM     27  O   UNL     1       1.092   2.619  18.721  0.00  0.00    +0.000 OA
ATOM     28  H   UNL     1       1.914   2.130  18.910  0.00  0.00    +0.000 HD
ENDBRANCH  26  27
ENDBRANCH  23  26
ENDBRANCH  19  24
ENDBRANCH   1  19
TORSDOF 6
ENDMDL
MODEL 6
REMARK VINA RESULT:      -7.2      1.527      2.515
REMARK  Name = 
REMARK  8 active torsions:
REMARK  status: ('A' for Active; 'I' for Inactive)
REMARK    1  A    between atoms: C_1  and  C_2
REMARK    2  A    between atoms: C_4  and  C_5
REMARK    3  A    between atoms: C_5  and  O_6
REMARK    4  A    between atoms: N_7  and  C_8
REMARK    5  A    between atoms: C_8  and  C_9
REMARK    6  A    between atoms: C_12  and  N_13
REMARK    7  A    between atoms: C_14  and  C_16
REMARK    8  A    between atoms: C_22  and  C_23
REMARK                            x       y       z     vdW  Elec       q    Type
REMARK                         _______ _______ _______ _____ _____    ______ ____
ROOT
ATOM      1  C   UNL     1       2.365   6.437  18.330  0.00  0.00    +0.000 C 
ATOM      2  C   UNL     1       2.569   6.508  19.850  0.00  0.00    +0.000 C 
ATOM      3  C   UNL     1       1.556   7.478  20.444  0.00  0.00    +0.000 C 
ATOM      4  C   UNL     1       1.563   8.859  19.770  0.00  0.00    +0.000 C 
ATOM      5  C   UNL     1       1.765   8.855  18.242  0.00  0.00    +0.000 C 
ATOM      6  C   UNL     1       2.757   7.800  17.751  0.00  0.00    +0.000 C 
ENDROOT
BRANCH   4   7
ATOM      7  N   UNL     1       0.378   9.625  20.152  0.00  0.00    +0.000 N 
ATOM      8  C   UNL     1       0.377  11.009  20.273  0.00  0.00    +0.000 C 
ATOM      9  O   UNL     1       1.361  11.716  20.124  0.00  0.00    +0.000 OA
ATOM     10  H   UNL     1      -0.504   9.134  20.140  0.00  0.00    +0.000 HD
BRANCH   8  11
ATOM     11  C   UNL     1      -0.936  11.617  20.598  0.00  0.00    +0.000 A 
ATOM     12  C   UNL     1      -1.330  11.715  21.941  0.00  0.00    +0.000 A 
ATOM     13  C   UNL     1      -2.559  12.278  22.251  0.00  0.00    +0.000 A 
ATOM     14 CL   UNL     1      -3.081  12.382  23.881  0.00  0.00    +0.000 Cl
ATOM     15  C   UNL     1      -3.351  12.744  21.215  0.00  0.00    +0.000 A 
ATOM     16  N   UNL     1      -2.993  12.679  19.910  0.00  0.00    +0.000 NA
ATOM     17  C   UNL     1      -1.789  12.118  19.606  0.00  0.00    +0.000 A 
ATOM     18  C   UNL     1      -1.457  12.072  18.142  0.00  0.00    +0.000 C 
ENDBRANCH   8  11
ENDBRANCH   4   7
BRANCH   1  19
ATOM     19  C   UNL     1       3.090   5.267  17.648  0.00  0.00    +0.000 C 
BRANCH  19  24
ATOM     20  C   UNL     1       7.539   7.005  18.005  0.00  0.00    +0.000 C 
ATOM     21  C   UNL     1       6.435   6.047  18.236  0.00  0.00    +0.000 A 
ATOM     22  C   UNL     1       6.327   5.049  19.228  0.00  0.00    +0.000 A 
ATOM     23  C   UNL     1       5.071   4.499  19.066  0.00  0.00    +0.000 A 
ATOM     24  N   UNL     1       4.495   5.212  18.040  0.00  0.00    +0.000 N 
ATOM     25  N   UNL     1       5.349   6.081  17.460  0.00  0.00    +0.000 NA
BRANCH  23  26
ATOM     26  C   UNL     1       4.418   3.391  19.800  0.00  0.00    +0.000 C 
BRANCH  26  27
ATOM     27  O   UNL     1       5.272   2.263  19.758  0.00  0.00    +0.000 OA
ATOM     28  H   UNL     1       4.877   1.625  19.135  0.00  0.00    +0.000 HD
ENDBRANCH  26  27
ENDBRANCH  23  26
ENDBRANCH  19  24
ENDBRANCH   1  19
TORSDOF 6
ENDMDL
MODEL 7
REMARK VINA RESULT:      -7.2      4.260     10.013
REMARK  Name = 
REMARK  8 active torsions:
REMARK  status: ('A' for Active; 'I' for Inactive)
REMARK    1  A    between atoms: C_1  and  C_2
REMARK    2  A    between atoms: C_4  and  C_5
REMARK    3  A    between atoms: C_5  and  O_6
REMARK    4  A    between atoms: N_7  and  C_8
REMARK    5  A    between atoms: C_8  and  C_9
REMARK    6  A    between atoms: C_12  and  N_13
REMARK    7  A    between atoms: C_14  and  C_16
REMARK    8  A    between atoms: C_22  and  C_23
REMARK                            x       y       z     vdW  Elec       q    Type
REMARK                         _______ _______ _______ _____ _____    ______ ____
ROOT
ATOM      1  C   UNL     1       1.258   9.551  19.998  0.00  0.00    +0.000 C 
ATOM      2  C   UNL     1       1.237   8.137  20.595  0.00  0.00    +0.000 C 
ATOM      3  C   UNL     1       2.323   7.300  19.934  0.00  0.00    +0.000 C 
ATOM      4  C   UNL     1       2.251   7.307  18.399  0.00  0.00    +0.000 C 
ATOM      5  C   UNL     1       1.870   8.653  17.754  0.00  0.00    +0.000 C 
ATOM      6  C   UNL     1       0.815   9.437  18.536  0.00  0.00    +0.000 C 
ENDROOT
BRANCH   4   7
ATOM      7  N   UNL     1       3.481   6.766  17.824  0.00  0.00    +0.000 N 
ATOM      8  C   UNL     1       3.733   5.404  17.715  0.00  0.00    +0.000 C 
ATOM      9  O   UNL     1       2.987   4.529  18.127  0.00  0.00    +0.000 OA
ATOM     10  H   UNL     1       4.073   7.414  17.323  0.00  0.00    +0.000 HD
BRANCH   8  11
ATOM     11  C   UNL     1       5.002   5.044  17.037  0.00  0.00    +0.000 A 
ATOM     12  C   UNL     1       4.977   4.700  15.678  0.00  0.00    +0.000 A 
ATOM     13  C   UNL     1       6.161   4.358  15.040  0.00  0.00    +0.000 A 
ATOM     14 CL   UNL     1       6.155   3.900  13.388  0.00  0.00    +0.000 Cl
ATOM     15  C   UNL     1       7.336   4.389  15.771  0.00  0.00    +0.000 A 
ATOM     16  N   UNL     1       7.397   4.734  17.079  0.00  0.00    +0.000 NA
ATOM     17  C   UNL     1       6.233   5.061  17.708  0.00  0.00    +0.000 A 
ATOM     18  C   UNL     1       6.370   5.427  19.157  0.00  0.00    +0.000 C 
ENDBRANCH   8  11
ENDBRANCH   4   7
BRANCH   1  19
ATOM     19  C   UNL     1       0.445  10.586  20.790  0.00  0.00    +0.000 C 
BRANCH  19  24
ATOM     20  C   UNL     1       2.550  14.029  18.209  0.00  0.00    +0.000 C 
ATOM     21  C   UNL     1       1.457  13.377  18.965  0.00  0.00    +0.000 A 
ATOM     22  C   UNL     1       0.075  13.661  18.936  0.00  0.00    +0.000 A 
ATOM     23  C   UNL     1      -0.516  12.711  19.746  0.00  0.00    +0.000 A 
ATOM     24  N   UNL     1       0.517  11.905  20.168  0.00  0.00    +0.000 N 
ATOM     25  N   UNL     1       1.728  12.361  19.787  0.00  0.00    +0.000 NA
BRANCH  23  26
ATOM     26  C   UNL     1      -1.938  12.533  20.120  0.00  0.00    +0.000 C 
BRANCH  26  27
ATOM     27  O   UNL     1      -2.653  13.686  19.716  0.00  0.00    +0.000 OA
ATOM     28  H   UNL     1      -2.611  14.324  20.452  0.00  0.00    +0.000 HD
ENDBRANCH  26  27
ENDBRANCH  23  26
ENDBRANCH  19  24
ENDBRANCH   1  19
TORSDOF 6
ENDMDL
MODEL 8
REMARK VINA RESULT:      -7.2      3.038      4.180
REMARK  Name = 
REMARK  8 active torsions:
REMARK  status: ('A' for Active; 'I' for Inactive)
REMARK    1  A    between atoms: C_1  and  C_2
REMARK    2  A    between atoms: C_4  and  C_5
REMARK    3  A    between atoms: C_5  and  O_6
REMARK    4  A    between atoms: N_7  and  C_8
REMARK    5  A    between atoms: C_8  and  C_9
REMARK    6  A    between atoms: C_12  and  N_13
REMARK    7  A    between atoms: C_14  and  C_16
REMARK    8  A    between atoms: C_22  and  C_23
REMARK                            x       y       z     vdW  Elec       q    Type
REMARK                         _______ _______ _______ _____ _____    ______ ____
ROOT
ATOM      1  C   UNL     1       3.521   5.601  19.148  0.00  0.00    +0.000 C 
ATOM      2  C   UNL     1       3.102   6.282  17.838  0.00  0.00    +0.000 C 
ATOM      3  C   UNL     1       2.780   7.744  18.117  0.00  0.00    +0.000 C 
ATOM      4  C   UNL     1       1.762   7.941  19.251  0.00  0.00    +0.000 C 
ATOM      5  C   UNL     1       1.902   6.980  20.449  0.00  0.00    +0.000 C 
ATOM      6  C   UNL     1       2.287   5.553  20.055  0.00  0.00    +0.000 C 
ENDROOT
BRANCH   4   7
ATOM      7  N   UNL     1       1.737   9.336  19.685  0.00  0.00    +0.000 N 
ATOM      8  C   UNL     1       0.723  10.220  19.337  0.00  0.00    +0.000 C 
ATOM      9  O   UNL     1      -0.214   9.942  18.604  0.00  0.00    +0.000 OA
ATOM     10  H   UNL     1       2.386   9.598  20.414  0.00  0.00    +0.000 HD
BRANCH   8  11
ATOM     11  C   UNL     1       0.830  11.575  19.930  0.00  0.00    +0.000 A 
ATOM     12  C   UNL     1       1.437  12.600  19.190  0.00  0.00    +0.000 A 
ATOM     13  C   UNL     1       1.544  13.868  19.742  0.00  0.00    +0.000 A 
ATOM     14 CL   UNL     1       2.312  15.131  18.873  0.00  0.00    +0.000 Cl
ATOM     15  C   UNL     1       1.026  14.082  21.007  0.00  0.00    +0.000 A 
ATOM     16  N   UNL     1       0.418  13.119  21.741  0.00  0.00    +0.000 NA
ATOM     17  C   UNL     1       0.321  11.871  21.202  0.00  0.00    +0.000 A 
ATOM     18  C   UNL     1      -0.357  10.851  22.070  0.00  0.00    +0.000 C 
ENDBRANCH   8  11
ENDBRANCH   4   7
BRANCH   1  19
ATOM     19  C   UNL     1       4.181   4.225  18.964  0.00  0.00    +0.000 C 
BRANCH  19  24
ATOM     20  C   UNL     1       6.292   4.058  14.666  0.00  0.00    +0.000 C 
ATOM     21  C   UNL     1       6.204   4.285  16.127  0.00  0.00    +0.000 A 
ATOM     22  C   UNL     1       7.071   5.027  16.957  0.00  0.00    +0.000 A 
ATOM     23  C   UNL     1       6.495   5.003  18.212  0.00  0.00    +0.000 A 
ATOM     24  N   UNL     1       5.321   4.303  18.055  0.00  0.00    +0.000 N 
ATOM     25  N   UNL     1       5.186   3.773  16.821  0.00  0.00    +0.000 NA
BRANCH  23  26
ATOM     26  C   UNL     1       6.973   5.584  19.487  0.00  0.00    +0.000 C 
BRANCH  26  27
ATOM     27  O   UNL     1       8.341   5.257  19.642  0.00  0.00    +0.000 OA
ATOM     28  H   UNL     1       8.819   6.089  19.816  0.00  0.00    +0.000 HD
ENDBRANCH  26  27
ENDBRANCH  23  26
ENDBRANCH  19  24
ENDBRANCH   1  19
TORSDOF 6
ENDMDL
MODEL 9
REMARK VINA RESULT:      -7.2      2.906      4.060
REMARK  Name = 
REMARK  8 active torsions:
REMARK  status: ('A' for Active; 'I' for Inactive)
REMARK    1  A    between atoms: C_1  and  C_2
REMARK    2  A    between atoms: C_4  and  C_5
REMARK    3  A    between atoms: C_5  and  O_6
REMARK    4  A    between atoms: N_7  and  C_8
REMARK    5  A    between atoms: C_8  and  C_9
REMARK    6  A    between atoms: C_12  and  N_13
REMARK    7  A    between atoms: C_14  and  C_16
REMARK    8  A    between atoms: C_22  and  C_23
REMARK                            x       y       z     vdW  Elec       q    Type
REMARK                         _______ _______ _______ _____ _____    ______ ____
ROOT
ATOM      1  C   UNL     1       3.315   5.217  18.458  0.00  0.00    +0.000 C 
ATOM      2  C   UNL     1       3.228   5.641  19.930  0.00  0.00    +0.000 C 
ATOM      3  C   UNL     1       2.121   6.673  20.089  0.00  0.00    +0.000 C 
ATOM      4  C   UNL     1       2.252   7.864  19.126  0.00  0.00    +0.000 C 
ATOM      5  C   UNL     1       2.738   7.522  17.703  0.00  0.00    +0.000 C 
ATOM      6  C   UNL     1       3.806   6.429  17.660  0.00  0.00    +0.000 C 
ENDROOT
BRANCH   4   7
ATOM      7  N   UNL     1       1.016   8.643  19.097  0.00  0.00    +0.000 N 
ATOM      8  C   UNL     1       0.944   9.935  18.591  0.00  0.00    +0.000 C 
ATOM      9  O   UNL     1       1.902  10.564  18.168  0.00  0.00    +0.000 OA
ATOM     10  H   UNL     1       0.158   8.141  19.281  0.00  0.00    +0.000 HD
BRANCH   8  11
ATOM     11  C   UNL     1      -0.410  10.538  18.578  0.00  0.00    +0.000 A 
ATOM     12  C   UNL     1      -1.283  10.235  17.523  0.00  0.00    +0.000 A 
ATOM     13  C   UNL     1      -2.550  10.800  17.502  0.00  0.00    +0.000 A 
ATOM     14 CL   UNL     1      -3.625  10.475  16.208  0.00  0.00    +0.000 Cl
ATOM     15  C   UNL     1      -2.915  11.635  18.545  0.00  0.00    +0.000 A 
ATOM     16  N   UNL     1      -2.103  11.934  19.587  0.00  0.00    +0.000 NA
ATOM     17  C   UNL     1      -0.856  11.385  19.602  0.00  0.00    +0.000 A 
ATOM     18  C   UNL     1      -0.006  11.761  20.780  0.00  0.00    +0.000 C 
ENDBRANCH   8  11
ENDBRANCH   4   7
BRANCH   1  19
ATOM     19  C   UNL     1       4.156   3.956  18.210  0.00  0.00    +0.000 C 
BRANCH  19  24
ATOM     20  C   UNL     1       6.885   4.849  14.375  0.00  0.00    +0.000 C 
ATOM     21  C   UNL     1       6.567   4.734  15.816  0.00  0.00    +0.000 A 
ATOM     22  C   UNL     1       7.247   5.299  16.916  0.00  0.00    +0.000 A 
ATOM     23  C   UNL     1       6.494   4.969  18.026  0.00  0.00    +0.000 A 
ATOM     24  N   UNL     1       5.410   4.280  17.535  0.00  0.00    +0.000 N 
ATOM     25  N   UNL     1       5.496   4.041  16.209  0.00  0.00    +0.000 NA
BRANCH  23  26
ATOM     26  C   UNL     1       6.736   5.261  19.458  0.00  0.00    +0.000 C 
BRANCH  26  27
ATOM     27  O   UNL     1       8.114   5.533  19.632  0.00  0.00    +0.000 OA
ATOM     28  H   UNL     1       8.183   6.343  20.170  0.00  0.00    +0.000 HD
ENDBRANCH  26  27
ENDBRANCH  23  26
ENDBRANCH  19  24
ENDBRANCH   1  19
TORSDOF 6
ENDMDL
