MODEL 1
REMARK VINA RESULT:      -7.1      0.000      0.000
REMARK  Name = 
REMARK  7 active torsions:
REMARK  status: ('A' for Active; 'I' for Inactive)
REMARK    1  A    between atoms: C_1  and  C_2
REMARK    2  A    between atoms: C_5  and  N_6
REMARK    3  A    between atoms: C_7  and  C_9
REMARK    4  A    between atoms: C_9  and  C_10
REMARK    5  A    between atoms: C_9  and  C_11
REMARK    6  A    between atoms: C_9  and  C_12
REMARK    7  A    between atoms: C_16  and  C_17
REMARK                            x       y       z     vdW  Elec       q    Type
REMARK                         _______ _______ _______ _____ _____    ______ ____
ROOT
ATOM      1  N   UNL     1       5.279   3.550  16.459  0.00  0.00    +0.000 N 
ATOM      2  C   UNL     1       4.377   4.264  17.237  0.00  0.00    +0.000 C 
ATOM      3  O   UNL     1       4.240   5.486  17.164  0.00  0.00    +0.000 OA
ATOM      4  H   UNL     1       5.353   2.548  16.556  0.00  0.00    +0.000 HD
ENDROOT
BRANCH   1   9
ATOM      5  C   UNL     1       7.678   5.295  12.428  0.00  0.00    +0.000 C 
ATOM      6  C   UNL     1       7.217   4.961  13.800  0.00  0.00    +0.000 A 
ATOM      7  N   UNL     1       7.864   5.450  14.862  0.00  0.00    +0.000 NA
ATOM      8  N   UNL     1       7.186   4.955  15.909  0.00  0.00    +0.000 N 
ATOM      9  C   UNL     1       6.121   4.166  15.555  0.00  0.00    +0.000 A 
ATOM     10  C   UNL     1       6.112   4.140  14.172  0.00  0.00    +0.000 A 
ATOM     11  C   UNL     1       5.189   3.432  13.256  0.00  0.00    +0.000 C 
ATOM     12  H   UNL     1       7.481   5.177  16.856  0.00  0.00    +0.000 HD
ENDBRANCH   1   9
BRANCH   2  13
ATOM     13  C   UNL     1       3.559   3.402  18.232  0.00  0.00    +0.000 C 
ATOM     14  C   UNL     1       2.985   2.174  17.504  0.00  0.00    +0.000 C 
ATOM     15  C   UNL     1       4.507   2.926  19.353  0.00  0.00    +0.000 C 
BRANCH  13  16
ATOM     16  C   UNL     1       2.429   4.229  18.904  0.00  0.00    +0.000 C 
ATOM     17  C   UNL     1       1.151   3.526  19.454  0.00  0.00    +0.000 C 
ATOM     18  C   UNL     1       1.087   4.625  20.533  0.00  0.00    +0.000 C 
ATOM     19  C   UNL     1       2.606   4.807  20.345  0.00  0.00    +0.000 C 
ENDBRANCH  13  16
ENDBRANCH   2  13
TORSDOF 3
ENDMDL
MODEL 2
REMARK VINA RESULT:      -7.1      0.900      1.323
REMARK  Name = 
REMARK  7 active torsions:
REMARK  status: ('A' for Active; 'I' for Inactive)
REMARK    1  A    between atoms: C_1  and  C_2
REMARK    2  A    between atoms: C_5  and  N_6
REMARK    3  A    between atoms: C_7  and  C_9
REMARK    4  A    between atoms: C_9  and  C_10
REMARK    5  A    between atoms: C_9  and  C_11
REMARK    6  A    between atoms: C_9  and  C_12
REMARK    7  A    between atoms: C_16  and  C_17
REMARK                            x       y       z     vdW  Elec       q    Type
REMARK                         _______ _______ _______ _____ _____    ______ ____
ROOT
ATOM      1  N   UNL     1       4.599   3.762  16.430  0.00  0.00    +0.000 N 
ATOM      2  C   UNL     1       3.847   4.501  17.334  0.00  0.00    +0.000 C 
ATOM      3  O   UNL     1       4.042   5.697  17.558  0.00  0.00    +0.000 OA
ATOM      4  H   UNL     1       4.400   2.785  16.282  0.00  0.00    +0.000 HD
ENDROOT
BRANCH   1   9
ATOM      5  C   UNL     1       7.905   5.303  13.003  0.00  0.00    +0.000 C 
ATOM      6  C   UNL     1       7.145   5.014  14.245  0.00  0.00    +0.000 A 
ATOM      7  N   UNL     1       7.587   5.467  15.423  0.00  0.00    +0.000 NA
ATOM      8  N   UNL     1       6.672   5.029  16.301  0.00  0.00    +0.000 N 
ATOM      9  C   UNL     1       5.653   4.311  15.726  0.00  0.00    +0.000 A 
ATOM     10  C   UNL     1       5.933   4.274  14.373  0.00  0.00    +0.000 A 
ATOM     11  C   UNL     1       5.176   3.622  13.279  0.00  0.00    +0.000 C 
ATOM     12  H   UNL     1       6.776   5.238  17.290  0.00  0.00    +0.000 HD
ENDBRANCH   1   9
BRANCH   2  13
ATOM     13  C   UNL     1       2.744   3.695  18.067  0.00  0.00    +0.000 C 
ATOM     14  C   UNL     1       1.360   4.249  17.687  0.00  0.00    +0.000 C 
ATOM     15  C   UNL     1       2.840   2.223  17.615  0.00  0.00    +0.000 C 
BRANCH  13  16
ATOM     16  C   UNL     1       2.951   3.720  19.605  0.00  0.00    +0.000 C 
ATOM     17  C   UNL     1       2.204   4.765  20.489  0.00  0.00    +0.000 C 
ATOM     18  C   UNL     1       2.196   3.712  21.616  0.00  0.00    +0.000 C 
ATOM     19  C   UNL     1       2.300   2.633  20.521  0.00  0.00    +0.000 C 
ENDBRANCH  13  16
ENDBRANCH   2  13
TORSDOF 3
ENDMDL
MODEL 3
REMARK VINA RESULT:      -7.1      2.175      6.383
REMARK  Name = 
REMARK  7 active torsions:
REMARK  status: ('A' for Active; 'I' for Inactive)
REMARK    1  A    between atoms: C_1  and  C_2
REMARK    2  A    between atoms: C_5  and  N_6
REMARK    3  A    between atoms: C_7  and  C_9
REMARK    4  A    between atoms: C_9  and  C_10
REMARK    5  A    between atoms: C_9  and  C_11
REMARK    6  A    between atoms: C_9  and  C_12
REMARK    7  A    between atoms: C_16  and  C_17
REMARK                            x       y       z     vdW  Elec       q    Type
REMARK                         _______ _______ _______ _____ _____    ______ ____
ROOT
ATOM      1  N   UNL     1       4.575   4.314  17.876  0.00  0.00    +0.000 N 
ATOM      2  C   UNL     1       5.901   4.715  17.779  0.00  0.00    +0.000 C 
ATOM      3  O   UNL     1       6.743   4.483  18.648  0.00  0.00    +0.000 OA
ATOM      4  H   UNL     1       3.923   4.528  17.137  0.00  0.00    +0.000 HD
ENDROOT
BRANCH   1   9
ATOM      5  C   UNL     1       1.933   2.550  21.745  0.00  0.00    +0.000 C 
ATOM      6  C   UNL     1       2.955   2.828  20.703  0.00  0.00    +0.000 A 
ATOM      7  N   UNL     1       4.091   2.125  20.673  0.00  0.00    +0.000 NA
ATOM      8  N   UNL     1       4.758   2.635  19.626  0.00  0.00    +0.000 N 
ATOM      9  C   UNL     1       4.087   3.641  18.980  0.00  0.00    +0.000 A 
ATOM     10  C   UNL     1       2.896   3.803  19.664  0.00  0.00    +0.000 A 
ATOM     11  C   UNL     1       1.793   4.759  19.410  0.00  0.00    +0.000 C 
ATOM     12  H   UNL     1       5.675   2.269  19.381  0.00  0.00    +0.000 HD
ENDBRANCH   1   9
BRANCH   2  13
ATOM     13  C   UNL     1       6.243   5.506  16.491  0.00  0.00    +0.000 C 
ATOM     14  C   UNL     1       5.062   6.414  16.112  0.00  0.00    +0.000 C 
ATOM     15  C   UNL     1       7.482   6.381  16.775  0.00  0.00    +0.000 C 
BRANCH  13  16
ATOM     16  C   UNL     1       6.611   4.553  15.322  0.00  0.00    +0.000 C 
ATOM     17  C   UNL     1       5.507   4.012  14.363  0.00  0.00    +0.000 C 
ATOM     18  C   UNL     1       6.572   4.001  13.246  0.00  0.00    +0.000 C 
ATOM     19  C   UNL     1       7.318   5.093  14.037  0.00  0.00    +0.000 C 
ENDBRANCH  13  16
ENDBRANCH   2  13
TORSDOF 3
ENDMDL
MODEL 4
REMARK VINA RESULT:      -7.1      2.521      6.344
REMARK  Name = 
REMARK  7 active torsions:
REMARK  status: ('A' for Active; 'I' for Inactive)
REMARK    1  A    between atoms: C_1  and  C_2
REMARK    2  A    between atoms: C_5  and  N_6
REMARK    3  A    between atoms: C_7  and  C_9
REMARK    4  A    between atoms: C_9  and  C_10
REMARK    5  A    between atoms: C_9  and  C_11
REMARK    6  A    between atoms: C_9  and  C_12
REMARK    7  A    between atoms: C_16  and  C_17
REMARK                            x       y       z     vdW  Elec       q    Type
REMARK                         _______ _______ _______ _____ _____    ______ ____
ROOT
ATOM      1  N   UNL     1       4.687   4.885  18.342  0.00  0.00    +0.000 N 
ATOM      2  C   UNL     1       5.981   5.379  18.437  0.00  0.00    +0.000 C 
ATOM      3  O   UNL     1       6.762   5.062  19.336  0.00  0.00    +0.000 OA
ATOM      4  H   UNL     1       4.086   5.175  17.585  0.00  0.00    +0.000 HD
ENDROOT
BRANCH   1   9
ATOM      5  C   UNL     1       1.964   2.479  21.785  0.00  0.00    +0.000 C 
ATOM      6  C   UNL     1       2.990   2.911  20.801  0.00  0.00    +0.000 A 
ATOM      7  N   UNL     1       4.061   2.146  20.568  0.00  0.00    +0.000 NA
ATOM      8  N   UNL     1       4.753   2.832  19.645  0.00  0.00    +0.000 N 
ATOM      9  C   UNL     1       4.160   4.013  19.275  0.00  0.00    +0.000 A 
ATOM     10  C   UNL     1       2.999   4.104  20.020  0.00  0.00    +0.000 A 
ATOM     11  C   UNL     1       1.979   5.178  20.035  0.00  0.00    +0.000 C 
ATOM     12  H   UNL     1       5.631   2.463  19.290  0.00  0.00    +0.000 HD
ENDBRANCH   1   9
BRANCH   2  13
ATOM     13  C   UNL     1       6.370   6.387  17.326  0.00  0.00    +0.000 C 
ATOM     14  C   UNL     1       5.221   7.386  17.108  0.00  0.00    +0.000 C 
ATOM     15  C   UNL     1       7.626   7.157  17.789  0.00  0.00    +0.000 C 
BRANCH  13  16
ATOM     16  C   UNL     1       6.736   5.662  16.003  0.00  0.00    +0.000 C 
ATOM     17  C   UNL     1       7.037   4.132  15.995  0.00  0.00    +0.000 C 
ATOM     18  C   UNL     1       6.455   4.090  14.567  0.00  0.00    +0.000 C 
ATOM     19  C   UNL     1       5.644   5.349  14.930  0.00  0.00    +0.000 C 
ENDBRANCH  13  16
ENDBRANCH   2  13
TORSDOF 3
ENDMDL
MODEL 5
REMARK VINA RESULT:      -7.1      2.490      6.346
REMARK  Name = 
REMARK  7 active torsions:
REMARK  status: ('A' for Active; 'I' for Inactive)
REMARK    1  A    between atoms: C_1  and  C_2
REMARK    2  A    between atoms: C_5  and  N_6
REMARK    3  A    between atoms: C_7  and  C_9
REMARK    4  A    between atoms: C_9  and  C_10
REMARK    5  A    between atoms: C_9  and  C_11
REMARK    6  A    between atoms: C_9  and  C_12
REMARK    7  A    between atoms: C_16  and  C_17
REMARK                            x       y       z     vdW  Elec       q    Type
REMARK                         _______ _______ _______ _____ _____    ______ ____
ROOT
ATOM      1  N   UNL     1       5.089   4.722  18.792  0.00  0.00    +0.000 N 
ATOM      2  C   UNL     1       5.165   5.778  17.892  0.00  0.00    +0.000 C 
ATOM      3  O   UNL     1       4.259   6.598  17.734  0.00  0.00    +0.000 OA
ATOM      4  H   UNL     1       5.859   4.077  18.885  0.00  0.00    +0.000 HD
ENDROOT
BRANCH   1   9
ATOM      5  C   UNL     1       1.169   2.836  21.267  0.00  0.00    +0.000 C 
ATOM      6  C   UNL     1       2.222   3.703  20.678  0.00  0.00    +0.000 A 
ATOM      7  N   UNL     1       2.242   5.012  20.949  0.00  0.00    +0.000 NA
ATOM      8  N   UNL     1       3.303   5.467  20.265  0.00  0.00    +0.000 N 
ATOM      9  C   UNL     1       3.969   4.492  19.566  0.00  0.00    +0.000 A 
ATOM     10  C   UNL     1       3.282   3.316  19.807  0.00  0.00    +0.000 A 
ATOM     11  C   UNL     1       3.552   1.953  19.294  0.00  0.00    +0.000 C 
ATOM     12  H   UNL     1       3.544   6.454  20.298  0.00  0.00    +0.000 HD
ENDBRANCH   1   9
BRANCH   2  13
ATOM     13  C   UNL     1       6.481   5.838  17.076  0.00  0.00    +0.000 C 
ATOM     14  C   UNL     1       7.128   7.223  17.238  0.00  0.00    +0.000 C 
ATOM     15  C   UNL     1       7.442   4.764  17.628  0.00  0.00    +0.000 C 
BRANCH  13  16
ATOM     16  C   UNL     1       6.235   5.510  15.578  0.00  0.00    +0.000 C 
ATOM     17  C   UNL     1       7.327   4.783  14.736  0.00  0.00    +0.000 C 
ATOM     18  C   UNL     1       6.182   4.141  13.925  0.00  0.00    +0.000 C 
ATOM     19  C   UNL     1       5.280   4.346  15.157  0.00  0.00    +0.000 C 
ENDBRANCH  13  16
ENDBRANCH   2  13
TORSDOF 3
ENDMDL
MODEL 6
REMARK VINA RESULT:      -7.0      2.795      3.214
REMARK  Name = 
REMARK  7 active torsions:
REMARK  status: ('A' for Active; 'I' for Inactive)
REMARK    1  A    between atoms: C_1  and  C_2
REMARK    2  A    between atoms: C_5  and  N_6
REMARK    3  A    between atoms: C_7  and  C_9
REMARK    4  A    between atoms: C_9  and  C_10
REMARK    5  A    between atoms: C_9  and  C_11
REMARK    6  A    between atoms: C_9  and  C_12
REMARK    7  A    between atoms: C_16  and  C_17
REMARK                            x       y       z     vdW  Elec       q    Type
REMARK                         _______ _______ _______ _____ _____    ______ ____
ROOT
ATOM      1  N   UNL     1       4.754   4.129  18.144  0.00  0.00    +0.000 N 
ATOM      2  C   UNL     1       3.480   4.397  18.626  0.00  0.00    +0.000 C 
ATOM      3  O   UNL     1       3.174   5.457  19.175  0.00  0.00    +0.000 OA
ATOM      4  H   UNL     1       4.955   3.244  17.702  0.00  0.00    +0.000 HD
ENDROOT
BRANCH   1   9
ATOM      5  C   UNL     1       8.019   7.902  17.751  0.00  0.00    +0.000 C 
ATOM      6  C   UNL     1       7.268   6.679  18.132  0.00  0.00    +0.000 A 
ATOM      7  N   UNL     1       7.702   5.910  19.135  0.00  0.00    +0.000 NA
ATOM      8  N   UNL     1       6.799   4.919  19.197  0.00  0.00    +0.000 N 
ATOM      9  C   UNL     1       5.795   5.029  18.269  0.00  0.00    +0.000 A 
ATOM     10  C   UNL     1       6.072   6.172  17.543  0.00  0.00    +0.000 A 
ATOM     11  C   UNL     1       5.327   6.764  16.408  0.00  0.00    +0.000 C 
ATOM     12  H   UNL     1       6.901   4.182  19.889  0.00  0.00    +0.000 HD
ENDBRANCH   1   9
BRANCH   2  13
ATOM     13  C   UNL     1       2.463   3.242  18.442  0.00  0.00    +0.000 C 
ATOM     14  C   UNL     1       1.240   3.750  17.660  0.00  0.00    +0.000 C 
ATOM     15  C   UNL     1       3.147   2.119  17.635  0.00  0.00    +0.000 C 
BRANCH  13  16
ATOM     16  C   UNL     1       2.039   2.636  19.807  0.00  0.00    +0.000 C 
ATOM     17  C   UNL     1       3.007   2.677  21.028  0.00  0.00    +0.000 C 
ATOM     18  C   UNL     1       1.761   2.770  21.933  0.00  0.00    +0.000 C 
ATOM     19  C   UNL     1       1.012   3.371  20.728  0.00  0.00    +0.000 C 
ENDBRANCH  13  16
ENDBRANCH   2  13
TORSDOF 3
ENDMDL
MODEL 7
REMARK VINA RESULT:      -7.0      2.536      6.385
REMARK  Name = 
REMARK  7 active torsions:
REMARK  status: ('A' for Active; 'I' for Inactive)
REMARK    1  A    between atoms: C_1  and  C_2
REMARK    2  A    between atoms: C_5  and  N_6
REMARK    3  A    between atoms: C_7  and  C_9
REMARK    4  A    between atoms: C_9  and  C_10
REMARK    5  A    between atoms: C_9  and  C_11
REMARK    6  A    between atoms: C_9  and  C_12
REMARK    7  A    between atoms: C_16  and  C_17
REMARK                            x       y       z     vdW  Elec       q    Type
REMARK                         _______ _______ _______ _____ _____    ______ ____
ROOT
ATOM      1  N   UNL     1       4.006   5.196  18.174  0.00  0.00    +0.000 N 
ATOM      2  C   UNL     1       5.383   5.054  18.059  0.00  0.00    +0.000 C 
ATOM      3  O   UNL     1       6.077   4.483  18.902  0.00  0.00    +0.000 OA
ATOM      4  H   UNL     1       3.482   5.672  17.455  0.00  0.00    +0.000 HD
ENDROOT
BRANCH   1   9
ATOM      5  C   UNL     1       1.510   2.529  21.596  0.00  0.00    +0.000 C 
ATOM      6  C   UNL     1       2.194   3.588  20.811  0.00  0.00    +0.000 A 
ATOM      7  N   UNL     1       2.264   4.836  21.285  0.00  0.00    +0.000 NA
ATOM      8  N   UNL     1       2.937   5.505  20.336  0.00  0.00    +0.000 N 
ATOM      9  C   UNL     1       3.306   4.727  19.268  0.00  0.00    +0.000 A 
ATOM     10  C   UNL     1       2.829   3.458  19.540  0.00  0.00    +0.000 A 
ATOM     11  C   UNL     1       2.929   2.225  18.725  0.00  0.00    +0.000 C 
ATOM     12  H   UNL     1       3.126   6.497  20.451  0.00  0.00    +0.000 HD
ENDBRANCH   1   9
BRANCH   2  13
ATOM     13  C   UNL     1       5.994   5.694  16.787  0.00  0.00    +0.000 C 
ATOM     14  C   UNL     1       5.027   6.749  16.222  0.00  0.00    +0.000 C 
ATOM     15  C   UNL     1       7.318   6.383  17.179  0.00  0.00    +0.000 C 
BRANCH  13  16
ATOM     16  C   UNL     1       6.332   4.621  15.717  0.00  0.00    +0.000 C 
ATOM     17  C   UNL     1       5.241   4.121  14.722  0.00  0.00    +0.000 C 
ATOM     18  C   UNL     1       6.368   3.915  13.689  0.00  0.00    +0.000 C 
ATOM     19  C   UNL     1       7.174   4.984  14.452  0.00  0.00    +0.000 C 
ENDBRANCH  13  16
ENDBRANCH   2  13
TORSDOF 3
ENDMDL
MODEL 8
REMARK VINA RESULT:      -6.9      3.115      6.308
REMARK  Name = 
REMARK  7 active torsions:
REMARK  status: ('A' for Active; 'I' for Inactive)
REMARK    1  A    between atoms: C_1  and  C_2
REMARK    2  A    between atoms: C_5  and  N_6
REMARK    3  A    between atoms: C_7  and  C_9
REMARK    4  A    between atoms: C_9  and  C_10
REMARK    5  A    between atoms: C_9  and  C_11
REMARK    6  A    between atoms: C_9  and  C_12
REMARK    7  A    between atoms: C_16  and  C_17
REMARK                            x       y       z     vdW  Elec       q    Type
REMARK                         _______ _______ _______ _____ _____    ______ ____
ROOT
ATOM      1  N   UNL     1       4.131   5.145  18.196  0.00  0.00    +0.000 N 
ATOM      2  C   UNL     1       5.459   4.768  18.044  0.00  0.00    +0.000 C 
ATOM      3  O   UNL     1       6.043   4.017  18.827  0.00  0.00    +0.000 OA
ATOM      4  H   UNL     1       3.698   5.762  17.526  0.00  0.00    +0.000 HD
ENDROOT
BRANCH   1   9
ATOM      5  C   UNL     1       1.355   2.655  21.535  0.00  0.00    +0.000 C 
ATOM      6  C   UNL     1       2.130   3.666  20.771  0.00  0.00    +0.000 A 
ATOM      7  N   UNL     1       2.256   4.911  21.242  0.00  0.00    +0.000 NA
ATOM      8  N   UNL     1       3.002   5.532  20.315  0.00  0.00    +0.000 N 
ATOM      9  C   UNL     1       3.364   4.726  19.266  0.00  0.00    +0.000 A 
ATOM     10  C   UNL     1       2.802   3.490  19.526  0.00  0.00    +0.000 A 
ATOM     11  C   UNL     1       2.860   2.248  18.721  0.00  0.00    +0.000 C 
ATOM     12  H   UNL     1       3.246   6.512  20.433  0.00  0.00    +0.000 HD
ENDBRANCH   1   9
BRANCH   2  13
ATOM     13  C   UNL     1       6.168   5.385  16.811  0.00  0.00    +0.000 C 
ATOM     14  C   UNL     1       6.610   4.265  15.854  0.00  0.00    +0.000 C 
ATOM     15  C   UNL     1       5.163   6.303  16.084  0.00  0.00    +0.000 C 
BRANCH  13  16
ATOM     16  C   UNL     1       7.375   6.265  17.233  0.00  0.00    +0.000 C 
ATOM     17  C   UNL     1       7.234   7.816  17.319  0.00  0.00    +0.000 C 
ATOM     18  C   UNL     1       8.273   7.783  18.459  0.00  0.00    +0.000 C 
ATOM     19  C   UNL     1       7.842   6.328  18.724  0.00  0.00    +0.000 C 
ENDBRANCH  13  16
ENDBRANCH   2  13
TORSDOF 3
ENDMDL
MODEL 9
REMARK VINA RESULT:      -6.8      2.761      6.257
REMARK  Name = 
REMARK  7 active torsions:
REMARK  status: ('A' for Active; 'I' for Inactive)
REMARK    1  A    between atoms: C_1  and  C_2
REMARK    2  A    between atoms: C_5  and  N_6
REMARK    3  A    between atoms: C_7  and  C_9
REMARK    4  A    between atoms: C_9  and  C_10
REMARK    5  A    between atoms: C_9  and  C_11
REMARK    6  A    between atoms: C_9  and  C_12
REMARK    7  A    between atoms: C_16  and  C_17
REMARK                            x       y       z     vdW  Elec       q    Type
REMARK                         _______ _______ _______ _____ _____    ______ ____
ROOT
ATOM      1  N   UNL     1       4.224   4.154  17.879  0.00  0.00    +0.000 N 
ATOM      2  C   UNL     1       4.563   5.450  17.514  0.00  0.00    +0.000 C 
ATOM      3  O   UNL     1       4.028   6.450  17.995  0.00  0.00    +0.000 OA
ATOM      4  H   UNL     1       4.693   3.367  17.455  0.00  0.00    +0.000 HD
ENDROOT
BRANCH   1   9
ATOM      5  C   UNL     1       1.400   2.527  21.677  0.00  0.00    +0.000 C 
ATOM      6  C   UNL     1       1.941   3.189  20.463  0.00  0.00    +0.000 A 
ATOM      7  N   UNL     1       1.171   4.018  19.751  0.00  0.00    +0.000 NA
ATOM      8  N   UNL     1       1.970   4.422  18.751  0.00  0.00    +0.000 N 
ATOM      9  C   UNL     1       3.231   3.883  18.799  0.00  0.00    +0.000 A 
ATOM     10  C   UNL     1       3.249   3.060  19.910  0.00  0.00    +0.000 A 
ATOM     11  C   UNL     1       4.351   2.219  20.433  0.00  0.00    +0.000 C 
ATOM     12  H   UNL     1       1.618   5.068  18.049  0.00  0.00    +0.000 HD
ENDBRANCH   1   9
BRANCH   2  13
ATOM     13  C   UNL     1       5.663   5.548  16.426  0.00  0.00    +0.000 C 
ATOM     14  C   UNL     1       5.823   4.187  15.728  0.00  0.00    +0.000 C 
ATOM     15  C   UNL     1       5.223   6.600  15.386  0.00  0.00    +0.000 C 
BRANCH  13  16
ATOM     16  C   UNL     1       7.012   6.029  17.024  0.00  0.00    +0.000 C 
ATOM     17  C   UNL     1       7.237   7.533  17.367  0.00  0.00    +0.000 C 
ATOM     18  C   UNL     1       8.158   7.069  18.513  0.00  0.00    +0.000 C 
ATOM     19  C   UNL     1       7.377   5.741  18.516  0.00  0.00    +0.000 C 
ENDBRANCH  13  16
ENDBRANCH   2  13
TORSDOF 3
ENDMDL
