MODEL 1
REMARK VINA RESULT:      -6.9      0.000      0.000
REMARK  Name = 
REMARK  9 active torsions:
REMARK  status: ('A' for Active; 'I' for Inactive)
REMARK    1  A    between atoms: C_1  and  S_2
REMARK    2  A    between atoms: S_2  and  C_3
REMARK    3  A    between atoms: C_6  and  S_7
REMARK    4  A    between atoms: S_7  and  C_8
REMARK    5  A    between atoms: C_8  and  C_9
REMARK    6  A    between atoms: N_11  and  C_12
REMARK    7  A    between atoms: C_14  and  C_15
REMARK    8  A    between atoms: C_15  and  O_17
REMARK    9  A    between atoms: C_20  and  C_21
REMARK                            x       y       z     vdW  Elec       q    Type
REMARK                         _______ _______ _______ _____ _____    ______ ____
ROOT
ATOM      1  C   UNL     1       2.136   5.377  20.301  0.00  0.00    +0.000 C 
ATOM      2  O   UNL     1       0.965   5.041  20.476  0.00  0.00    +0.000 OA
ATOM      3  N   UNL     1       2.563   6.686  20.107  0.00  0.00    +0.000 N 
ATOM      4  H   UNL     1       3.521   6.796  19.797  0.00  0.00    +0.000 HD
ENDROOT
BRANCH   3   5
ATOM      5  C   UNL     1       1.797   7.866  20.255  0.00  0.00    +0.000 A 
ATOM      6  C   UNL     1       1.295   8.256  21.505  0.00  0.00    +0.000 A 
ATOM      7  C   UNL     1       0.494   9.396  21.635  0.00  0.00    +0.000 A 
ATOM      8  C   UNL     1       0.238  10.193  20.522  0.00  0.00    +0.000 A 
ATOM      9  C   UNL     1       0.772   9.845  19.281  0.00  0.00    +0.000 A 
ATOM     10  C   UNL     1       1.556   8.686  19.131  0.00  0.00    +0.000 A 
ATOM     11  C   UNL     1       2.094   8.365  17.762  0.00  0.00    +0.000 C 
BRANCH   7  12
ATOM     12  C   UNL     1      -0.064   9.812  22.946  0.00  0.00    +0.000 C 
ATOM     13  O   UNL     1       0.475   9.534  24.005  0.00  0.00    +0.000 OA
BRANCH  12  14
ATOM     14  O   UNL     1      -1.184  10.560  22.863  0.00  0.00    +0.000 OA
ATOM     15  H   UNL     1      -1.773  10.534  23.640  0.00  0.00    +0.000 HD
ENDBRANCH  12  14
ENDBRANCH   7  12
ENDBRANCH   3   5
BRANCH   1  16
ATOM     16  C   UNL     1       3.226   4.313  20.164  0.00  0.00    +0.000 C 
BRANCH  16  17
ATOM     17  S   UNL     1       3.218   3.568  18.511  0.00  0.00    +0.000 S 
BRANCH  17  21
ATOM     18  C   UNL     1       6.253   4.716  16.381  0.00  0.00    +0.000 A 
ATOM     19  N   UNL     1       6.869   5.251  17.435  0.00  0.00    +0.000 NA
ATOM     20  S   UNL     1       5.881   4.990  18.745  0.00  0.00    +0.000 S 
ATOM     21  C   UNL     1       4.689   4.182  17.810  0.00  0.00    +0.000 A 
ATOM     22  N   UNL     1       5.011   4.104  16.538  0.00  0.00    +0.000 NA
BRANCH  18  24
ATOM     23  C   UNL     1       5.964   3.851  13.786  0.00  0.00    +0.000 C 
ATOM     24  S   UNL     1       7.057   4.829  14.825  0.00  0.00    +0.000 S 
ENDBRANCH  18  24
ENDBRANCH  17  21
ENDBRANCH  16  17
ENDBRANCH   1  16
TORSDOF 7
ENDMDL
MODEL 2
REMARK VINA RESULT:      -6.8      1.339      1.757
REMARK  Name = 
REMARK  9 active torsions:
REMARK  status: ('A' for Active; 'I' for Inactive)
REMARK    1  A    between atoms: C_1  and  S_2
REMARK    2  A    between atoms: S_2  and  C_3
REMARK    3  A    between atoms: C_6  and  S_7
REMARK    4  A    between atoms: S_7  and  C_8
REMARK    5  A    between atoms: C_8  and  C_9
REMARK    6  A    between atoms: N_11  and  C_12
REMARK    7  A    between atoms: C_14  and  C_15
REMARK    8  A    between atoms: C_15  and  O_17
REMARK    9  A    between atoms: C_20  and  C_21
REMARK                            x       y       z     vdW  Elec       q    Type
REMARK                         _______ _______ _______ _____ _____    ______ ____
ROOT
ATOM      1  C   UNL     1       1.675   4.860  20.783  0.00  0.00    +0.000 C 
ATOM      2  O   UNL     1       0.536   4.707  20.344  0.00  0.00    +0.000 OA
ATOM      3  N   UNL     1       2.361   6.069  20.802  0.00  0.00    +0.000 N 
ATOM      4  H   UNL     1       3.348   6.014  21.022  0.00  0.00    +0.000 HD
ENDROOT
BRANCH   3   5
ATOM      5  C   UNL     1       1.841   7.352  20.507  0.00  0.00    +0.000 A 
ATOM      6  C   UNL     1       1.188   8.114  21.487  0.00  0.00    +0.000 A 
ATOM      7  C   UNL     1       0.629   9.359  21.176  0.00  0.00    +0.000 A 
ATOM      8  C   UNL     1       0.773   9.882  19.893  0.00  0.00    +0.000 A 
ATOM      9  C   UNL     1       1.464   9.156  18.921  0.00  0.00    +0.000 A 
ATOM     10  C   UNL     1       2.005   7.890  19.213  0.00  0.00    +0.000 A 
ATOM     11  C   UNL     1       2.731   7.159  18.116  0.00  0.00    +0.000 C 
BRANCH   7  12
ATOM     12  C   UNL     1      -0.084  10.170  22.194  0.00  0.00    +0.000 C 
ATOM     13  O   UNL     1      -0.032  11.389  22.215  0.00  0.00    +0.000 OA
BRANCH  12  14
ATOM     14  O   UNL     1      -0.830   9.449  23.057  0.00  0.00    +0.000 OA
ATOM     15  H   UNL     1      -0.339   8.982  23.758  0.00  0.00    +0.000 HD
ENDBRANCH  12  14
ENDBRANCH   7  12
ENDBRANCH   3   5
BRANCH   1  16
ATOM     16  C   UNL     1       2.486   3.649  21.249  0.00  0.00    +0.000 C 
BRANCH  16  17
ATOM     17  S   UNL     1       2.604   2.392  19.948  0.00  0.00    +0.000 S 
BRANCH  17  21
ATOM     18  C   UNL     1       5.204   4.182  17.688  0.00  0.00    +0.000 A 
ATOM     19  N   UNL     1       4.366   4.224  16.652  0.00  0.00    +0.000 NA
ATOM     20  S   UNL     1       2.951   3.516  17.158  0.00  0.00    +0.000 S 
ATOM     21  C   UNL     1       3.557   3.194  18.731  0.00  0.00    +0.000 A 
ATOM     22  N   UNL     1       4.797   3.602  18.888  0.00  0.00    +0.000 NA
BRANCH  18  24
ATOM     23  C   UNL     1       7.021   4.702  15.690  0.00  0.00    +0.000 C 
ATOM     24  S   UNL     1       6.807   4.863  17.467  0.00  0.00    +0.000 S 
ENDBRANCH  18  24
ENDBRANCH  17  21
ENDBRANCH  16  17
ENDBRANCH   1  16
TORSDOF 7
ENDMDL
MODEL 3
REMARK VINA RESULT:      -6.8      1.572      2.057
REMARK  Name = 
REMARK  9 active torsions:
REMARK  status: ('A' for Active; 'I' for Inactive)
REMARK    1  A    between atoms: C_1  and  S_2
REMARK    2  A    between atoms: S_2  and  C_3
REMARK    3  A    between atoms: C_6  and  S_7
REMARK    4  A    between atoms: S_7  and  C_8
REMARK    5  A    between atoms: C_8  and  C_9
REMARK    6  A    between atoms: N_11  and  C_12
REMARK    7  A    between atoms: C_14  and  C_15
REMARK    8  A    between atoms: C_15  and  O_17
REMARK    9  A    between atoms: C_20  and  C_21
REMARK                            x       y       z     vdW  Elec       q    Type
REMARK                         _______ _______ _______ _____ _____    ______ ____
ROOT
ATOM      1  C   UNL     1       2.522   4.877  19.287  0.00  0.00    +0.000 C 
ATOM      2  O   UNL     1       1.426   4.679  18.763  0.00  0.00    +0.000 OA
ATOM      3  N   UNL     1       2.975   6.113  19.733  0.00  0.00    +0.000 N 
ATOM      4  H   UNL     1       3.957   6.163  19.974  0.00  0.00    +0.000 HD
ENDROOT
BRANCH   3   5
ATOM      5  C   UNL     1       2.226   7.309  19.843  0.00  0.00    +0.000 A 
ATOM      6  C   UNL     1       1.582   7.656  21.039  0.00  0.00    +0.000 A 
ATOM      7  C   UNL     1       0.800   8.814  21.126  0.00  0.00    +0.000 A 
ATOM      8  C   UNL     1       0.706   9.669  20.031  0.00  0.00    +0.000 A 
ATOM      9  C   UNL     1       1.382   9.362  18.849  0.00  0.00    +0.000 A 
ATOM     10  C   UNL     1       2.148   8.187  18.740  0.00  0.00    +0.000 A 
ATOM     11  C   UNL     1       2.845   7.913  17.434  0.00  0.00    +0.000 C 
BRANCH   7  12
ATOM     12  C   UNL     1       0.093   9.186  22.377  0.00  0.00    +0.000 C 
ATOM     13  O   UNL     1       0.420  10.149  23.052  0.00  0.00    +0.000 OA
BRANCH  12  14
ATOM     14  O   UNL     1      -0.963   8.401  22.674  0.00  0.00    +0.000 OA
ATOM     15  H   UNL     1      -0.822   7.441  22.578  0.00  0.00    +0.000 HD
ENDBRANCH  12  14
ENDBRANCH   7  12
ENDBRANCH   3   5
BRANCH   1  16
ATOM     16  C   UNL     1       3.544   3.743  19.378  0.00  0.00    +0.000 C 
BRANCH  16  17
ATOM     17  S   UNL     1       3.948   3.085  17.737  0.00  0.00    +0.000 S 
BRANCH  17  21
ATOM     18  C   UNL     1       6.304   6.050  16.886  0.00  0.00    +0.000 A 
ATOM     19  N   UNL     1       6.340   5.731  15.592  0.00  0.00    +0.000 NA
ATOM     20  S   UNL     1       5.378   4.388  15.409  0.00  0.00    +0.000 S 
ATOM     21  C   UNL     1       4.983   4.320  17.078  0.00  0.00    +0.000 A 
ATOM     22  N   UNL     1       5.555   5.279  17.772  0.00  0.00    +0.000 NA
BRANCH  18  24
ATOM     23  C   UNL     1       8.165   6.763  18.782  0.00  0.00    +0.000 C 
ATOM     24  S   UNL     1       7.233   7.446  17.405  0.00  0.00    +0.000 S 
ENDBRANCH  18  24
ENDBRANCH  17  21
ENDBRANCH  16  17
ENDBRANCH   1  16
TORSDOF 7
ENDMDL
MODEL 4
REMARK VINA RESULT:      -6.6      4.987      8.213
REMARK  Name = 
REMARK  9 active torsions:
REMARK  status: ('A' for Active; 'I' for Inactive)
REMARK    1  A    between atoms: C_1  and  S_2
REMARK    2  A    between atoms: S_2  and  C_3
REMARK    3  A    between atoms: C_6  and  S_7
REMARK    4  A    between atoms: S_7  and  C_8
REMARK    5  A    between atoms: C_8  and  C_9
REMARK    6  A    between atoms: N_11  and  C_12
REMARK    7  A    between atoms: C_14  and  C_15
REMARK    8  A    between atoms: C_15  and  O_17
REMARK    9  A    between atoms: C_20  and  C_21
REMARK                            x       y       z     vdW  Elec       q    Type
REMARK                         _______ _______ _______ _____ _____    ______ ____
ROOT
ATOM      1  C   UNL     1       2.172   8.177  18.457  0.00  0.00    +0.000 C 
ATOM      2  O   UNL     1       2.299   8.668  17.336  0.00  0.00    +0.000 OA
ATOM      3  N   UNL     1       2.627   6.916  18.824  0.00  0.00    +0.000 N 
ATOM      4  H   UNL     1       2.297   6.570  19.717  0.00  0.00    +0.000 HD
ENDROOT
BRANCH   3   5
ATOM      5  C   UNL     1       3.459   6.054  18.071  0.00  0.00    +0.000 A 
ATOM      6  C   UNL     1       4.772   6.419  17.738  0.00  0.00    +0.000 A 
ATOM      7  C   UNL     1       5.571   5.585  16.948  0.00  0.00    +0.000 A 
ATOM      8  C   UNL     1       5.085   4.347  16.535  0.00  0.00    +0.000 A 
ATOM      9  C   UNL     1       3.798   3.949  16.900  0.00  0.00    +0.000 A 
ATOM     10  C   UNL     1       2.974   4.791  17.670  0.00  0.00    +0.000 A 
ATOM     11  C   UNL     1       1.594   4.302  18.023  0.00  0.00    +0.000 C 
BRANCH   7  12
ATOM     12  C   UNL     1       6.955   5.964  16.567  0.00  0.00    +0.000 C 
ATOM     13  O   UNL     1       7.499   5.535  15.562  0.00  0.00    +0.000 OA
BRANCH  12  14
ATOM     14  O   UNL     1       7.537   6.855  17.397  0.00  0.00    +0.000 OA
ATOM     15  H   UNL     1       6.947   7.531  17.778  0.00  0.00    +0.000 HD
ENDBRANCH  12  14
ENDBRANCH   7  12
ENDBRANCH   3   5
BRANCH   1  16
ATOM     16  C   UNL     1       1.368   8.912  19.530  0.00  0.00    +0.000 C 
BRANCH  16  17
ATOM     17  S   UNL     1       1.347  10.700  19.231  0.00  0.00    +0.000 S 
BRANCH  17  21
ATOM     18  C   UNL     1      -2.122  10.644  17.490  0.00  0.00    +0.000 A 
ATOM     19  N   UNL     1      -2.404  11.889  17.875  0.00  0.00    +0.000 NA
ATOM     20  S   UNL     1      -1.090  12.428  18.738  0.00  0.00    +0.000 S 
ATOM     21  C   UNL     1      -0.233  10.953  18.545  0.00  0.00    +0.000 A 
ATOM     22  N   UNL     1      -0.907  10.063  17.850  0.00  0.00    +0.000 NA
BRANCH  18  24
ATOM     23  C   UNL     1      -2.991  10.408  14.891  0.00  0.00    +0.000 C 
ATOM     24  S   UNL     1      -3.330   9.791  16.545  0.00  0.00    +0.000 S 
ENDBRANCH  18  24
ENDBRANCH  17  21
ENDBRANCH  16  17
ENDBRANCH   1  16
TORSDOF 7
ENDMDL
MODEL 5
REMARK VINA RESULT:      -6.6      2.404      3.174
REMARK  Name = 
REMARK  9 active torsions:
REMARK  status: ('A' for Active; 'I' for Inactive)
REMARK    1  A    between atoms: C_1  and  S_2
REMARK    2  A    between atoms: S_2  and  C_3
REMARK    3  A    between atoms: C_6  and  S_7
REMARK    4  A    between atoms: S_7  and  C_8
REMARK    5  A    between atoms: C_8  and  C_9
REMARK    6  A    between atoms: N_11  and  C_12
REMARK    7  A    between atoms: C_14  and  C_15
REMARK    8  A    between atoms: C_15  and  O_17
REMARK    9  A    between atoms: C_20  and  C_21
REMARK                            x       y       z     vdW  Elec       q    Type
REMARK                         _______ _______ _______ _____ _____    ______ ____
ROOT
ATOM      1  C   UNL     1       2.411   4.459  17.599  0.00  0.00    +0.000 C 
ATOM      2  O   UNL     1       1.198   4.363  17.415  0.00  0.00    +0.000 OA
ATOM      3  N   UNL     1       3.036   5.543  18.205  0.00  0.00    +0.000 N 
ATOM      4  H   UNL     1       4.046   5.571  18.127  0.00  0.00    +0.000 HD
ENDROOT
BRANCH   3   5
ATOM      5  C   UNL     1       2.415   6.625  18.874  0.00  0.00    +0.000 A 
ATOM      6  C   UNL     1       2.204   7.852  18.230  0.00  0.00    +0.000 A 
ATOM      7  C   UNL     1       1.637   8.935  18.913  0.00  0.00    +0.000 A 
ATOM      8  C   UNL     1       1.219   8.779  20.232  0.00  0.00    +0.000 A 
ATOM      9  C   UNL     1       1.378   7.548  20.870  0.00  0.00    +0.000 A 
ATOM     10  C   UNL     1       1.972   6.460  20.204  0.00  0.00    +0.000 A 
ATOM     11  C   UNL     1       2.120   5.163  20.954  0.00  0.00    +0.000 C 
BRANCH   7  12
ATOM     12  C   UNL     1       1.426  10.248  18.255  0.00  0.00    +0.000 C 
ATOM     13  O   UNL     1       2.347  11.001  17.982  0.00  0.00    +0.000 OA
BRANCH  12  14
ATOM     14  O   UNL     1       0.140  10.514  17.941  0.00  0.00    +0.000 OA
ATOM     15  H   UNL     1      -0.006  10.970  17.092  0.00  0.00    +0.000 HD
ENDBRANCH  12  14
ENDBRANCH   7  12
ENDBRANCH   3   5
BRANCH   1  16
ATOM     16  C   UNL     1       3.358   3.395  17.043  0.00  0.00    +0.000 C 
BRANCH  16  17
ATOM     17  S   UNL     1       5.018   3.549  17.756  0.00  0.00    +0.000 S 
BRANCH  17  21
ATOM     18  C   UNL     1       6.784   4.605  14.465  0.00  0.00    +0.000 A 
ATOM     19  N   UNL     1       7.391   5.637  15.050  0.00  0.00    +0.000 NA
ATOM     20  S   UNL     1       6.924   5.621  16.644  0.00  0.00    +0.000 S 
ATOM     21  C   UNL     1       5.933   4.234  16.443  0.00  0.00    +0.000 A 
ATOM     22  N   UNL     1       5.941   3.782  15.209  0.00  0.00    +0.000 NA
BRANCH  18  24
ATOM     23  C   UNL     1       5.761   3.205  12.329  0.00  0.00    +0.000 C 
ATOM     24  S   UNL     1       7.082   4.348  12.754  0.00  0.00    +0.000 S 
ENDBRANCH  18  24
ENDBRANCH  17  21
ENDBRANCH  16  17
ENDBRANCH   1  16
TORSDOF 7
ENDMDL
MODEL 6
REMARK VINA RESULT:      -6.5      4.910      8.869
REMARK  Name = 
REMARK  9 active torsions:
REMARK  status: ('A' for Active; 'I' for Inactive)
REMARK    1  A    between atoms: C_1  and  S_2
REMARK    2  A    between atoms: S_2  and  C_3
REMARK    3  A    between atoms: C_6  and  S_7
REMARK    4  A    between atoms: S_7  and  C_8
REMARK    5  A    between atoms: C_8  and  C_9
REMARK    6  A    between atoms: N_11  and  C_12
REMARK    7  A    between atoms: C_14  and  C_15
REMARK    8  A    between atoms: C_15  and  O_17
REMARK    9  A    between atoms: C_20  and  C_21
REMARK                            x       y       z     vdW  Elec       q    Type
REMARK                         _______ _______ _______ _____ _____    ______ ____
ROOT
ATOM      1  C   UNL     1       2.397   8.049  18.226  0.00  0.00    +0.000 C 
ATOM      2  O   UNL     1       2.577   8.442  17.075  0.00  0.00    +0.000 OA
ATOM      3  N   UNL     1       2.770   6.797  18.703  0.00  0.00    +0.000 N 
ATOM      4  H   UNL     1       2.401   6.542  19.611  0.00  0.00    +0.000 HD
ENDROOT
BRANCH   3   5
ATOM      5  C   UNL     1       3.568   5.833  18.042  0.00  0.00    +0.000 A 
ATOM      6  C   UNL     1       4.934   6.054  17.813  0.00  0.00    +0.000 A 
ATOM      7  C   UNL     1       5.705   5.120  17.112  0.00  0.00    +0.000 A 
ATOM      8  C   UNL     1       5.130   3.926  16.686  0.00  0.00    +0.000 A 
ATOM      9  C   UNL     1       3.783   3.671  16.950  0.00  0.00    +0.000 A 
ATOM     10  C   UNL     1       2.990   4.614  17.629  0.00  0.00    +0.000 A 
ATOM     11  C   UNL     1       1.543   4.278  17.874  0.00  0.00    +0.000 C 
BRANCH   7  12
ATOM     12  C   UNL     1       7.148   5.346  16.841  0.00  0.00    +0.000 C 
ATOM     13  O   UNL     1       7.956   4.433  16.795  0.00  0.00    +0.000 OA
BRANCH  12  14
ATOM     14  O   UNL     1       7.475   6.634  16.605  0.00  0.00    +0.000 OA
ATOM     15  H   UNL     1       8.407   6.800  16.370  0.00  0.00    +0.000 HD
ENDBRANCH  12  14
ENDBRANCH   7  12
ENDBRANCH   3   5
BRANCH   1  16
ATOM     16  C   UNL     1       1.612   8.910  19.217  0.00  0.00    +0.000 C 
BRANCH  16  17
ATOM     17  S   UNL     1       1.318  10.573  18.557  0.00  0.00    +0.000 S 
BRANCH  17  21
ATOM     18  C   UNL     1      -1.163  11.642  21.345  0.00  0.00    +0.000 A 
ATOM     19  N   UNL     1      -1.964  12.264  20.479  0.00  0.00    +0.000 NA
ATOM     20  S   UNL     1      -1.279  12.071  18.978  0.00  0.00    +0.000 S 
ATOM     21  C   UNL     1       0.049  11.172  19.588  0.00  0.00    +0.000 A 
ATOM     22  N   UNL     1      -0.005  11.013  20.892  0.00  0.00    +0.000 NA
BRANCH  18  24
ATOM     23  C   UNL     1      -3.252  12.416  22.958  0.00  0.00    +0.000 C 
ATOM     24  S   UNL     1      -1.621  11.666  23.039  0.00  0.00    +0.000 S 
ENDBRANCH  18  24
ENDBRANCH  17  21
ENDBRANCH  16  17
ENDBRANCH   1  16
TORSDOF 7
ENDMDL
MODEL 7
REMARK VINA RESULT:      -6.5      4.960      8.235
REMARK  Name = 
REMARK  9 active torsions:
REMARK  status: ('A' for Active; 'I' for Inactive)
REMARK    1  A    between atoms: C_1  and  S_2
REMARK    2  A    between atoms: S_2  and  C_3
REMARK    3  A    between atoms: C_6  and  S_7
REMARK    4  A    between atoms: S_7  and  C_8
REMARK    5  A    between atoms: C_8  and  C_9
REMARK    6  A    between atoms: N_11  and  C_12
REMARK    7  A    between atoms: C_14  and  C_15
REMARK    8  A    between atoms: C_15  and  O_17
REMARK    9  A    between atoms: C_20  and  C_21
REMARK                            x       y       z     vdW  Elec       q    Type
REMARK                         _______ _______ _______ _____ _____    ______ ____
ROOT
ATOM      1  C   UNL     1       2.391   7.990  18.350  0.00  0.00    +0.000 C 
ATOM      2  O   UNL     1       2.554   8.415  17.208  0.00  0.00    +0.000 OA
ATOM      3  N   UNL     1       2.770   6.725  18.786  0.00  0.00    +0.000 N 
ATOM      4  H   UNL     1       2.413   6.445  19.691  0.00  0.00    +0.000 HD
ENDROOT
BRANCH   3   5
ATOM      5  C   UNL     1       3.557   5.780  18.087  0.00  0.00    +0.000 A 
ATOM      6  C   UNL     1       4.934   5.975  17.904  0.00  0.00    +0.000 A 
ATOM      7  C   UNL     1       5.697   5.063  17.166  0.00  0.00    +0.000 A 
ATOM      8  C   UNL     1       5.100   3.913  16.656  0.00  0.00    +0.000 A 
ATOM      9  C   UNL     1       3.741   3.682  16.872  0.00  0.00    +0.000 A 
ATOM     10  C   UNL     1       2.956   4.605  17.587  0.00  0.00    +0.000 A 
ATOM     11  C   UNL     1       1.495   4.296  17.777  0.00  0.00    +0.000 C 
BRANCH   7  12
ATOM     12  C   UNL     1       7.151   5.263  16.944  0.00  0.00    +0.000 C 
ATOM     13  O   UNL     1       7.978   4.402  17.201  0.00  0.00    +0.000 OA
BRANCH  12  14
ATOM     14  O   UNL     1       7.472   6.452  16.392  0.00  0.00    +0.000 OA
ATOM     15  H   UNL     1       6.750   7.105  16.337  0.00  0.00    +0.000 HD
ENDBRANCH  12  14
ENDBRANCH   7  12
ENDBRANCH   3   5
BRANCH   1  16
ATOM     16  C   UNL     1       1.620   8.823  19.376  0.00  0.00    +0.000 C 
BRANCH  16  17
ATOM     17  S   UNL     1       0.679  10.150  18.575  0.00  0.00    +0.000 S 
BRANCH  17  21
ATOM     18  C   UNL     1       2.116  13.426  20.083  0.00  0.00    +0.000 A 
ATOM     19  N   UNL     1       1.390  13.305  21.195  0.00  0.00    +0.000 NA
ATOM     20  S   UNL     1       0.511  11.904  21.037  0.00  0.00    +0.000 S 
ATOM     21  C   UNL     1       1.156  11.556  19.485  0.00  0.00    +0.000 A 
ATOM     22  N   UNL     1       2.014  12.465  19.079  0.00  0.00    +0.000 NA
BRANCH  18  24
ATOM     23  C   UNL     1       3.991  14.500  18.382  0.00  0.00    +0.000 C 
ATOM     24  S   UNL     1       3.166  14.825  19.945  0.00  0.00    +0.000 S 
ENDBRANCH  18  24
ENDBRANCH  17  21
ENDBRANCH  16  17
ENDBRANCH   1  16
TORSDOF 7
ENDMDL
MODEL 8
REMARK VINA RESULT:      -6.5      4.047      6.587
REMARK  Name = 
REMARK  9 active torsions:
REMARK  status: ('A' for Active; 'I' for Inactive)
REMARK    1  A    between atoms: C_1  and  S_2
REMARK    2  A    between atoms: S_2  and  C_3
REMARK    3  A    between atoms: C_6  and  S_7
REMARK    4  A    between atoms: S_7  and  C_8
REMARK    5  A    between atoms: C_8  and  C_9
REMARK    6  A    between atoms: N_11  and  C_12
REMARK    7  A    between atoms: C_14  and  C_15
REMARK    8  A    between atoms: C_15  and  O_17
REMARK    9  A    between atoms: C_20  and  C_21
REMARK                            x       y       z     vdW  Elec       q    Type
REMARK                         _______ _______ _______ _____ _____    ______ ____
ROOT
ATOM      1  C   UNL     1       3.734   2.631  18.280  0.00  0.00    +0.000 C 
ATOM      2  O   UNL     1       4.315   2.588  19.364  0.00  0.00    +0.000 OA
ATOM      3  N   UNL     1       4.109   3.438  17.213  0.00  0.00    +0.000 N 
ATOM      4  H   UNL     1       3.440   3.507  16.455  0.00  0.00    +0.000 HD
ENDROOT
BRANCH   3   5
ATOM      5  C   UNL     1       5.294   4.202  17.093  0.00  0.00    +0.000 A 
ATOM      6  C   UNL     1       5.981   4.659  18.226  0.00  0.00    +0.000 A 
ATOM      7  C   UNL     1       7.123   5.458  18.100  0.00  0.00    +0.000 A 
ATOM      8  C   UNL     1       7.625   5.757  16.836  0.00  0.00    +0.000 A 
ATOM      9  C   UNL     1       6.979   5.267  15.700  0.00  0.00    +0.000 A 
ATOM     10  C   UNL     1       5.814   4.486  15.812  0.00  0.00    +0.000 A 
ATOM     11  C   UNL     1       5.163   3.997  14.545  0.00  0.00    +0.000 C 
BRANCH   7  12
ATOM     12  C   UNL     1       7.852   5.970  19.289  0.00  0.00    +0.000 C 
ATOM     13  O   UNL     1       7.893   5.359  20.345  0.00  0.00    +0.000 OA
BRANCH  12  14
ATOM     14  O   UNL     1       8.500   7.136  19.086  0.00  0.00    +0.000 OA
ATOM     15  H   UNL     1       9.087   7.167  18.308  0.00  0.00    +0.000 HD
ENDBRANCH  12  14
ENDBRANCH   7  12
ENDBRANCH   3   5
BRANCH   1  16
ATOM     16  C   UNL     1       2.436   1.848  18.074  0.00  0.00    +0.000 C 
BRANCH  16  17
ATOM     17  S   UNL     1       1.006   2.758  18.717  0.00  0.00    +0.000 S 
BRANCH  17  21
ATOM     18  C   UNL     1       2.442   6.364  18.654  0.00  0.00    +0.000 A 
ATOM     19  N   UNL     1       2.504   6.428  19.985  0.00  0.00    +0.000 NA
ATOM     20  S   UNL     1       1.949   4.970  20.556  0.00  0.00    +0.000 S 
ATOM     21  C   UNL     1       1.657   4.351  18.982  0.00  0.00    +0.000 A 
ATOM     22  N   UNL     1       1.963   5.210  18.036  0.00  0.00    +0.000 NA
BRANCH  18  24
ATOM     23  C   UNL     1       1.663   8.947  18.121  0.00  0.00    +0.000 C 
ATOM     24  S   UNL     1       2.969   7.770  17.746  0.00  0.00    +0.000 S 
ENDBRANCH  18  24
ENDBRANCH  17  21
ENDBRANCH  16  17
ENDBRANCH   1  16
TORSDOF 7
ENDMDL
MODEL 9
REMARK VINA RESULT:      -6.4      4.841      8.264
REMARK  Name = 
REMARK  9 active torsions:
REMARK  status: ('A' for Active; 'I' for Inactive)
REMARK    1  A    between atoms: C_1  and  S_2
REMARK    2  A    between atoms: S_2  and  C_3
REMARK    3  A    between atoms: C_6  and  S_7
REMARK    4  A    between atoms: S_7  and  C_8
REMARK    5  A    between atoms: C_8  and  C_9
REMARK    6  A    between atoms: N_11  and  C_12
REMARK    7  A    between atoms: C_14  and  C_15
REMARK    8  A    between atoms: C_15  and  O_17
REMARK    9  A    between atoms: C_20  and  C_21
REMARK                            x       y       z     vdW  Elec       q    Type
REMARK                         _______ _______ _______ _____ _____    ______ ____
ROOT
ATOM      1  C   UNL     1       2.278   7.293  19.531  0.00  0.00    +0.000 C 
ATOM      2  O   UNL     1       2.668   6.647  20.503  0.00  0.00    +0.000 OA
ATOM      3  N   UNL     1       2.730   7.115  18.229  0.00  0.00    +0.000 N 
ATOM      4  H   UNL     1       2.461   7.831  17.565  0.00  0.00    +0.000 HD
ENDROOT
BRANCH   3   5
ATOM      5  C   UNL     1       3.557   6.072  17.745  0.00  0.00    +0.000 A 
ATOM      6  C   UNL     1       4.918   6.285  17.487  0.00  0.00    +0.000 A 
ATOM      7  C   UNL     1       5.718   5.265  16.959  0.00  0.00    +0.000 A 
ATOM      8  C   UNL     1       5.175   4.000  16.743  0.00  0.00    +0.000 A 
ATOM      9  C   UNL     1       3.833   3.761  17.042  0.00  0.00    +0.000 A 
ATOM     10  C   UNL     1       3.011   4.786  17.546  0.00  0.00    +0.000 A 
ATOM     11  C   UNL     1       1.571   4.460  17.840  0.00  0.00    +0.000 C 
BRANCH   7  12
ATOM     12  C   UNL     1       7.156   5.477  16.658  0.00  0.00    +0.000 C 
ATOM     13  O   UNL     1       7.604   6.566  16.338  0.00  0.00    +0.000 OA
BRANCH  12  14
ATOM     14  O   UNL     1       7.927   4.381  16.818  0.00  0.00    +0.000 OA
ATOM     15  H   UNL     1       8.855   4.468  16.533  0.00  0.00    +0.000 HD
ENDBRANCH  12  14
ENDBRANCH   7  12
ENDBRANCH   3   5
BRANCH   1  16
ATOM     16  C   UNL     1       1.312   8.463  19.725  0.00  0.00    +0.000 C 
BRANCH  16  17
ATOM     17  S   UNL     1       1.458   9.670  18.381  0.00  0.00    +0.000 S 
BRANCH  17  21
ATOM     18  C   UNL     1      -2.133  11.117  18.092  0.00  0.00    +0.000 A 
ATOM     19  N   UNL     1      -1.910  12.025  19.044  0.00  0.00    +0.000 NA
ATOM     20  S   UNL     1      -0.340  11.810  19.545  0.00  0.00    +0.000 S 
ATOM     21  C   UNL     1      -0.065  10.510  18.458  0.00  0.00    +0.000 A 
ATOM     22  N   UNL     1      -1.122  10.230  17.728  0.00  0.00    +0.000 NA
BRANCH  18  24
ATOM     23  C   UNL     1      -3.308  10.839  15.621  0.00  0.00    +0.000 C 
ATOM     24  S   UNL     1      -3.724  11.089  17.352  0.00  0.00    +0.000 S 
ENDBRANCH  18  24
ENDBRANCH  17  21
ENDBRANCH  16  17
ENDBRANCH   1  16
TORSDOF 7
ENDMDL
