MODEL 1
REMARK VINA RESULT:      -8.7      0.000      0.000
REMARK  Name = 
REMARK  11 active torsions:
REMARK  status: ('A' for Active; 'I' for Inactive)
REMARK    1  A    between atoms: C_1  and  C_2
REMARK    2  A    between atoms: C_2  and  N_3
REMARK    3  A    between atoms: C_4  and  C_6
REMARK    4  A    between atoms: C_9  and  C_10
REMARK    5  A    between atoms: C_12  and  C_13
REMARK    6  A    between atoms: C_13  and  C_14
REMARK    7  A    between atoms: C_13  and  C_15
REMARK    8  A    between atoms: C_16  and  O_17
REMARK    9  A    between atoms: C_19  and  O_20
REMARK   10  A    between atoms: C_21  and  N_22
REMARK   11  A    between atoms: C_23  and  C_25
REMARK                            x       y       z     vdW  Elec       q    Type
REMARK                         _______ _______ _______ _____ _____    ______ ____
ROOT
ATOM      1  C   UNL     1       5.599   5.745  16.292  0.00  0.00    +0.000 A 
ATOM      2  N   UNL     1       5.894   7.056  16.315  0.00  0.00    +0.000 NA
ATOM      3  O   UNL     1       4.920   7.639  17.094  0.00  0.00    +0.000 OA
ATOM      4  C   UNL     1       4.028   6.698  17.535  0.00  0.00    +0.000 A 
ATOM      5  C   UNL     1       4.443   5.466  17.078  0.00  0.00    +0.000 A 
ENDROOT
BRANCH   4   6
ATOM      6  C   UNL     1       2.969   7.245  18.379  0.00  0.00    +0.000 A 
ATOM      7  C   UNL     1       2.241   8.362  17.909  0.00  0.00    +0.000 A 
ATOM      8  C   UNL     1       1.344   9.089  18.719  0.00  0.00    +0.000 A 
ATOM      9  C   UNL     1       1.154   8.620  20.026  0.00  0.00    +0.000 A 
ATOM     10  C   UNL     1       1.816   7.483  20.496  0.00  0.00    +0.000 A 
ATOM     11  C   UNL     1       2.722   6.805  19.681  0.00  0.00    +0.000 A 
BRANCH   8  12
ATOM     12  C   UNL     1       0.770  10.409  18.217  0.00  0.00    +0.000 C 
ATOM     13  C   UNL     1      -0.761  10.323  18.220  0.00  0.00    +0.000 C 
ATOM     14  C   UNL     1       1.221  11.658  18.988  0.00  0.00    +0.000 C 
ENDBRANCH   8  12
BRANCH   9  15
ATOM     15  O   UNL     1       0.359   9.241  20.948  0.00  0.00    +0.000 OA
ATOM     16  H   UNL     1      -0.090   9.997  20.542  0.00  0.00    +0.000 HD
ENDBRANCH   9  15
BRANCH  11  17
ATOM     17  O   UNL     1       3.411   5.743  20.202  0.00  0.00    +0.000 OA
ATOM     18  H   UNL     1       4.362   5.938  20.159  0.00  0.00    +0.000 HD
ENDBRANCH  11  17
ENDBRANCH   4   6
BRANCH   1  20
ATOM     19  N   UNL     1       5.795   4.550  14.242  0.00  0.00    +0.000 N 
ATOM     20  C   UNL     1       6.366   4.809  15.476  0.00  0.00    +0.000 C 
ATOM     21  O   UNL     1       7.402   4.275  15.869  0.00  0.00    +0.000 OA
ATOM     22  H   UNL     1       4.939   5.055  14.017  0.00  0.00    +0.000 HD
BRANCH  19  24
ATOM     23  C   UNL     1       5.415   3.303  12.159  0.00  0.00    +0.000 C 
ATOM     24  C   UNL     1       6.337   3.572  13.333  0.00  0.00    +0.000 C 
ENDBRANCH  19  24
ENDBRANCH   1  20
BRANCH   5  25
ATOM     25  N   UNL     1       3.793   4.237  17.235  0.00  0.00    +0.000 N 
ATOM     26  C   UNL     1       4.251   3.437  18.275  0.00  0.00    +0.000 C 
ATOM     27  O   UNL     1       5.237   3.716  18.956  0.00  0.00    +0.000 OA
ATOM     28  H   UNL     1       2.781   4.321  17.275  0.00  0.00    +0.000 HD
BRANCH  26  29
ATOM     29  C   UNL     1       3.372   2.213  18.569  0.00  0.00    +0.000 C 
ATOM     30  C   UNL     1       1.920   2.489  18.153  0.00  0.00    +0.000 C 
ATOM     31  C   UNL     1       1.268   3.510  19.088  0.00  0.00    +0.000 C 
ATOM     32  N   UNL     1       1.295   3.050  20.479  0.00  0.00    +0.000 NA
ATOM     33  C   UNL     1       2.661   2.793  20.934  0.00  0.00    +0.000 C 
ATOM     34  C   UNL     1       3.393   1.789  20.044  0.00  0.00    +0.000 C 
ATOM     35  H   UNL     1       0.742   2.195  20.553  0.00  0.00    +0.000 HD
ENDBRANCH  26  29
ENDBRANCH   5  25
TORSDOF 8
ENDMDL
MODEL 2
REMARK VINA RESULT:      -8.6      1.038      1.139
REMARK  Name = 
REMARK  11 active torsions:
REMARK  status: ('A' for Active; 'I' for Inactive)
REMARK    1  A    between atoms: C_1  and  C_2
REMARK    2  A    between atoms: C_2  and  N_3
REMARK    3  A    between atoms: C_4  and  C_6
REMARK    4  A    between atoms: C_9  and  C_10
REMARK    5  A    between atoms: C_12  and  C_13
REMARK    6  A    between atoms: C_13  and  C_14
REMARK    7  A    between atoms: C_13  and  C_15
REMARK    8  A    between atoms: C_16  and  O_17
REMARK    9  A    between atoms: C_19  and  O_20
REMARK   10  A    between atoms: C_21  and  N_22
REMARK   11  A    between atoms: C_23  and  C_25
REMARK                            x       y       z     vdW  Elec       q    Type
REMARK                         _______ _______ _______ _____ _____    ______ ____
ROOT
ATOM      1  C   UNL     1       4.912   5.581  16.344  0.00  0.00    +0.000 A 
ATOM      2  N   UNL     1       4.986   6.861  15.938  0.00  0.00    +0.000 NA
ATOM      3  O   UNL     1       4.117   7.556  16.749  0.00  0.00    +0.000 OA
ATOM      4  C   UNL     1       3.506   6.711  17.637  0.00  0.00    +0.000 A 
ATOM      5  C   UNL     1       4.011   5.444  17.441  0.00  0.00    +0.000 A 
ENDROOT
BRANCH   4   6
ATOM      6  C   UNL     1       2.575   7.383  18.539  0.00  0.00    +0.000 A 
ATOM      7  C   UNL     1       1.892   8.529  18.073  0.00  0.00    +0.000 A 
ATOM      8  C   UNL     1       1.133   9.366  18.917  0.00  0.00    +0.000 A 
ATOM      9  C   UNL     1       1.032   8.980  20.260  0.00  0.00    +0.000 A 
ATOM     10  C   UNL     1       1.648   7.820  20.735  0.00  0.00    +0.000 A 
ATOM     11  C   UNL     1       2.419   7.030  19.882  0.00  0.00    +0.000 A 
BRANCH   8  12
ATOM     12  C   UNL     1       0.614  10.701  18.393  0.00  0.00    +0.000 C 
ATOM     13  C   UNL     1      -0.918  10.683  18.404  0.00  0.00    +0.000 C 
ATOM     14  C   UNL     1       1.124  11.942  19.139  0.00  0.00    +0.000 C 
ENDBRANCH   8  12
BRANCH   9  15
ATOM     15  O   UNL     1       0.376   9.710  21.213  0.00  0.00    +0.000 OA
ATOM     16  H   UNL     1       0.445   9.269  22.072  0.00  0.00    +0.000 HD
ENDBRANCH   9  15
BRANCH  11  17
ATOM     17  O   UNL     1       3.073   5.944  20.399  0.00  0.00    +0.000 OA
ATOM     18  H   UNL     1       3.173   6.069  21.357  0.00  0.00    +0.000 HD
ENDBRANCH  11  17
ENDBRANCH   4   6
BRANCH   1  20
ATOM     19  N   UNL     1       5.745   4.731  14.283  0.00  0.00    +0.000 N 
ATOM     20  C   UNL     1       5.632   4.521  15.647  0.00  0.00    +0.000 C 
ATOM     21  O   UNL     1       6.061   3.519  16.217  0.00  0.00    +0.000 OA
ATOM     22  H   UNL     1       5.360   5.601  13.919  0.00  0.00    +0.000 HD
BRANCH  19  24
ATOM     23  C   UNL     1       5.404   3.402  12.245  0.00  0.00    +0.000 C 
ATOM     24  C   UNL     1       6.324   3.750  13.400  0.00  0.00    +0.000 C 
ENDBRANCH  19  24
ENDBRANCH   1  20
BRANCH   5  25
ATOM     25  N   UNL     1       3.620   4.263  18.081  0.00  0.00    +0.000 N 
ATOM     26  C   UNL     1       2.370   3.768  17.729  0.00  0.00    +0.000 C 
ATOM     27  O   UNL     1       1.590   4.370  16.991  0.00  0.00    +0.000 OA
ATOM     28  H   UNL     1       4.318   3.527  18.026  0.00  0.00    +0.000 HD
BRANCH  26  29
ATOM     29  C   UNL     1       2.071   2.360  18.263  0.00  0.00    +0.000 C 
ATOM     30  C   UNL     1       0.744   2.355  19.035  0.00  0.00    +0.000 C 
ATOM     31  C   UNL     1       0.879   3.112  20.358  0.00  0.00    +0.000 C 
ATOM     32  N   UNL     1       1.931   2.533  21.198  0.00  0.00    +0.000 NA
ATOM     33  C   UNL     1       3.225   2.534  20.516  0.00  0.00    +0.000 C 
ATOM     34  C   UNL     1       3.176   1.806  19.172  0.00  0.00    +0.000 C 
ATOM     35  H   UNL     1       1.671   1.576  21.438  0.00  0.00    +0.000 HD
ENDBRANCH  26  29
ENDBRANCH   5  25
TORSDOF 8
ENDMDL
MODEL 3
REMARK VINA RESULT:      -8.0      0.755      1.017
REMARK  Name = 
REMARK  11 active torsions:
REMARK  status: ('A' for Active; 'I' for Inactive)
REMARK    1  A    between atoms: C_1  and  C_2
REMARK    2  A    between atoms: C_2  and  N_3
REMARK    3  A    between atoms: C_4  and  C_6
REMARK    4  A    between atoms: C_9  and  C_10
REMARK    5  A    between atoms: C_12  and  C_13
REMARK    6  A    between atoms: C_13  and  C_14
REMARK    7  A    between atoms: C_13  and  C_15
REMARK    8  A    between atoms: C_16  and  O_17
REMARK    9  A    between atoms: C_19  and  O_20
REMARK   10  A    between atoms: C_21  and  N_22
REMARK   11  A    between atoms: C_23  and  C_25
REMARK                            x       y       z     vdW  Elec       q    Type
REMARK                         _______ _______ _______ _____ _____    ______ ____
ROOT
ATOM      1  C   UNL     1       5.076   5.661  16.269  0.00  0.00    +0.000 A 
ATOM      2  N   UNL     1       5.176   6.964  15.952  0.00  0.00    +0.000 NA
ATOM      3  O   UNL     1       4.279   7.613  16.771  0.00  0.00    +0.000 OA
ATOM      4  C   UNL     1       3.625   6.717  17.575  0.00  0.00    +0.000 A 
ATOM      5  C   UNL     1       4.128   5.460  17.316  0.00  0.00    +0.000 A 
ENDROOT
BRANCH   4   6
ATOM      6  C   UNL     1       2.661   7.337  18.480  0.00  0.00    +0.000 A 
ATOM      7  C   UNL     1       1.895   8.426  18.007  0.00  0.00    +0.000 A 
ATOM      8  C   UNL     1       1.091   9.221  18.849  0.00  0.00    +0.000 A 
ATOM      9  C   UNL     1       1.034   8.851  20.200  0.00  0.00    +0.000 A 
ATOM     10  C   UNL     1       1.736   7.743  20.682  0.00  0.00    +0.000 A 
ATOM     11  C   UNL     1       2.549   6.996  19.830  0.00  0.00    +0.000 A 
BRANCH   8  12
ATOM     12  C   UNL     1       0.474  10.509  18.314  0.00  0.00    +0.000 C 
ATOM     13  C   UNL     1      -1.054  10.385  18.348  0.00  0.00    +0.000 C 
ATOM     14  C   UNL     1       0.907  11.794  19.033  0.00  0.00    +0.000 C 
ENDBRANCH   8  12
BRANCH   9  15
ATOM     15  O   UNL     1       0.342   9.548  21.151  0.00  0.00    +0.000 OA
ATOM     16  H   UNL     1      -0.305  10.130  20.728  0.00  0.00    +0.000 HD
ENDBRANCH   9  15
BRANCH  11  17
ATOM     17  O   UNL     1       3.283   5.965  20.354  0.00  0.00    +0.000 OA
ATOM     18  H   UNL     1       2.701   5.417  20.905  0.00  0.00    +0.000 HD
ENDBRANCH  11  17
ENDBRANCH   4   6
BRANCH   1  20
ATOM     19  N   UNL     1       6.344   5.095  14.335  0.00  0.00    +0.000 N 
ATOM     20  C   UNL     1       5.816   4.642  15.533  0.00  0.00    +0.000 C 
ATOM     21  O   UNL     1       5.925   3.482  15.926  0.00  0.00    +0.000 OA
ATOM     22  H   UNL     1       6.199   6.079  14.113  0.00  0.00    +0.000 HD
BRANCH  19  24
ATOM     23  C   UNL     1       6.042   3.475  12.513  0.00  0.00    +0.000 C 
ATOM     24  C   UNL     1       7.015   4.217  13.410  0.00  0.00    +0.000 C 
ENDBRANCH  19  24
ENDBRANCH   1  20
BRANCH   5  25
ATOM     25  N   UNL     1       3.702   4.244  17.859  0.00  0.00    +0.000 N 
ATOM     26  C   UNL     1       4.481   3.734  18.890  0.00  0.00    +0.000 C 
ATOM     27  O   UNL     1       5.545   4.241  19.246  0.00  0.00    +0.000 OA
ATOM     28  H   UNL     1       2.722   4.246  18.126  0.00  0.00    +0.000 HD
BRANCH  26  29
ATOM     29  C   UNL     1       3.863   2.532  19.620  0.00  0.00    +0.000 C 
ATOM     30  C   UNL     1       3.520   1.421  18.617  0.00  0.00    +0.000 C 
ATOM     31  C   UNL     1       2.338   1.827  17.734  0.00  0.00    +0.000 C 
ATOM     32  N   UNL     1       1.154   2.136  18.540  0.00  0.00    +0.000 NA
ATOM     33  C   UNL     1       1.420   3.207  19.499  0.00  0.00    +0.000 C 
ATOM     34  C   UNL     1       2.601   2.888  20.417  0.00  0.00    +0.000 C 
ATOM     35  H   UNL     1       0.866   1.293  19.038  0.00  0.00    +0.000 HD
ENDBRANCH  26  29
ENDBRANCH   5  25
TORSDOF 8
ENDMDL
MODEL 4
REMARK VINA RESULT:      -8.0      2.157      3.128
REMARK  Name = 
REMARK  11 active torsions:
REMARK  status: ('A' for Active; 'I' for Inactive)
REMARK    1  A    between atoms: C_1  and  C_2
REMARK    2  A    between atoms: C_2  and  N_3
REMARK    3  A    between atoms: C_4  and  C_6
REMARK    4  A    between atoms: C_9  and  C_10
REMARK    5  A    between atoms: C_12  and  C_13
REMARK    6  A    between atoms: C_13  and  C_14
REMARK    7  A    between atoms: C_13  and  C_15
REMARK    8  A    between atoms: C_16  and  O_17
REMARK    9  A    between atoms: C_19  and  O_20
REMARK   10  A    between atoms: C_21  and  N_22
REMARK   11  A    between atoms: C_23  and  C_25
REMARK                            x       y       z     vdW  Elec       q    Type
REMARK                         _______ _______ _______ _____ _____    ______ ____
ROOT
ATOM      1  C   UNL     1       3.722   7.175  17.600  0.00  0.00    +0.000 A 
ATOM      2  N   UNL     1       3.488   8.280  16.870  0.00  0.00    +0.000 NA
ATOM      3  O   UNL     1       2.523   8.979  17.560  0.00  0.00    +0.000 OA
ATOM      4  C   UNL     1       2.159   8.307  18.696  0.00  0.00    +0.000 A 
ATOM      5  C   UNL     1       2.926   7.165  18.783  0.00  0.00    +0.000 A 
ENDROOT
BRANCH   4   6
ATOM      6  C   UNL     1       1.143   8.997  19.486  0.00  0.00    +0.000 A 
ATOM      7  C   UNL     1       0.267   9.890  18.827  0.00  0.00    +0.000 A 
ATOM      8  C   UNL     1      -0.608  10.754  19.516  0.00  0.00    +0.000 A 
ATOM      9  C   UNL     1      -0.619  10.656  20.914  0.00  0.00    +0.000 A 
ATOM     10  C   UNL     1       0.194   9.740  21.587  0.00  0.00    +0.000 A 
ATOM     11  C   UNL     1       1.073   8.922  20.879  0.00  0.00    +0.000 A 
BRANCH   8  12
ATOM     12  C   UNL     1      -1.355  11.842  18.753  0.00  0.00    +0.000 C 
ATOM     13  C   UNL     1      -0.373  12.961  18.386  0.00  0.00    +0.000 C 
ATOM     14  C   UNL     1      -2.098  11.371  17.495  0.00  0.00    +0.000 C 
ENDBRANCH   8  12
BRANCH   9  15
ATOM     15  O   UNL     1      -1.372  11.457  21.726  0.00  0.00    +0.000 OA
ATOM     16  H   UNL     1      -0.961  11.523  22.599  0.00  0.00    +0.000 HD
ENDBRANCH   9  15
BRANCH  11  17
ATOM     17  O   UNL     1       1.911   8.093  21.576  0.00  0.00    +0.000 OA
ATOM     18  H   UNL     1       2.779   8.523  21.654  0.00  0.00    +0.000 HD
ENDBRANCH  11  17
ENDBRANCH   4   6
BRANCH   1  20
ATOM     19  N   UNL     1       5.965   6.484  17.204  0.00  0.00    +0.000 N 
ATOM     20  C   UNL     1       4.628   6.132  17.130  0.00  0.00    +0.000 C 
ATOM     21  O   UNL     1       4.233   5.059  16.677  0.00  0.00    +0.000 OA
ATOM     22  H   UNL     1       6.179   7.396  17.604  0.00  0.00    +0.000 HD
BRANCH  19  24
ATOM     23  C   UNL     1       7.574   4.709  17.746  0.00  0.00    +0.000 C 
ATOM     24  C   UNL     1       7.012   5.639  16.688  0.00  0.00    +0.000 C 
ENDBRANCH  19  24
ENDBRANCH   1  20
BRANCH   5  25
ATOM     25  N   UNL     1       2.840   6.153  19.745  0.00  0.00    +0.000 N 
ATOM     26  C   UNL     1       2.063   5.053  19.400  0.00  0.00    +0.000 C 
ATOM     27  O   UNL     1       1.392   4.998  18.369  0.00  0.00    +0.000 OA
ATOM     28  H   UNL     1       3.746   5.849  20.090  0.00  0.00    +0.000 HD
BRANCH  26  29
ATOM     29  C   UNL     1       2.179   3.865  20.366  0.00  0.00    +0.000 C 
ATOM     30  C   UNL     1       3.483   3.095  20.108  0.00  0.00    +0.000 C 
ATOM     31  C   UNL     1       3.419   2.344  18.776  0.00  0.00    +0.000 C 
ATOM     32  N   UNL     1       2.291   1.410  18.746  0.00  0.00    +0.000 NA
ATOM     33  C   UNL     1       1.018   2.097  18.964  0.00  0.00    +0.000 C 
ATOM     34  C   UNL     1       1.000   2.887  20.273  0.00  0.00    +0.000 C 
ATOM     35  H   UNL     1       2.428   0.704  19.470  0.00  0.00    +0.000 HD
ENDBRANCH  26  29
ENDBRANCH   5  25
TORSDOF 8
ENDMDL
MODEL 5
REMARK VINA RESULT:      -7.8      1.532      2.208
REMARK  Name = 
REMARK  11 active torsions:
REMARK  status: ('A' for Active; 'I' for Inactive)
REMARK    1  A    between atoms: C_1  and  C_2
REMARK    2  A    between atoms: C_2  and  N_3
REMARK    3  A    between atoms: C_4  and  C_6
REMARK    4  A    between atoms: C_9  and  C_10
REMARK    5  A    between atoms: C_12  and  C_13
REMARK    6  A    between atoms: C_13  and  C_14
REMARK    7  A    between atoms: C_13  and  C_15
REMARK    8  A    between atoms: C_16  and  O_17
REMARK    9  A    between atoms: C_19  and  O_20
REMARK   10  A    between atoms: C_21  and  N_22
REMARK   11  A    between atoms: C_23  and  C_25
REMARK                            x       y       z     vdW  Elec       q    Type
REMARK                         _______ _______ _______ _____ _____    ______ ____
ROOT
ATOM      1  C   UNL     1       4.358   6.279  17.411  0.00  0.00    +0.000 A 
ATOM      2  N   UNL     1       4.396   7.483  16.815  0.00  0.00    +0.000 NA
ATOM      3  O   UNL     1       3.429   8.235  17.444  0.00  0.00    +0.000 OA
ATOM      4  C   UNL     1       2.795   7.497  18.408  0.00  0.00    +0.000 A 
ATOM      5  C   UNL     1       3.381   6.251  18.449  0.00  0.00    +0.000 A 
ENDROOT
BRANCH   4   6
ATOM      6  C   UNL     1       1.760   8.237  19.126  0.00  0.00    +0.000 A 
ATOM      7  C   UNL     1       1.163   9.349  18.492  0.00  0.00    +0.000 A 
ATOM      8  C   UNL     1       0.308  10.247  19.163  0.00  0.00    +0.000 A 
ATOM      9  C   UNL     1       0.021   9.960  20.505  0.00  0.00    +0.000 A 
ATOM     10  C   UNL     1       0.551   8.834  21.139  0.00  0.00    +0.000 A 
ATOM     11  C   UNL     1       1.420   7.982  20.457  0.00  0.00    +0.000 A 
BRANCH   8  12
ATOM     12  C   UNL     1      -0.116  11.543  18.481  0.00  0.00    +0.000 C 
ATOM     13  C   UNL     1      -1.639  11.543  18.307  0.00  0.00    +0.000 C 
ATOM     14  C   UNL     1       0.325  12.833  19.187  0.00  0.00    +0.000 C 
ENDBRANCH   8  12
BRANCH   9  15
ATOM     15  O   UNL     1      -0.747  10.758  21.306  0.00  0.00    +0.000 OA
ATOM     16  H   UNL     1      -1.669  10.463  21.280  0.00  0.00    +0.000 HD
ENDBRANCH   9  15
BRANCH  11  17
ATOM     17  O   UNL     1       1.983   6.933  21.133  0.00  0.00    +0.000 OA
ATOM     18  H   UNL     1       1.319   6.229  21.222  0.00  0.00    +0.000 HD
ENDBRANCH  11  17
ENDBRANCH   4   6
BRANCH   1  20
ATOM     19  N   UNL     1       5.815   5.425  15.733  0.00  0.00    +0.000 N 
ATOM     20  C   UNL     1       5.187   5.173  16.940  0.00  0.00    +0.000 C 
ATOM     21  O   UNL     1       5.284   4.107  17.546  0.00  0.00    +0.000 OA
ATOM     22  H   UNL     1       5.671   6.347  15.323  0.00  0.00    +0.000 HD
BRANCH  19  24
ATOM     23  C   UNL     1       5.941   3.985  13.746  0.00  0.00    +0.000 C 
ATOM     24  C   UNL     1       6.590   4.423  15.045  0.00  0.00    +0.000 C 
ENDBRANCH  19  24
ENDBRANCH   1  20
BRANCH   5  25
ATOM     25  N   UNL     1       3.004   5.158  19.237  0.00  0.00    +0.000 N 
ATOM     26  C   UNL     1       2.037   4.322  18.691  0.00  0.00    +0.000 C 
ATOM     27  O   UNL     1       1.452   4.567  17.636  0.00  0.00    +0.000 OA
ATOM     28  H   UNL     1       3.794   4.612  19.570  0.00  0.00    +0.000 HD
BRANCH  26  29
ATOM     29  C   UNL     1       1.819   3.014  19.465  0.00  0.00    +0.000 C 
ATOM     30  C   UNL     1       2.815   2.912  20.629  0.00  0.00    +0.000 C 
ATOM     31  C   UNL     1       4.236   2.676  20.113  0.00  0.00    +0.000 C 
ATOM     32  N   UNL     1       4.312   1.458  19.302  0.00  0.00    +0.000 NA
ATOM     33  C   UNL     1       3.396   1.512  18.163  0.00  0.00    +0.000 C 
ATOM     34  C   UNL     1       1.949   1.760  18.590  0.00  0.00    +0.000 C 
ATOM     35  H   UNL     1       4.081   0.656  19.890  0.00  0.00    +0.000 HD
ENDBRANCH  26  29
ENDBRANCH   5  25
TORSDOF 8
ENDMDL
MODEL 6
REMARK VINA RESULT:      -7.5      1.540      2.410
REMARK  Name = 
REMARK  11 active torsions:
REMARK  status: ('A' for Active; 'I' for Inactive)
REMARK    1  A    between atoms: C_1  and  C_2
REMARK    2  A    between atoms: C_2  and  N_3
REMARK    3  A    between atoms: C_4  and  C_6
REMARK    4  A    between atoms: C_9  and  C_10
REMARK    5  A    between atoms: C_12  and  C_13
REMARK    6  A    between atoms: C_13  and  C_14
REMARK    7  A    between atoms: C_13  and  C_15
REMARK    8  A    between atoms: C_16  and  O_17
REMARK    9  A    between atoms: C_19  and  O_20
REMARK   10  A    between atoms: C_21  and  N_22
REMARK   11  A    between atoms: C_23  and  C_25
REMARK                            x       y       z     vdW  Elec       q    Type
REMARK                         _______ _______ _______ _____ _____    ______ ____
ROOT
ATOM      1  C   UNL     1       3.928   6.503  17.372  0.00  0.00    +0.000 A 
ATOM      2  N   UNL     1       4.218   7.753  16.971  0.00  0.00    +0.000 NA
ATOM      3  O   UNL     1       3.299   8.564  17.598  0.00  0.00    +0.000 OA
ATOM      4  C   UNL     1       2.446   7.819  18.369  0.00  0.00    +0.000 A 
ATOM      5  C   UNL     1       2.833   6.499  18.285  0.00  0.00    +0.000 A 
ENDROOT
BRANCH   4   6
ATOM      6  C   UNL     1       1.447   8.617  19.075  0.00  0.00    +0.000 A 
ATOM      7  C   UNL     1       0.702   9.568  18.342  0.00  0.00    +0.000 A 
ATOM      8  C   UNL     1      -0.135  10.524  18.955  0.00  0.00    +0.000 A 
ATOM      9  C   UNL     1      -0.247  10.461  20.350  0.00  0.00    +0.000 A 
ATOM     10  C   UNL     1       0.433   9.493  21.093  0.00  0.00    +0.000 A 
ATOM     11  C   UNL     1       1.279   8.582  20.462  0.00  0.00    +0.000 A 
BRANCH   8  12
ATOM     12  C   UNL     1      -0.728  11.656  18.123  0.00  0.00    +0.000 C 
ATOM     13  C   UNL     1      -2.255  11.519  18.106  0.00  0.00    +0.000 C 
ATOM     14  C   UNL     1      -0.339  13.073  18.568  0.00  0.00    +0.000 C 
ENDBRANCH   8  12
BRANCH   9  15
ATOM     15  O   UNL     1      -0.976  11.346  21.095  0.00  0.00    +0.000 OA
ATOM     16  H   UNL     1      -1.910  11.090  21.091  0.00  0.00    +0.000 HD
ENDBRANCH   9  15
BRANCH  11  17
ATOM     17  O   UNL     1       1.990   7.699  21.229  0.00  0.00    +0.000 OA
ATOM     18  H   UNL     1       2.205   6.921  20.689  0.00  0.00    +0.000 HD
ENDBRANCH  11  17
ENDBRANCH   4   6
BRANCH   1  20
ATOM     19  N   UNL     1       5.731   5.685  16.050  0.00  0.00    +0.000 N 
ATOM     20  C   UNL     1       4.639   5.348  16.832  0.00  0.00    +0.000 C 
ATOM     21  O   UNL     1       4.275   4.190  17.026  0.00  0.00    +0.000 OA
ATOM     22  H   UNL     1       5.946   6.677  15.964  0.00  0.00    +0.000 HD
BRANCH  19  24
ATOM     23  C   UNL     1       5.843   4.288  14.031  0.00  0.00    +0.000 C 
ATOM     24  C   UNL     1       6.500   4.696  15.337  0.00  0.00    +0.000 C 
ENDBRANCH  19  24
ENDBRANCH   1  20
BRANCH   5  25
ATOM     25  N   UNL     1       2.202   5.389  18.856  0.00  0.00    +0.000 N 
ATOM     26  C   UNL     1       2.831   4.840  19.967  0.00  0.00    +0.000 C 
ATOM     27  O   UNL     1       3.931   5.214  20.373  0.00  0.00    +0.000 OA
ATOM     28  H   UNL     1       1.216   5.544  19.050  0.00  0.00    +0.000 HD
BRANCH  26  29
ATOM     29  C   UNL     1       2.000   3.782  20.709  0.00  0.00    +0.000 C 
ATOM     30  C   UNL     1       2.825   2.502  20.908  0.00  0.00    +0.000 C 
ATOM     31  C   UNL     1       3.040   1.778  19.577  0.00  0.00    +0.000 C 
ATOM     32  N   UNL     1       1.763   1.439  18.944  0.00  0.00    +0.000 NA
ATOM     33  C   UNL     1       0.945   2.629  18.710  0.00  0.00    +0.000 C 
ATOM     34  C   UNL     1       0.692   3.423  19.992  0.00  0.00    +0.000 C 
ATOM     35  H   UNL     1       1.259   0.789  19.548  0.00  0.00    +0.000 HD
ENDBRANCH  26  29
ENDBRANCH   5  25
TORSDOF 8
ENDMDL
MODEL 7
REMARK VINA RESULT:      -7.5      2.101      6.419
REMARK  Name = 
REMARK  11 active torsions:
REMARK  status: ('A' for Active; 'I' for Inactive)
REMARK    1  A    between atoms: C_1  and  C_2
REMARK    2  A    between atoms: C_2  and  N_3
REMARK    3  A    between atoms: C_4  and  C_6
REMARK    4  A    between atoms: C_9  and  C_10
REMARK    5  A    between atoms: C_12  and  C_13
REMARK    6  A    between atoms: C_13  and  C_14
REMARK    7  A    between atoms: C_13  and  C_15
REMARK    8  A    between atoms: C_16  and  O_17
REMARK    9  A    between atoms: C_19  and  O_20
REMARK   10  A    between atoms: C_21  and  N_22
REMARK   11  A    between atoms: C_23  and  C_25
REMARK                            x       y       z     vdW  Elec       q    Type
REMARK                         _______ _______ _______ _____ _____    ______ ____
ROOT
ATOM      1  C   UNL     1       1.905   8.604  18.429  0.00  0.00    +0.000 A 
ATOM      2  N   UNL     1       2.512   9.301  17.453  0.00  0.00    +0.000 NA
ATOM      3  O   UNL     1       3.592   8.536  17.071  0.00  0.00    +0.000 OA
ATOM      4  C   UNL     1       3.654   7.386  17.812  0.00  0.00    +0.000 A 
ATOM      5  C   UNL     1       2.574   7.367  18.668  0.00  0.00    +0.000 A 
ENDROOT
BRANCH   4   6
ATOM      6  C   UNL     1       4.773   6.518  17.453  0.00  0.00    +0.000 A 
ATOM      7  C   UNL     1       5.081   6.347  16.084  0.00  0.00    +0.000 A 
ATOM      8  C   UNL     1       6.000   5.383  15.620  0.00  0.00    +0.000 A 
ATOM      9  C   UNL     1       6.654   4.616  16.594  0.00  0.00    +0.000 A 
ATOM     10  C   UNL     1       6.411   4.806  17.957  0.00  0.00    +0.000 A 
ATOM     11  C   UNL     1       5.472   5.745  18.383  0.00  0.00    +0.000 A 
BRANCH   8  12
ATOM     12  C   UNL     1       6.114   5.102  14.126  0.00  0.00    +0.000 C 
ATOM     13  C   UNL     1       7.576   5.265  13.695  0.00  0.00    +0.000 C 
ATOM     14  C   UNL     1       5.590   3.732  13.672  0.00  0.00    +0.000 C 
ENDBRANCH   8  12
BRANCH   9  15
ATOM     15  O   UNL     1       7.533   3.609  16.305  0.00  0.00    +0.000 OA
ATOM     16  H   UNL     1       7.595   3.000  17.054  0.00  0.00    +0.000 HD
ENDBRANCH   9  15
BRANCH  11  17
ATOM     17  O   UNL     1       5.202   5.849  19.721  0.00  0.00    +0.000 OA
ATOM     18  H   UNL     1       4.437   5.287  19.928  0.00  0.00    +0.000 HD
ENDBRANCH  11  17
ENDBRANCH   4   6
BRANCH   1  20
ATOM     19  N   UNL     1      -0.029   9.992  18.390  0.00  0.00    +0.000 N 
ATOM     20  C   UNL     1       0.762   9.150  19.154  0.00  0.00    +0.000 C 
ATOM     21  O   UNL     1       0.548   8.910  20.341  0.00  0.00    +0.000 OA
ATOM     22  H   UNL     1       0.237  10.112  17.414  0.00  0.00    +0.000 HD
BRANCH  19  24
ATOM     23  C   UNL     1      -2.428  10.479  18.181  0.00  0.00    +0.000 C 
ATOM     24  C   UNL     1      -1.142  10.717  18.949  0.00  0.00    +0.000 C 
ENDBRANCH  19  24
ENDBRANCH   1  20
BRANCH   5  25
ATOM     25  N   UNL     1       2.283   6.415  19.650  0.00  0.00    +0.000 N 
ATOM     26  C   UNL     1       1.829   5.186  19.186  0.00  0.00    +0.000 C 
ATOM     27  O   UNL     1       1.582   4.961  18.001  0.00  0.00    +0.000 OA
ATOM     28  H   UNL     1       3.038   6.282  20.317  0.00  0.00    +0.000 HD
BRANCH  26  29
ATOM     29  C   UNL     1       1.745   4.092  20.261  0.00  0.00    +0.000 C 
ATOM     30  C   UNL     1       3.086   3.352  20.371  0.00  0.00    +0.000 C 
ATOM     31  C   UNL     1       3.334   2.484  19.135  0.00  0.00    +0.000 C 
ATOM     32  N   UNL     1       2.257   1.510  18.944  0.00  0.00    +0.000 NA
ATOM     33  C   UNL     1       0.956   2.166  18.810  0.00  0.00    +0.000 C 
ATOM     34  C   UNL     1       0.632   3.068  20.002  0.00  0.00    +0.000 C 
ATOM     35  H   UNL     1       2.240   0.876  19.744  0.00  0.00    +0.000 HD
ENDBRANCH  26  29
ENDBRANCH   5  25
TORSDOF 8
ENDMDL
MODEL 8
REMARK VINA RESULT:      -7.3      2.129      6.528
REMARK  Name = 
REMARK  11 active torsions:
REMARK  status: ('A' for Active; 'I' for Inactive)
REMARK    1  A    between atoms: C_1  and  C_2
REMARK    2  A    between atoms: C_2  and  N_3
REMARK    3  A    between atoms: C_4  and  C_6
REMARK    4  A    between atoms: C_9  and  C_10
REMARK    5  A    between atoms: C_12  and  C_13
REMARK    6  A    between atoms: C_13  and  C_14
REMARK    7  A    between atoms: C_13  and  C_15
REMARK    8  A    between atoms: C_16  and  O_17
REMARK    9  A    between atoms: C_19  and  O_20
REMARK   10  A    between atoms: C_21  and  N_22
REMARK   11  A    between atoms: C_23  and  C_25
REMARK                            x       y       z     vdW  Elec       q    Type
REMARK                         _______ _______ _______ _____ _____    ______ ____
ROOT
ATOM      1  C   UNL     1       1.909   8.617  18.508  0.00  0.00    +0.000 A 
ATOM      2  N   UNL     1       2.525   9.328  17.548  0.00  0.00    +0.000 NA
ATOM      3  O   UNL     1       3.596   8.559  17.149  0.00  0.00    +0.000 OA
ATOM      4  C   UNL     1       3.644   7.392  17.865  0.00  0.00    +0.000 A 
ATOM      5  C   UNL     1       2.563   7.368  18.720  0.00  0.00    +0.000 A 
ENDROOT
BRANCH   4   6
ATOM      6  C   UNL     1       4.752   6.518  17.487  0.00  0.00    +0.000 A 
ATOM      7  C   UNL     1       5.046   6.358  16.114  0.00  0.00    +0.000 A 
ATOM      8  C   UNL     1       5.953   5.391  15.633  0.00  0.00    +0.000 A 
ATOM      9  C   UNL     1       6.610   4.610  16.594  0.00  0.00    +0.000 A 
ATOM     10  C   UNL     1       6.381   4.789  17.960  0.00  0.00    +0.000 A 
ATOM     11  C   UNL     1       5.453   5.731  18.404  0.00  0.00    +0.000 A 
BRANCH   8  12
ATOM     12  C   UNL     1       6.051   5.124  14.135  0.00  0.00    +0.000 C 
ATOM     13  C   UNL     1       7.513   5.262  13.696  0.00  0.00    +0.000 C 
ATOM     14  C   UNL     1       5.496   3.770  13.671  0.00  0.00    +0.000 C 
ENDBRANCH   8  12
BRANCH   9  15
ATOM     15  O   UNL     1       7.478   3.599  16.287  0.00  0.00    +0.000 OA
ATOM     16  H   UNL     1       8.314   3.967  15.967  0.00  0.00    +0.000 HD
ENDBRANCH   9  15
BRANCH  11  17
ATOM     17  O   UNL     1       5.196   5.824  19.745  0.00  0.00    +0.000 OA
ATOM     18  H   UNL     1       4.680   6.631  19.907  0.00  0.00    +0.000 HD
ENDBRANCH  11  17
ENDBRANCH   4   6
BRANCH   1  20
ATOM     19  N   UNL     1       0.850   8.963  20.612  0.00  0.00    +0.000 N 
ATOM     20  C   UNL     1       0.772   9.161  19.244  0.00  0.00    +0.000 C 
ATOM     21  O   UNL     1      -0.180   9.709  18.691  0.00  0.00    +0.000 OA
ATOM     22  H   UNL     1       1.690   8.504  20.963  0.00  0.00    +0.000 HD
BRANCH  19  24
ATOM     23  C   UNL     1       0.238   9.421  22.947  0.00  0.00    +0.000 C 
ATOM     24  C   UNL     1      -0.221   9.328  21.504  0.00  0.00    +0.000 C 
ENDBRANCH  19  24
ENDBRANCH   1  20
BRANCH   5  25
ATOM     25  N   UNL     1       2.259   6.398  19.680  0.00  0.00    +0.000 N 
ATOM     26  C   UNL     1       1.818   5.175  19.188  0.00  0.00    +0.000 C 
ATOM     27  O   UNL     1       1.591   4.970  17.996  0.00  0.00    +0.000 OA
ATOM     28  H   UNL     1       3.004   6.256  20.357  0.00  0.00    +0.000 HD
BRANCH  26  29
ATOM     29  C   UNL     1       1.721   4.063  20.243  0.00  0.00    +0.000 C 
ATOM     30  C   UNL     1       3.069   3.339  20.378  0.00  0.00    +0.000 C 
ATOM     31  C   UNL     1       3.363   2.496  19.136  0.00  0.00    +0.000 C 
ATOM     32  N   UNL     1       2.305   1.510  18.900  0.00  0.00    +0.000 NA
ATOM     33  C   UNL     1       0.999   2.150  18.741  0.00  0.00    +0.000 C 
ATOM     34  C   UNL     1       0.630   3.027  19.938  0.00  0.00    +0.000 C 
ATOM     35  H   UNL     1       2.276   0.863  19.688  0.00  0.00    +0.000 HD
ENDBRANCH  26  29
ENDBRANCH   5  25
TORSDOF 8
ENDMDL
MODEL 9
REMARK VINA RESULT:      -7.1      1.956      5.025
REMARK  Name = 
REMARK  11 active torsions:
REMARK  status: ('A' for Active; 'I' for Inactive)
REMARK    1  A    between atoms: C_1  and  C_2
REMARK    2  A    between atoms: C_2  and  N_3
REMARK    3  A    between atoms: C_4  and  C_6
REMARK    4  A    between atoms: C_9  and  C_10
REMARK    5  A    between atoms: C_12  and  C_13
REMARK    6  A    between atoms: C_13  and  C_14
REMARK    7  A    between atoms: C_13  and  C_15
REMARK    8  A    between atoms: C_16  and  O_17
REMARK    9  A    between atoms: C_19  and  O_20
REMARK   10  A    between atoms: C_21  and  N_22
REMARK   11  A    between atoms: C_23  and  C_25
REMARK                            x       y       z     vdW  Elec       q    Type
REMARK                         _______ _______ _______ _____ _____    ______ ____
ROOT
ATOM      1  C   UNL     1       3.353   3.104  19.977  0.00  0.00    +0.000 A 
ATOM      2  N   UNL     1       2.418   3.319  20.918  0.00  0.00    +0.000 NA
ATOM      3  O   UNL     1       2.065   4.644  20.791  0.00  0.00    +0.000 OA
ATOM      4  C   UNL     1       2.784   5.240  19.789  0.00  0.00    +0.000 A 
ATOM      5  C   UNL     1       3.594   4.284  19.215  0.00  0.00    +0.000 A 
ENDROOT
BRANCH   4   6
ATOM      6  C   UNL     1       2.454   6.649  19.589  0.00  0.00    +0.000 A 
ATOM      7  C   UNL     1       1.863   7.361  20.657  0.00  0.00    +0.000 A 
ATOM      8  C   UNL     1       1.323   8.655  20.509  0.00  0.00    +0.000 A 
ATOM      9  C   UNL     1       1.444   9.248  19.245  0.00  0.00    +0.000 A 
ATOM     10  C   UNL     1       2.076   8.589  18.188  0.00  0.00    +0.000 A 
ATOM     11  C   UNL     1       2.572   7.296  18.357  0.00  0.00    +0.000 A 
BRANCH   8  12
ATOM     12  C   UNL     1       0.504   9.269  21.640  0.00  0.00    +0.000 C 
ATOM     13  C   UNL     1      -0.793   8.470  21.811  0.00  0.00    +0.000 C 
ATOM     14  C   UNL     1       1.227   9.378  22.990  0.00  0.00    +0.000 C 
ENDBRANCH   8  12
BRANCH   9  15
ATOM     15  O   UNL     1       0.928  10.474  18.928  0.00  0.00    +0.000 OA
ATOM     16  H   UNL     1       1.359  11.161  19.457  0.00  0.00    +0.000 HD
ENDBRANCH   9  15
BRANCH  11  17
ATOM     17  O   UNL     1       3.114   6.651  17.278  0.00  0.00    +0.000 OA
ATOM     18  H   UNL     1       3.150   5.699  17.471  0.00  0.00    +0.000 HD
ENDBRANCH  11  17
ENDBRANCH   4   6
BRANCH   1  20
ATOM     19  N   UNL     1       4.910   1.568  20.918  0.00  0.00    +0.000 N 
ATOM     20  C   UNL     1       4.041   1.821  19.870  0.00  0.00    +0.000 C 
ATOM     21  O   UNL     1       3.886   1.059  18.918  0.00  0.00    +0.000 OA
ATOM     22  H   UNL     1       4.952   2.266  21.659  0.00  0.00    +0.000 HD
BRANCH  19  24
ATOM     23  C   UNL     1       6.262   0.092  22.343  0.00  0.00    +0.000 C 
ATOM     24  C   UNL     1       5.764   0.408  20.945  0.00  0.00    +0.000 C 
ENDBRANCH  19  24
ENDBRANCH   1  20
BRANCH   5  25
ATOM     25  N   UNL     1       4.543   4.469  18.204  0.00  0.00    +0.000 N 
ATOM     26  C   UNL     1       5.828   4.787  18.630  0.00  0.00    +0.000 C 
ATOM     27  O   UNL     1       6.113   5.011  19.806  0.00  0.00    +0.000 OA
ATOM     28  H   UNL     1       4.574   3.703  17.537  0.00  0.00    +0.000 HD
BRANCH  26  29
ATOM     29  C   UNL     1       6.892   4.749  17.523  0.00  0.00    +0.000 C 
ATOM     30  C   UNL     1       7.362   6.172  17.189  0.00  0.00    +0.000 C 
ATOM     31  C   UNL     1       6.263   6.956  16.468  0.00  0.00    +0.000 C 
ATOM     32  N   UNL     1       5.849   6.281  15.236  0.00  0.00    +0.000 NA
ATOM     33  C   UNL     1       5.369   4.925  15.501  0.00  0.00    +0.000 C 
ATOM     34  C   UNL     1       6.405   4.073  16.234  0.00  0.00    +0.000 C 
ATOM     35  H   UNL     1       6.644   6.244  14.597  0.00  0.00    +0.000 HD
ENDBRANCH  26  29
ENDBRANCH   5  25
TORSDOF 8
ENDMDL
