MODEL 1
REMARK VINA RESULT:      -8.3      0.000      0.000
REMARK  Name = 
REMARK  10 active torsions:
REMARK  status: ('A' for Active; 'I' for Inactive)
REMARK    1  A    between atoms: C_1  and  O_2
REMARK    2  A    between atoms: O_2  and  C_3
REMARK    3  A    between atoms: C_6  and  N_7
REMARK    4  A    between atoms: C_8  and  C_10
REMARK    5  A    between atoms: C_14  and  C_15
REMARK    6  A    between atoms: C_15  and  C_16
REMARK    7  A    between atoms: C_23  and  C_24
REMARK    8  A    between atoms: C_29  and  N_30
REMARK    9  A    between atoms: C_32  and  O_33
REMARK   10  A    between atoms: O_33  and  C_34
REMARK                            x       y       z     vdW  Elec       q    Type
REMARK                         _______ _______ _______ _____ _____    ______ ____
ROOT
ATOM      1  C   UNL     1       1.158   9.441  20.088  0.00  0.00    +0.000 A 
ATOM      2  S   UNL     1       0.772   9.593  21.746  0.00  0.00    +0.000 S 
ATOM      3  C   UNL     1       0.181  11.171  21.533  0.00  0.00    +0.000 A 
ATOM      4  N   UNL     1      -0.351  11.815  22.586  0.00  0.00    +0.000 NA
ATOM      5  C   UNL     1      -0.797  13.060  22.336  0.00  0.00    +0.000 A 
ATOM      6  C   UNL     1      -0.687  13.672  21.094  0.00  0.00    +0.000 A 
ATOM      7  C   UNL     1      -0.147  12.970  19.995  0.00  0.00    +0.000 A 
ATOM      8  C   UNL     1       0.306  11.643  20.231  0.00  0.00    +0.000 A 
ATOM      9  C   UNL     1       0.869  10.611  19.400  0.00  0.00    +0.000 A 
ENDROOT
BRANCH   1  11
ATOM     10  N   UNL     1       1.895   7.178  20.470  0.00  0.00    +0.000 N 
ATOM     11  C   UNL     1       1.687   8.189  19.541  0.00  0.00    +0.000 C 
ATOM     12  O   UNL     1       1.925   8.081  18.340  0.00  0.00    +0.000 OA
ATOM     13  H   UNL     1       1.619   7.388  21.421  0.00  0.00    +0.000 HD
BRANCH  10  17
ATOM     14  C   UNL     1       3.641   3.426  19.573  0.00  0.00    +0.000 A 
ATOM     15  C   UNL     1       2.458   3.490  20.321  0.00  0.00    +0.000 A 
ATOM     16  C   UNL     1       1.866   4.716  20.635  0.00  0.00    +0.000 A 
ATOM     17  C   UNL     1       2.463   5.907  20.243  0.00  0.00    +0.000 A 
ATOM     18  C   UNL     1       3.687   5.846  19.565  0.00  0.00    +0.000 A 
ATOM     19  C   UNL     1       4.297   4.619  19.240  0.00  0.00    +0.000 A 
BRANCH  14  21
ATOM     20  C   UNL     1       3.357   1.505  18.229  0.00  0.00    +0.000 C 
ATOM     21  O   UNL     1       4.155   2.220  19.176  0.00  0.00    +0.000 OA
ENDBRANCH  14  21
BRANCH  19  22
ATOM     22  O   UNL     1       5.491   4.791  18.591  0.00  0.00    +0.000 OA
ATOM     23  C   UNL     1       6.569   5.411  19.277  0.00  0.00    +0.000 C 
ENDBRANCH  19  22
ENDBRANCH  10  17
ENDBRANCH   1  11
BRANCH   7  24
ATOM     24  C   UNL     1      -0.117  13.633  18.645  0.00  0.00    +0.000 C 
ATOM     25  F   UNL     1       1.133  13.704  18.103  0.00  0.00    +0.000 F 
ATOM     26  F   UNL     1      -0.884  12.999  17.717  0.00  0.00    +0.000 F 
ATOM     27  F   UNL     1      -0.568  14.919  18.683  0.00  0.00    +0.000 F 
ENDBRANCH   7  24
BRANCH   9  28
ATOM     28  N   UNL     1       1.096  10.745  18.074  0.00  0.00    +0.000 N 
ATOM     29  H   UNL     1       0.505  11.252  17.424  0.00  0.00    +0.000 HD
ATOM     30  H   UNL     1       1.692  10.062  17.591  0.00  0.00    +0.000 HD
ENDBRANCH   9  28
BRANCH   5  31
ATOM     31  C   UNL     1      -1.509  13.764  23.470  0.00  0.00    +0.000 C 
BRANCH  31  32
ATOM     32  C   UNL     1      -3.012  13.629  23.481  0.00  0.00    +0.000 A 
ATOM     33  C   UNL     1      -3.627  12.606  24.217  0.00  0.00    +0.000 A 
ATOM     34  C   UNL     1      -5.019  12.539  24.304  0.00  0.00    +0.000 A 
ATOM     35  C   UNL     1      -5.810  13.491  23.661  0.00  0.00    +0.000 A 
ATOM     36  C   UNL     1      -5.210  14.505  22.918  0.00  0.00    +0.000 A 
ATOM     37  C   UNL     1      -3.819  14.573  22.826  0.00  0.00    +0.000 A 
ENDBRANCH  31  32
ENDBRANCH   5  31
TORSDOF 8
ENDMDL
MODEL 2
REMARK VINA RESULT:      -8.3      0.581      1.161
REMARK  Name = 
REMARK  10 active torsions:
REMARK  status: ('A' for Active; 'I' for Inactive)
REMARK    1  A    between atoms: C_1  and  O_2
REMARK    2  A    between atoms: O_2  and  C_3
REMARK    3  A    between atoms: C_6  and  N_7
REMARK    4  A    between atoms: C_8  and  C_10
REMARK    5  A    between atoms: C_14  and  C_15
REMARK    6  A    between atoms: C_15  and  C_16
REMARK    7  A    between atoms: C_23  and  C_24
REMARK    8  A    between atoms: C_29  and  N_30
REMARK    9  A    between atoms: C_32  and  O_33
REMARK   10  A    between atoms: O_33  and  C_34
REMARK                            x       y       z     vdW  Elec       q    Type
REMARK                         _______ _______ _______ _____ _____    ______ ____
ROOT
ATOM      1  C   UNL     1       1.199   9.181  20.226  0.00  0.00    +0.000 A 
ATOM      2  S   UNL     1       0.785   9.359  21.875  0.00  0.00    +0.000 S 
ATOM      3  C   UNL     1       0.156  10.916  21.619  0.00  0.00    +0.000 A 
ATOM      4  N   UNL     1      -0.408  11.568  22.650  0.00  0.00    +0.000 NA
ATOM      5  C   UNL     1      -0.882  12.795  22.366  0.00  0.00    +0.000 A 
ATOM      6  C   UNL     1      -0.770  13.383  21.113  0.00  0.00    +0.000 A 
ATOM      7  C   UNL     1      -0.196  12.672  20.037  0.00  0.00    +0.000 A 
ATOM      8  C   UNL     1       0.288  11.363  20.309  0.00  0.00    +0.000 A 
ATOM      9  C   UNL     1       0.889  10.328  19.509  0.00  0.00    +0.000 A 
ENDROOT
BRANCH   1  11
ATOM     10  N   UNL     1       1.852   6.898  20.638  0.00  0.00    +0.000 N 
ATOM     11  C   UNL     1       1.768   7.931  19.715  0.00  0.00    +0.000 C 
ATOM     12  O   UNL     1       2.141   7.845  18.547  0.00  0.00    +0.000 OA
ATOM     13  H   UNL     1       1.470   7.092  21.556  0.00  0.00    +0.000 HD
BRANCH  10  17
ATOM     14  C   UNL     1       3.595   3.120  19.848  0.00  0.00    +0.000 A 
ATOM     15  C   UNL     1       2.447   3.212  20.646  0.00  0.00    +0.000 A 
ATOM     16  C   UNL     1       1.857   4.446  20.926  0.00  0.00    +0.000 A 
ATOM     17  C   UNL     1       2.422   5.622  20.448  0.00  0.00    +0.000 A 
ATOM     18  C   UNL     1       3.615   5.538  19.718  0.00  0.00    +0.000 A 
ATOM     19  C   UNL     1       4.222   4.300  19.426  0.00  0.00    +0.000 A 
BRANCH  14  21
ATOM     20  C   UNL     1       3.571   1.358  18.277  0.00  0.00    +0.000 C 
ATOM     21  O   UNL     1       4.104   1.901  19.487  0.00  0.00    +0.000 OA
ENDBRANCH  14  21
BRANCH  19  22
ATOM     22  O   UNL     1       5.384   4.451  18.715  0.00  0.00    +0.000 OA
ATOM     23  C   UNL     1       5.322   4.925  17.378  0.00  0.00    +0.000 C 
ENDBRANCH  19  22
ENDBRANCH  10  17
ENDBRANCH   1  11
BRANCH   7  24
ATOM     24  C   UNL     1      -0.164  13.306  18.674  0.00  0.00    +0.000 C 
ATOM     25  F   UNL     1      -0.928  12.650  17.753  0.00  0.00    +0.000 F 
ATOM     26  F   UNL     1      -0.605  14.592  18.667  0.00  0.00    +0.000 F 
ATOM     27  F   UNL     1       1.092  13.342  18.142  0.00  0.00    +0.000 F 
ENDBRANCH   7  24
BRANCH   9  28
ATOM     28  N   UNL     1       1.132  10.438  18.183  0.00  0.00    +0.000 N 
ATOM     29  H   UNL     1       0.679  11.093  17.555  0.00  0.00    +0.000 HD
ATOM     30  H   UNL     1       1.539   9.644  17.675  0.00  0.00    +0.000 HD
ENDBRANCH   9  28
BRANCH   5  31
ATOM     31  C   UNL     1      -1.629  13.505  23.475  0.00  0.00    +0.000 C 
BRANCH  31  32
ATOM     32  C   UNL     1      -3.131  13.365  23.443  0.00  0.00    +0.000 A 
ATOM     33  C   UNL     1      -3.857  13.770  22.313  0.00  0.00    +0.000 A 
ATOM     34  C   UNL     1      -5.235  13.553  22.245  0.00  0.00    +0.000 A 
ATOM     35  C   UNL     1      -5.900  12.928  23.299  0.00  0.00    +0.000 A 
ATOM     36  C   UNL     1      -5.191  12.532  24.431  0.00  0.00    +0.000 A 
ATOM     37  C   UNL     1      -3.814  12.751  24.504  0.00  0.00    +0.000 A 
ENDBRANCH  31  32
ENDBRANCH   5  31
TORSDOF 8
ENDMDL
MODEL 3
REMARK VINA RESULT:      -8.2      5.274     11.608
REMARK  Name = 
REMARK  10 active torsions:
REMARK  status: ('A' for Active; 'I' for Inactive)
REMARK    1  A    between atoms: C_1  and  O_2
REMARK    2  A    between atoms: O_2  and  C_3
REMARK    3  A    between atoms: C_6  and  N_7
REMARK    4  A    between atoms: C_8  and  C_10
REMARK    5  A    between atoms: C_14  and  C_15
REMARK    6  A    between atoms: C_15  and  C_16
REMARK    7  A    between atoms: C_23  and  C_24
REMARK    8  A    between atoms: C_29  and  N_30
REMARK    9  A    between atoms: C_32  and  O_33
REMARK   10  A    between atoms: O_33  and  C_34
REMARK                            x       y       z     vdW  Elec       q    Type
REMARK                         _______ _______ _______ _____ _____    ______ ____
ROOT
ATOM      1  C   UNL     1       2.798   7.095  18.499  0.00  0.00    +0.000 A 
ATOM      2  S   UNL     1       3.998   7.711  17.450  0.00  0.00    +0.000 S 
ATOM      3  C   UNL     1       4.482   6.153  16.978  0.00  0.00    +0.000 A 
ATOM      4  N   UNL     1       5.439   6.023  16.043  0.00  0.00    +0.000 NA
ATOM      5  C   UNL     1       5.766   4.757  15.725  0.00  0.00    +0.000 A 
ATOM      6  C   UNL     1       5.197   3.647  16.337  0.00  0.00    +0.000 A 
ATOM      7  C   UNL     1       4.178   3.805  17.300  0.00  0.00    +0.000 A 
ATOM      8  C   UNL     1       3.798   5.134  17.632  0.00  0.00    +0.000 A 
ATOM      9  C   UNL     1       2.810   5.707  18.507  0.00  0.00    +0.000 A 
ENDROOT
BRANCH   1  11
ATOM     10  N   UNL     1       1.377   9.042  18.487  0.00  0.00    +0.000 N 
ATOM     11  C   UNL     1       1.894   7.988  19.228  0.00  0.00    +0.000 C 
ATOM     12  O   UNL     1       1.641   7.789  20.414  0.00  0.00    +0.000 OA
ATOM     13  H   UNL     1       1.637   9.064  17.509  0.00  0.00    +0.000 HD
BRANCH  10  17
ATOM     14  C   UNL     1      -1.155  12.232  19.646  0.00  0.00    +0.000 A 
ATOM     15  C   UNL     1       0.100  12.076  20.250  0.00  0.00    +0.000 A 
ATOM     16  C   UNL     1       0.951  11.028  19.889  0.00  0.00    +0.000 A 
ATOM     17  C   UNL     1       0.552  10.089  18.946  0.00  0.00    +0.000 A 
ATOM     18  C   UNL     1      -0.735  10.199  18.402  0.00  0.00    +0.000 A 
ATOM     19  C   UNL     1      -1.604  11.250  18.754  0.00  0.00    +0.000 A 
BRANCH  14  21
ATOM     20  C   UNL     1      -1.600  14.014  21.130  0.00  0.00    +0.000 C 
ATOM     21  O   UNL     1      -1.936  13.323  19.925  0.00  0.00    +0.000 OA
ENDBRANCH  14  21
BRANCH  19  22
ATOM     22  O   UNL     1      -2.813  11.156  18.115  0.00  0.00    +0.000 OA
ATOM     23  C   UNL     1      -3.240   9.895  17.620  0.00  0.00    +0.000 C 
ENDBRANCH  19  22
ENDBRANCH  10  17
ENDBRANCH   1  11
BRANCH   7  24
ATOM     24  C   UNL     1       3.526   2.582  17.884  0.00  0.00    +0.000 C 
ATOM     25  F   UNL     1       4.082   1.413  17.453  0.00  0.00    +0.000 F 
ATOM     26  F   UNL     1       3.585   2.537  19.242  0.00  0.00    +0.000 F 
ATOM     27  F   UNL     1       2.203   2.491  17.568  0.00  0.00    +0.000 F 
ENDBRANCH   7  24
BRANCH   9  28
ATOM     28  N   UNL     1       1.959   4.983  19.269  0.00  0.00    +0.000 N 
ATOM     29  H   UNL     1       1.353   4.243  18.932  0.00  0.00    +0.000 HD
ATOM     30  H   UNL     1       1.630   5.365  20.164  0.00  0.00    +0.000 HD
ENDBRANCH   9  28
BRANCH   5  31
ATOM     31  C   UNL     1       6.752   4.578  14.591  0.00  0.00    +0.000 C 
BRANCH  31  32
ATOM     32  C   UNL     1       6.207   3.910  13.352  0.00  0.00    +0.000 A 
ATOM     33  C   UNL     1       7.032   3.093  12.565  0.00  0.00    +0.000 A 
ATOM     34  C   UNL     1       6.504   2.400  11.474  0.00  0.00    +0.000 A 
ATOM     35  C   UNL     1       5.150   2.512  11.159  0.00  0.00    +0.000 A 
ATOM     36  C   UNL     1       4.324   3.329  11.927  0.00  0.00    +0.000 A 
ATOM     37  C   UNL     1       4.849   4.026  13.016  0.00  0.00    +0.000 A 
ENDBRANCH  31  32
ENDBRANCH   5  31
TORSDOF 8
ENDMDL
MODEL 4
REMARK VINA RESULT:      -8.2      1.712      2.363
REMARK  Name = 
REMARK  10 active torsions:
REMARK  status: ('A' for Active; 'I' for Inactive)
REMARK    1  A    between atoms: C_1  and  O_2
REMARK    2  A    between atoms: O_2  and  C_3
REMARK    3  A    between atoms: C_6  and  N_7
REMARK    4  A    between atoms: C_8  and  C_10
REMARK    5  A    between atoms: C_14  and  C_15
REMARK    6  A    between atoms: C_15  and  C_16
REMARK    7  A    between atoms: C_23  and  C_24
REMARK    8  A    between atoms: C_29  and  N_30
REMARK    9  A    between atoms: C_32  and  O_33
REMARK   10  A    between atoms: O_33  and  C_34
REMARK                            x       y       z     vdW  Elec       q    Type
REMARK                         _______ _______ _______ _____ _____    ______ ____
ROOT
ATOM      1  C   UNL     1       1.165   9.887  19.309  0.00  0.00    +0.000 A 
ATOM      2  S   UNL     1       0.408   9.321  20.733  0.00  0.00    +0.000 S 
ATOM      3  C   UNL     1      -0.078  10.887  21.178  0.00  0.00    +0.000 A 
ATOM      4  N   UNL     1      -0.825  11.048  22.284  0.00  0.00    +0.000 NA
ATOM      5  C   UNL     1      -1.169  12.317  22.568  0.00  0.00    +0.000 A 
ATOM      6  C   UNL     1      -0.757  13.406  21.809  0.00  0.00    +0.000 A 
ATOM      7  C   UNL     1       0.007  13.213  20.638  0.00  0.00    +0.000 A 
ATOM      8  C   UNL     1       0.359  11.876  20.305  0.00  0.00    +0.000 A 
ATOM      9  C   UNL     1       1.074  11.269  19.213  0.00  0.00    +0.000 A 
ENDROOT
BRANCH   1  11
ATOM     10  N   UNL     1       2.210   7.757  18.888  0.00  0.00    +0.000 N 
ATOM     11  C   UNL     1       1.776   8.961  18.352  0.00  0.00    +0.000 C 
ATOM     12  O   UNL     1       1.884   9.268  17.167  0.00  0.00    +0.000 OA
ATOM     13  H   UNL     1       2.022   7.618  19.874  0.00  0.00    +0.000 HD
BRANCH  10  17
ATOM     14  C   UNL     1       4.211   4.503  17.060  0.00  0.00    +0.000 A 
ATOM     15  C   UNL     1       4.830   5.758  17.133  0.00  0.00    +0.000 A 
ATOM     16  C   UNL     1       4.189   6.848  17.726  0.00  0.00    +0.000 A 
ATOM     17  C   UNL     1       2.898   6.720  18.224  0.00  0.00    +0.000 A 
ATOM     18  C   UNL     1       2.248   5.488  18.078  0.00  0.00    +0.000 A 
ATOM     19  C   UNL     1       2.881   4.379  17.484  0.00  0.00    +0.000 A 
BRANCH  14  21
ATOM     20  C   UNL     1       5.928   3.713  15.645  0.00  0.00    +0.000 C 
ATOM     21  O   UNL     1       4.887   3.413  16.578  0.00  0.00    +0.000 OA
ENDBRANCH  14  21
BRANCH  19  22
ATOM     22  O   UNL     1       2.060   3.283  17.432  0.00  0.00    +0.000 OA
ATOM     23  C   UNL     1       1.927   2.460  18.581  0.00  0.00    +0.000 C 
ENDBRANCH  19  22
ENDBRANCH  10  17
ENDBRANCH   1  11
BRANCH   7  24
ATOM     24  C   UNL     1       0.367  14.405  19.794  0.00  0.00    +0.000 C 
ATOM     25  F   UNL     1      -0.061  15.590  20.318  0.00  0.00    +0.000 F 
ATOM     26  F   UNL     1       1.707  14.549  19.609  0.00  0.00    +0.000 F 
ATOM     27  F   UNL     1      -0.175  14.345  18.544  0.00  0.00    +0.000 F 
ENDBRANCH   7  24
BRANCH   9  28
ATOM     28  N   UNL     1       1.607  11.958  18.178  0.00  0.00    +0.000 N 
ATOM     29  H   UNL     1       1.122  12.199  17.321  0.00  0.00    +0.000 HD
ATOM     30  H   UNL     1       2.627  11.981  18.058  0.00  0.00    +0.000 HD
ENDBRANCH   9  28
BRANCH   5  31
ATOM     31  C   UNL     1      -2.108  12.518  23.738  0.00  0.00    +0.000 C 
BRANCH  31  32
ATOM     32  C   UNL     1      -3.576  12.583  23.392  0.00  0.00    +0.000 A 
ATOM     33  C   UNL     1      -4.542  12.635  24.407  0.00  0.00    +0.000 A 
ATOM     34  C   UNL     1      -5.893  12.791  24.088  0.00  0.00    +0.000 A 
ATOM     35  C   UNL     1      -6.291  12.898  22.757  0.00  0.00    +0.000 A 
ATOM     36  C   UNL     1      -5.342  12.836  21.739  0.00  0.00    +0.000 A 
ATOM     37  C   UNL     1      -3.991  12.677  22.055  0.00  0.00    +0.000 A 
ENDBRANCH  31  32
ENDBRANCH   5  31
TORSDOF 8
ENDMDL
MODEL 5
REMARK VINA RESULT:      -8.1      5.262     11.540
REMARK  Name = 
REMARK  10 active torsions:
REMARK  status: ('A' for Active; 'I' for Inactive)
REMARK    1  A    between atoms: C_1  and  O_2
REMARK    2  A    between atoms: O_2  and  C_3
REMARK    3  A    between atoms: C_6  and  N_7
REMARK    4  A    between atoms: C_8  and  C_10
REMARK    5  A    between atoms: C_14  and  C_15
REMARK    6  A    between atoms: C_15  and  C_16
REMARK    7  A    between atoms: C_23  and  C_24
REMARK    8  A    between atoms: C_29  and  N_30
REMARK    9  A    between atoms: C_32  and  O_33
REMARK   10  A    between atoms: O_33  and  C_34
REMARK                            x       y       z     vdW  Elec       q    Type
REMARK                         _______ _______ _______ _____ _____    ______ ____
ROOT
ATOM      1  C   UNL     1       2.824   7.008  18.498  0.00  0.00    +0.000 A 
ATOM      2  S   UNL     1       3.983   7.637  17.410  0.00  0.00    +0.000 S 
ATOM      3  C   UNL     1       4.456   6.085  16.910  0.00  0.00    +0.000 A 
ATOM      4  N   UNL     1       5.378   5.965  15.939  0.00  0.00    +0.000 NA
ATOM      5  C   UNL     1       5.699   4.704  15.600  0.00  0.00    +0.000 A 
ATOM      6  C   UNL     1       5.158   3.587  16.223  0.00  0.00    +0.000 A 
ATOM      7  C   UNL     1       4.173   3.733  17.224  0.00  0.00    +0.000 A 
ATOM      8  C   UNL     1       3.800   5.058  17.579  0.00  0.00    +0.000 A 
ATOM      9  C   UNL     1       2.842   5.620  18.495  0.00  0.00    +0.000 A 
ENDROOT
BRANCH   1  11
ATOM     10  N   UNL     1       1.487   9.011  18.585  0.00  0.00    +0.000 N 
ATOM     11  C   UNL     1       1.943   7.891  19.266  0.00  0.00    +0.000 C 
ATOM     12  O   UNL     1       1.657   7.628  20.432  0.00  0.00    +0.000 OA
ATOM     13  H   UNL     1       1.769   9.084  17.615  0.00  0.00    +0.000 HD
BRANCH  10  17
ATOM     14  C   UNL     1      -0.797  12.125  20.321  0.00  0.00    +0.000 A 
ATOM     15  C   UNL     1      -1.385  11.256  19.393  0.00  0.00    +0.000 A 
ATOM     16  C   UNL     1      -0.651  10.225  18.802  0.00  0.00    +0.000 A 
ATOM     17  C   UNL     1       0.698  10.062  19.095  0.00  0.00    +0.000 A 
ATOM     18  C   UNL     1       1.305  10.981  19.960  0.00  0.00    +0.000 A 
ATOM     19  C   UNL     1       0.579  12.026  20.565  0.00  0.00    +0.000 A 
BRANCH  14  21
ATOM     20  C   UNL     1      -1.580  14.353  20.361  0.00  0.00    +0.000 C 
ATOM     21  O   UNL     1      -1.549  13.063  20.978  0.00  0.00    +0.000 OA
ENDBRANCH  14  21
BRANCH  19  22
ATOM     22  O   UNL     1       1.371  12.811  21.362  0.00  0.00    +0.000 OA
ATOM     23  C   UNL     1       2.263  13.736  20.757  0.00  0.00    +0.000 C 
ENDBRANCH  19  22
ENDBRANCH  10  17
ENDBRANCH   1  11
BRANCH   7  24
ATOM     24  C   UNL     1       3.548   2.502  17.822  0.00  0.00    +0.000 C 
ATOM     25  F   UNL     1       2.213   2.393  17.565  0.00  0.00    +0.000 F 
ATOM     26  F   UNL     1       4.104   1.344  17.374  0.00  0.00    +0.000 F 
ATOM     27  F   UNL     1       3.659   2.465  19.180  0.00  0.00    +0.000 F 
ENDBRANCH   7  24
BRANCH   9  28
ATOM     28  N   UNL     1       2.022   4.886  19.281  0.00  0.00    +0.000 N 
ATOM     29  H   UNL     1       2.224   3.958  19.636  0.00  0.00    +0.000 HD
ATOM     30  H   UNL     1       1.014   5.083  19.286  0.00  0.00    +0.000 HD
ENDBRANCH   9  28
BRANCH   5  31
ATOM     31  C   UNL     1       6.644   4.537  14.429  0.00  0.00    +0.000 C 
BRANCH  31  32
ATOM     32  C   UNL     1       6.068   3.845  13.219  0.00  0.00    +0.000 A 
ATOM     33  C   UNL     1       6.828   2.901  12.513  0.00  0.00    +0.000 A 
ATOM     34  C   UNL     1       6.262   2.191  11.451  0.00  0.00    +0.000 A 
ATOM     35  C   UNL     1       4.934   2.412  11.088  0.00  0.00    +0.000 A 
ATOM     36  C   UNL     1       4.174   3.355  11.774  0.00  0.00    +0.000 A 
ATOM     37  C   UNL     1       4.737   4.069  12.833  0.00  0.00    +0.000 A 
ENDBRANCH  31  32
ENDBRANCH   5  31
TORSDOF 8
ENDMDL
MODEL 6
REMARK VINA RESULT:      -8.1      0.765      1.966
REMARK  Name = 
REMARK  10 active torsions:
REMARK  status: ('A' for Active; 'I' for Inactive)
REMARK    1  A    between atoms: C_1  and  O_2
REMARK    2  A    between atoms: O_2  and  C_3
REMARK    3  A    between atoms: C_6  and  N_7
REMARK    4  A    between atoms: C_8  and  C_10
REMARK    5  A    between atoms: C_14  and  C_15
REMARK    6  A    between atoms: C_15  and  C_16
REMARK    7  A    between atoms: C_23  and  C_24
REMARK    8  A    between atoms: C_29  and  N_30
REMARK    9  A    between atoms: C_32  and  O_33
REMARK   10  A    between atoms: O_33  and  C_34
REMARK                            x       y       z     vdW  Elec       q    Type
REMARK                         _______ _______ _______ _____ _____    ______ ____
ROOT
ATOM      1  C   UNL     1       1.037   9.739  20.058  0.00  0.00    +0.000 A 
ATOM      2  S   UNL     1       0.542   9.744  21.694  0.00  0.00    +0.000 S 
ATOM      3  C   UNL     1       0.048  11.366  21.610  0.00  0.00    +0.000 A 
ATOM      4  N   UNL     1      -0.525  11.929  22.688  0.00  0.00    +0.000 NA
ATOM      5  C   UNL     1      -0.888  13.217  22.543  0.00  0.00    +0.000 A 
ATOM      6  C   UNL     1      -0.660  13.945  21.383  0.00  0.00    +0.000 A 
ATOM      7  C   UNL     1      -0.079  13.329  20.254  0.00  0.00    +0.000 A 
ATOM      8  C   UNL     1       0.288  11.961  20.377  0.00  0.00    +0.000 A 
ATOM      9  C   UNL     1       0.856  10.989  19.480  0.00  0.00    +0.000 A 
ENDROOT
BRANCH   1  11
ATOM     10  N   UNL     1       1.845   7.480  20.283  0.00  0.00    +0.000 N 
ATOM     11  C   UNL     1       1.540   8.521  19.418  0.00  0.00    +0.000 C 
ATOM     12  O   UNL     1       1.674   8.466  18.197  0.00  0.00    +0.000 OA
ATOM     13  H   UNL     1       1.648   7.647  21.263  0.00  0.00    +0.000 HD
BRANCH  10  17
ATOM     14  C   UNL     1       3.513   3.664  19.518  0.00  0.00    +0.000 A 
ATOM     15  C   UNL     1       4.153   4.818  19.048  0.00  0.00    +0.000 A 
ATOM     16  C   UNL     1       3.620   6.088  19.282  0.00  0.00    +0.000 A 
ATOM     17  C   UNL     1       2.414   6.232  19.957  0.00  0.00    +0.000 A 
ATOM     18  C   UNL     1       1.733   5.075  20.356  0.00  0.00    +0.000 A 
ATOM     19  C   UNL     1       2.258   3.787  20.128  0.00  0.00    +0.000 A 
BRANCH  14  21
ATOM     20  C   UNL     1       3.588   1.640  18.304  0.00  0.00    +0.000 C 
ATOM     21  O   UNL     1       4.097   2.432  19.380  0.00  0.00    +0.000 OA
ENDBRANCH  14  21
BRANCH  19  22
ATOM     22  O   UNL     1       1.423   2.802  20.586  0.00  0.00    +0.000 OA
ATOM     23  C   UNL     1       1.496   2.409  21.949  0.00  0.00    +0.000 C 
ENDBRANCH  19  22
ENDBRANCH  10  17
ENDBRANCH   1  11
BRANCH   7  24
ATOM     24  C   UNL     1       0.080  14.123  18.986  0.00  0.00    +0.000 C 
ATOM     25  F   UNL     1      -0.585  13.587  17.923  0.00  0.00    +0.000 F 
ATOM     26  F   UNL     1      -0.370  15.402  19.092  0.00  0.00    +0.000 F 
ATOM     27  F   UNL     1       1.380  14.220  18.588  0.00  0.00    +0.000 F 
ENDBRANCH   7  24
BRANCH   9  28
ATOM     28  N   UNL     1       1.183  11.243  18.193  0.00  0.00    +0.000 N 
ATOM     29  H   UNL     1       0.543  11.570  17.478  0.00  0.00    +0.000 HD
ATOM     30  H   UNL     1       2.016  10.801  17.785  0.00  0.00    +0.000 HD
ENDBRANCH   9  28
BRANCH   5  31
ATOM     31  C   UNL     1      -1.643  13.841  23.697  0.00  0.00    +0.000 C 
BRANCH  31  32
ATOM     32  C   UNL     1      -3.142  13.667  23.666  0.00  0.00    +0.000 A 
ATOM     33  C   UNL     1      -3.922  14.389  22.751  0.00  0.00    +0.000 A 
ATOM     34  C   UNL     1      -5.296  14.157  22.658  0.00  0.00    +0.000 A 
ATOM     35  C   UNL     1      -5.903  13.202  23.473  0.00  0.00    +0.000 A 
ATOM     36  C   UNL     1      -5.141  12.487  24.393  0.00  0.00    +0.000 A 
ATOM     37  C   UNL     1      -3.768  12.719  24.491  0.00  0.00    +0.000 A 
ENDBRANCH  31  32
ENDBRANCH   5  31
TORSDOF 8
ENDMDL
MODEL 7
REMARK VINA RESULT:      -8.1      1.740      2.455
REMARK  Name = 
REMARK  10 active torsions:
REMARK  status: ('A' for Active; 'I' for Inactive)
REMARK    1  A    between atoms: C_1  and  O_2
REMARK    2  A    between atoms: O_2  and  C_3
REMARK    3  A    between atoms: C_6  and  N_7
REMARK    4  A    between atoms: C_8  and  C_10
REMARK    5  A    between atoms: C_14  and  C_15
REMARK    6  A    between atoms: C_15  and  C_16
REMARK    7  A    between atoms: C_23  and  C_24
REMARK    8  A    between atoms: C_29  and  N_30
REMARK    9  A    between atoms: C_32  and  O_33
REMARK   10  A    between atoms: O_33  and  C_34
REMARK                            x       y       z     vdW  Elec       q    Type
REMARK                         _______ _______ _______ _____ _____    ______ ____
ROOT
ATOM      1  C   UNL     1       1.156   9.941  19.334  0.00  0.00    +0.000 A 
ATOM      2  S   UNL     1       0.321   9.394  20.721  0.00  0.00    +0.000 S 
ATOM      3  C   UNL     1      -0.086  10.977  21.183  0.00  0.00    +0.000 A 
ATOM      4  N   UNL     1      -0.858  11.161  22.268  0.00  0.00    +0.000 NA
ATOM      5  C   UNL     1      -1.136  12.443  22.569  0.00  0.00    +0.000 A 
ATOM      6  C   UNL     1      -0.637  13.519  21.846  0.00  0.00    +0.000 A 
ATOM      7  C   UNL     1       0.153  13.304  20.695  0.00  0.00    +0.000 A 
ATOM      8  C   UNL     1       0.436  11.955  20.345  0.00  0.00    +0.000 A 
ATOM      9  C   UNL     1       1.149  11.328  19.263  0.00  0.00    +0.000 A 
ENDROOT
BRANCH   1  11
ATOM     10  N   UNL     1       2.198   7.807  18.923  0.00  0.00    +0.000 N 
ATOM     11  C   UNL     1       1.742   8.999  18.377  0.00  0.00    +0.000 C 
ATOM     12  O   UNL     1       1.813   9.283  17.184  0.00  0.00    +0.000 OA
ATOM     13  H   UNL     1       2.041   7.687  19.917  0.00  0.00    +0.000 HD
BRANCH  10  17
ATOM     14  C   UNL     1       4.147   4.523  17.093  0.00  0.00    +0.000 A 
ATOM     15  C   UNL     1       4.794   5.762  17.186  0.00  0.00    +0.000 A 
ATOM     16  C   UNL     1       4.171   6.862  17.780  0.00  0.00    +0.000 A 
ATOM     17  C   UNL     1       2.871   6.761  18.259  0.00  0.00    +0.000 A 
ATOM     18  C   UNL     1       2.193   5.546  18.092  0.00  0.00    +0.000 A 
ATOM     19  C   UNL     1       2.808   4.427  17.497  0.00  0.00    +0.000 A 
BRANCH  14  21
ATOM     20  C   UNL     1       5.915   3.709  15.756  0.00  0.00    +0.000 C 
ATOM     21  O   UNL     1       4.804   3.423  16.609  0.00  0.00    +0.000 OA
ENDBRANCH  14  21
BRANCH  19  22
ATOM     22  O   UNL     1       1.962   3.352  17.423  0.00  0.00    +0.000 OA
ATOM     23  C   UNL     1       1.831   2.494  18.547  0.00  0.00    +0.000 C 
ENDBRANCH  19  22
ENDBRANCH  10  17
ENDBRANCH   1  11
BRANCH   7  24
ATOM     24  C   UNL     1       0.609  14.488  19.888  0.00  0.00    +0.000 C 
ATOM     25  F   UNL     1       0.132  14.491  18.610  0.00  0.00    +0.000 F 
ATOM     26  F   UNL     1       0.233  15.681  20.423  0.00  0.00    +0.000 F 
ATOM     27  F   UNL     1       1.966  14.548  19.767  0.00  0.00    +0.000 F 
ENDBRANCH   7  24
BRANCH   9  28
ATOM     28  N   UNL     1       1.755  12.003  18.261  0.00  0.00    +0.000 N 
ATOM     29  H   UNL     1       1.808  13.012  18.180  0.00  0.00    +0.000 HD
ATOM     30  H   UNL     1       1.902  11.541  17.355  0.00  0.00    +0.000 HD
ENDBRANCH   9  28
BRANCH   5  31
ATOM     31  C   UNL     1      -2.099  12.677  23.712  0.00  0.00    +0.000 C 
BRANCH  31  32
ATOM     32  C   UNL     1      -3.555  12.780  23.328  0.00  0.00    +0.000 A 
ATOM     33  C   UNL     1      -3.934  12.766  21.978  0.00  0.00    +0.000 A 
ATOM     34  C   UNL     1      -5.286  12.765  21.625  0.00  0.00    +0.000 A 
ATOM     35  C   UNL     1      -6.269  12.774  22.613  0.00  0.00    +0.000 A 
ATOM     36  C   UNL     1      -5.904  12.800  23.957  0.00  0.00    +0.000 A 
ATOM     37  C   UNL     1      -4.554  12.805  24.313  0.00  0.00    +0.000 A 
ENDBRANCH  31  32
ENDBRANCH   5  31
TORSDOF 8
ENDMDL
MODEL 8
REMARK VINA RESULT:      -8.1      5.229     11.509
REMARK  Name = 
REMARK  10 active torsions:
REMARK  status: ('A' for Active; 'I' for Inactive)
REMARK    1  A    between atoms: C_1  and  O_2
REMARK    2  A    between atoms: O_2  and  C_3
REMARK    3  A    between atoms: C_6  and  N_7
REMARK    4  A    between atoms: C_8  and  C_10
REMARK    5  A    between atoms: C_14  and  C_15
REMARK    6  A    between atoms: C_15  and  C_16
REMARK    7  A    between atoms: C_23  and  C_24
REMARK    8  A    between atoms: C_29  and  N_30
REMARK    9  A    between atoms: C_32  and  O_33
REMARK   10  A    between atoms: O_33  and  C_34
REMARK                            x       y       z     vdW  Elec       q    Type
REMARK                         _______ _______ _______ _____ _____    ______ ____
ROOT
ATOM      1  C   UNL     1       2.740   7.098  18.576  0.00  0.00    +0.000 A 
ATOM      2  S   UNL     1       3.901   7.739  17.498  0.00  0.00    +0.000 S 
ATOM      3  C   UNL     1       4.403   6.191  17.012  0.00  0.00    +0.000 A 
ATOM      4  N   UNL     1       5.338   6.080  16.053  0.00  0.00    +0.000 NA
ATOM      5  C   UNL     1       5.683   4.822  15.724  0.00  0.00    +0.000 A 
ATOM      6  C   UNL     1       5.152   3.700  16.349  0.00  0.00    +0.000 A 
ATOM      7  C   UNL     1       4.154   3.837  17.337  0.00  0.00    +0.000 A 
ATOM      8  C   UNL     1       3.756   5.158  17.681  0.00  0.00    +0.000 A 
ATOM      9  C   UNL     1       2.779   5.710  18.582  0.00  0.00    +0.000 A 
ENDROOT
BRANCH   1  11
ATOM     10  N   UNL     1       1.375   9.083  18.638  0.00  0.00    +0.000 N 
ATOM     11  C   UNL     1       1.836   7.971  19.329  0.00  0.00    +0.000 C 
ATOM     12  O   UNL     1       1.537   7.709  20.492  0.00  0.00    +0.000 OA
ATOM     13  H   UNL     1       1.669   9.156  17.672  0.00  0.00    +0.000 HD
BRANCH  10  17
ATOM     14  C   UNL     1      -0.984  12.164  20.333  0.00  0.00    +0.000 A 
ATOM     15  C   UNL     1      -1.525  11.323  19.352  0.00  0.00    +0.000 A 
ATOM     16  C   UNL     1      -0.766  10.304  18.773  0.00  0.00    +0.000 A 
ATOM     17  C   UNL     1       0.564  10.125  19.133  0.00  0.00    +0.000 A 
ATOM     18  C   UNL     1       1.129  11.016  20.055  0.00  0.00    +0.000 A 
ATOM     19  C   UNL     1       0.377  12.049  20.648  0.00  0.00    +0.000 A 
BRANCH  14  21
ATOM     20  C   UNL     1      -2.410  12.617  22.160  0.00  0.00    +0.000 C 
ATOM     21  O   UNL     1      -1.766  13.089  20.974  0.00  0.00    +0.000 OA
ENDBRANCH  14  21
BRANCH  19  22
ATOM     22  O   UNL     1       1.129  12.807  21.506  0.00  0.00    +0.000 OA
ATOM     23  C   UNL     1       1.652  14.049  21.058  0.00  0.00    +0.000 C 
ENDBRANCH  19  22
ENDBRANCH  10  17
ENDBRANCH   1  11
BRANCH   7  24
ATOM     24  C   UNL     1       3.542   2.600  17.936  0.00  0.00    +0.000 C 
ATOM     25  F   UNL     1       3.674   2.531  19.292  0.00  0.00    +0.000 F 
ATOM     26  F   UNL     1       2.208   2.487  17.692  0.00  0.00    +0.000 F 
ATOM     27  F   UNL     1       4.104   1.453  17.459  0.00  0.00    +0.000 F 
ENDBRANCH   7  24
BRANCH   9  28
ATOM     28  N   UNL     1       1.962   4.968  19.364  0.00  0.00    +0.000 N 
ATOM     29  H   UNL     1       1.432   5.314  20.156  0.00  0.00    +0.000 HD
ATOM     30  H   UNL     1       2.093   3.950  19.410  0.00  0.00    +0.000 HD
ENDBRANCH   9  28
BRANCH   5  31
ATOM     31  C   UNL     1       6.643   4.663  14.565  0.00  0.00    +0.000 C 
BRANCH  31  32
ATOM     32  C   UNL     1       6.123   3.872  13.390  0.00  0.00    +0.000 A 
ATOM     33  C   UNL     1       4.777   3.972  13.008  0.00  0.00    +0.000 A 
ATOM     34  C   UNL     1       4.318   3.315  11.865  0.00  0.00    +0.000 A 
ATOM     35  C   UNL     1       5.196   2.556  11.091  0.00  0.00    +0.000 A 
ATOM     36  C   UNL     1       6.532   2.440  11.468  0.00  0.00    +0.000 A 
ATOM     37  C   UNL     1       6.993   3.093  12.612  0.00  0.00    +0.000 A 
ENDBRANCH  31  32
ENDBRANCH   5  31
TORSDOF 8
ENDMDL
MODEL 9
REMARK VINA RESULT:      -8.1      5.286     11.640
REMARK  Name = 
REMARK  10 active torsions:
REMARK  status: ('A' for Active; 'I' for Inactive)
REMARK    1  A    between atoms: C_1  and  O_2
REMARK    2  A    between atoms: O_2  and  C_3
REMARK    3  A    between atoms: C_6  and  N_7
REMARK    4  A    between atoms: C_8  and  C_10
REMARK    5  A    between atoms: C_14  and  C_15
REMARK    6  A    between atoms: C_15  and  C_16
REMARK    7  A    between atoms: C_23  and  C_24
REMARK    8  A    between atoms: C_29  and  N_30
REMARK    9  A    between atoms: C_32  and  O_33
REMARK   10  A    between atoms: O_33  and  C_34
REMARK                            x       y       z     vdW  Elec       q    Type
REMARK                         _______ _______ _______ _____ _____    ______ ____
ROOT
ATOM      1  C   UNL     1       2.776   7.124  18.490  0.00  0.00    +0.000 A 
ATOM      2  S   UNL     1       3.948   7.738  17.408  0.00  0.00    +0.000 S 
ATOM      3  C   UNL     1       4.426   6.179  16.934  0.00  0.00    +0.000 A 
ATOM      4  N   UNL     1       5.359   6.047  15.976  0.00  0.00    +0.000 NA
ATOM      5  C   UNL     1       5.683   4.780  15.656  0.00  0.00    +0.000 A 
ATOM      6  C   UNL     1       5.134   3.672  16.288  0.00  0.00    +0.000 A 
ATOM      7  C   UNL     1       4.137   3.832  17.275  0.00  0.00    +0.000 A 
ATOM      8  C   UNL     1       3.761   5.162  17.609  0.00  0.00    +0.000 A 
ATOM      9  C   UNL     1       2.793   5.736  18.506  0.00  0.00    +0.000 A 
ENDROOT
BRANCH   1  11
ATOM     10  N   UNL     1       1.342   9.061  18.501  0.00  0.00    +0.000 N 
ATOM     11  C   UNL     1       1.887   8.018  19.236  0.00  0.00    +0.000 C 
ATOM     12  O   UNL     1       1.669   7.828  20.431  0.00  0.00    +0.000 OA
ATOM     13  H   UNL     1       1.575   9.076  17.515  0.00  0.00    +0.000 HD
BRANCH  10  17
ATOM     14  C   UNL     1      -1.140  12.275  19.703  0.00  0.00    +0.000 A 
ATOM     15  C   UNL     1       0.020  11.972  20.429  0.00  0.00    +0.000 A 
ATOM     16  C   UNL     1       0.851  10.914  20.056  0.00  0.00    +0.000 A 
ATOM     17  C   UNL     1       0.524  10.108  18.973  0.00  0.00    +0.000 A 
ATOM     18  C   UNL     1      -0.677  10.359  18.296  0.00  0.00    +0.000 A 
ATOM     19  C   UNL     1      -1.526  11.424  18.659  0.00  0.00    +0.000 A 
BRANCH  14  21
ATOM     20  C   UNL     1      -1.544  14.025  21.235  0.00  0.00    +0.000 C 
ATOM     21  O   UNL     1      -1.890  13.380  20.007  0.00  0.00    +0.000 OA
ENDBRANCH  14  21
BRANCH  19  22
ATOM     22  O   UNL     1      -2.648  11.478  17.875  0.00  0.00    +0.000 OA
ATOM     23  C   UNL     1      -3.419  10.300  17.683  0.00  0.00    +0.000 C 
ENDBRANCH  19  22
ENDBRANCH  10  17
ENDBRANCH   1  11
BRANCH   7  24
ATOM     24  C   UNL     1       3.504   2.610  17.881  0.00  0.00    +0.000 C 
ATOM     25  F   UNL     1       3.608   2.563  19.241  0.00  0.00    +0.000 F 
ATOM     26  F   UNL     1       2.175   2.501  17.612  0.00  0.00    +0.000 F 
ATOM     27  F   UNL     1       4.068   1.451  17.435  0.00  0.00    +0.000 F 
ENDBRANCH   7  24
BRANCH   9  28
ATOM     28  N   UNL     1       1.963   5.013  19.292  0.00  0.00    +0.000 N 
ATOM     29  H   UNL     1       1.342   4.279  18.972  0.00  0.00    +0.000 HD
ATOM     30  H   UNL     1       1.668   5.392  20.200  0.00  0.00    +0.000 HD
ENDBRANCH   9  28
BRANCH   5  31
ATOM     31  C   UNL     1       6.642   4.598  14.499  0.00  0.00    +0.000 C 
BRANCH  31  32
ATOM     32  C   UNL     1       6.109   3.807  13.329  0.00  0.00    +0.000 A 
ATOM     33  C   UNL     1       4.771   3.943  12.932  0.00  0.00    +0.000 A 
ATOM     34  C   UNL     1       4.303   3.284  11.793  0.00  0.00    +0.000 A 
ATOM     35  C   UNL     1       5.165   2.490  11.038  0.00  0.00    +0.000 A 
ATOM     36  C   UNL     1       6.493   2.339  11.429  0.00  0.00    +0.000 A 
ATOM     37  C   UNL     1       6.963   2.993  12.569  0.00  0.00    +0.000 A 
ENDBRANCH  31  32
ENDBRANCH   5  31
TORSDOF 8
ENDMDL
