MODEL 1
REMARK VINA RESULT:      -7.5      0.000      0.000
REMARK  Name = 
REMARK  8 active torsions:
REMARK  status: ('A' for Active; 'I' for Inactive)
REMARK    1  A    between atoms: C_1  and  N_2
REMARK    2  A    between atoms: N_2  and  C_3
REMARK    3  A    between atoms: N_2  and  C_4
REMARK    4  A    between atoms: C_4  and  C_5
REMARK    5  A    between atoms: C_5  and  S_6
REMARK    6  A    between atoms: S_6  and  C_8
REMARK    7  A    between atoms: C_11  and  C_12
REMARK    8  A    between atoms: CB_18  and  CG_19
REMARK                            x       y       z     vdW  Elec       q    Type
REMARK                         _______ _______ _______ _____ _____    ______ ____
ROOT
ATOM      1  C   UNK A   1       1.364   8.233  21.412  0.00  0.00    +0.000 C 
ATOM      2  C   UNK A   1       0.516   9.277  21.390  0.00  0.00    +0.000 A 
ATOM      3  N   UNK A   1      -0.048   9.768  20.237  0.00  0.00    +0.000 N 
ATOM      4  C   PHE A   2      -0.919  10.819  20.165  0.00  0.00    +0.000 A 
ATOM      5  O   PHE A   2      -1.392  11.179  19.093  0.00  0.00    +0.000 OA
ATOM      6  CA  PHE A   2      -1.232  11.491  21.475  0.00  0.00    +0.000 A 
ATOM      7  CB  PHE A   2      -2.057  12.552  21.449  0.00  0.00    +0.000 C 
ATOM      8  N   PHE A   2      -0.662  11.009  22.630  0.00  0.00    +0.000 N 
ATOM      9  C   UNK A   1       0.190   9.939  22.703  0.00  0.00    +0.000 A 
ATOM     10  O   UNK A   1       0.657   9.569  23.775  0.00  0.00    +0.000 OA
ATOM     11  H   UNK A   1       0.162   9.327  19.350  0.00  0.00    +0.000 HD
ATOM     12  H   PHE A   2      -0.871  11.462  23.511  0.00  0.00    +0.000 HD
ENDROOT
BRANCH   7  13
ATOM     13  CG  PHE A   2      -2.425  13.357  22.614  0.00  0.00    +0.000 A 
ATOM     14  CD1 PHE A   2      -3.531  12.992  23.388  0.00  0.00    +0.000 A 
ATOM     15  CE1 PHE A   2      -3.875  13.740  24.516  0.00  0.00    +0.000 A 
ATOM     16  CZ  PHE A   2      -3.116  14.854  24.870  0.00  0.00    +0.000 A 
ATOM     17  CE2 PHE A   2      -2.021  15.229  24.092  0.00  0.00    +0.000 A 
ATOM     18  CD2 PHE A   2      -1.676  14.484  22.962  0.00  0.00    +0.000 A 
ENDBRANCH   7  13
BRANCH   1  22
ATOM     19  C   UNK A   1       2.560   5.920  18.567  0.00  0.00    +0.000 A 
ATOM     20  C   UNK A   1       2.622   7.200  18.070  0.00  0.00    +0.000 A 
ATOM     21  C   UNK A   1       2.185   8.159  19.029  0.00  0.00    +0.000 A 
ATOM     22  C   UNK A   1       1.809   7.583  20.229  0.00  0.00    +0.000 A 
ATOM     23  S   UNK A   1       1.975   5.872  20.165  0.00  0.00    +0.000 S 
BRANCH  19  24
ATOM     24  S   UNK A   1       3.132   4.520  17.693  0.00  0.00    +0.000 S 
ATOM     25  O   UNK A   1       3.100   3.312  18.697  0.00  0.00    +0.000 OA
BRANCH  24  26
ATOM     26  C   UNK A   1       4.870   5.017  17.443  0.00  0.00    +0.000 C 
BRANCH  26  27
ATOM     27  C   UNK A   1       5.614   4.961  18.784  0.00  0.00    +0.000 C 
BRANCH  27  29
ATOM     28  C   UNK A   1       7.442   4.546  17.272  0.00  0.00    +0.000 C 
ATOM     29  N   UNK A   1       7.077   4.770  18.677  0.00  0.00    +0.000 NA
ATOM     30  C   UNK A   1       7.837   5.902  19.204  0.00  0.00    +0.000 C 
ENDBRANCH  27  29
ENDBRANCH  26  27
ENDBRANCH  24  26
ENDBRANCH  19  24
ENDBRANCH   1  22
TORSDOF 6
ENDMDL
MODEL 2
REMARK VINA RESULT:      -7.4      3.829      4.810
REMARK  Name = 
REMARK  8 active torsions:
REMARK  status: ('A' for Active; 'I' for Inactive)
REMARK    1  A    between atoms: C_1  and  N_2
REMARK    2  A    between atoms: N_2  and  C_3
REMARK    3  A    between atoms: N_2  and  C_4
REMARK    4  A    between atoms: C_4  and  C_5
REMARK    5  A    between atoms: C_5  and  S_6
REMARK    6  A    between atoms: S_6  and  C_8
REMARK    7  A    between atoms: C_11  and  C_12
REMARK    8  A    between atoms: CB_18  and  CG_19
REMARK                            x       y       z     vdW  Elec       q    Type
REMARK                         _______ _______ _______ _____ _____    ______ ____
ROOT
ATOM      1  C   UNK A   1       0.216  10.844  19.427  0.00  0.00    +0.000 C 
ATOM      2  C   UNK A   1      -1.066  10.984  19.044  0.00  0.00    +0.000 A 
ATOM      3  N   UNK A   1      -1.746  10.034  18.321  0.00  0.00    +0.000 N 
ATOM      4  C   PHE A   2      -3.049  10.128  17.915  0.00  0.00    +0.000 A 
ATOM      5  O   PHE A   2      -3.586   9.222  17.289  0.00  0.00    +0.000 OA
ATOM      6  CA  PHE A   2      -3.749  11.410  18.279  0.00  0.00    +0.000 A 
ATOM      7  CB  PHE A   2      -5.021  11.562  17.872  0.00  0.00    +0.000 C 
ATOM      8  N   PHE A   2      -3.068  12.367  18.995  0.00  0.00    +0.000 N 
ATOM      9  C   UNK A   1      -1.772  12.260  19.422  0.00  0.00    +0.000 A 
ATOM     10  O   UNK A   1      -1.234  13.160  20.059  0.00  0.00    +0.000 OA
ATOM     11  H   UNK A   1      -1.281   9.172  18.065  0.00  0.00    +0.000 HD
ATOM     12  H   PHE A   2      -3.538  13.231  19.239  0.00  0.00    +0.000 HD
ENDROOT
BRANCH   7  13
ATOM     13  CG  PHE A   2      -5.833  12.760  18.088  0.00  0.00    +0.000 A 
ATOM     14  CD1 PHE A   2      -6.348  13.457  16.991  0.00  0.00    +0.000 A 
ATOM     15  CE1 PHE A   2      -7.145  14.586  17.189  0.00  0.00    +0.000 A 
ATOM     16  CZ  PHE A   2      -7.426  15.022  18.483  0.00  0.00    +0.000 A 
ATOM     17  CE2 PHE A   2      -6.902  14.337  19.579  0.00  0.00    +0.000 A 
ATOM     18  CD2 PHE A   2      -6.102  13.209  19.384  0.00  0.00    +0.000 A 
ENDBRANCH   7  13
BRANCH   1  22
ATOM     19  C   UNK A   1       2.266   7.600  19.044  0.00  0.00    +0.000 A 
ATOM     20  C   UNK A   1       2.423   8.292  17.867  0.00  0.00    +0.000 A 
ATOM     21  C   UNK A   1       1.693   9.516  17.873  0.00  0.00    +0.000 A 
ATOM     22  C   UNK A   1       1.007   9.722  19.058  0.00  0.00    +0.000 A 
ATOM     23  S   UNK A   1       1.247   8.408  20.141  0.00  0.00    +0.000 S 
BRANCH  19  24
ATOM     24  S   UNK A   1       3.117   6.119  19.409  0.00  0.00    +0.000 S 
ATOM     25  O   UNK A   1       3.044   5.222  18.120  0.00  0.00    +0.000 OA
BRANCH  24  26
ATOM     26  C   UNK A   1       1.984   5.425  20.660  0.00  0.00    +0.000 C 
BRANCH  26  27
ATOM     27  C   UNK A   1       1.085   4.370  20.003  0.00  0.00    +0.000 C 
BRANCH  27  29
ATOM     28  C   UNK A   1       1.707   2.127  19.383  0.00  0.00    +0.000 C 
ATOM     29  N   UNK A   1       1.283   2.989  20.495  0.00  0.00    +0.000 NA
ATOM     30  C   UNK A   1       2.264   2.907  21.577  0.00  0.00    +0.000 C 
ENDBRANCH  27  29
ENDBRANCH  26  27
ENDBRANCH  24  26
ENDBRANCH  19  24
ENDBRANCH   1  22
TORSDOF 6
ENDMDL
MODEL 3
REMARK VINA RESULT:      -7.3      2.190      3.492
REMARK  Name = 
REMARK  8 active torsions:
REMARK  status: ('A' for Active; 'I' for Inactive)
REMARK    1  A    between atoms: C_1  and  N_2
REMARK    2  A    between atoms: N_2  and  C_3
REMARK    3  A    between atoms: N_2  and  C_4
REMARK    4  A    between atoms: C_4  and  C_5
REMARK    5  A    between atoms: C_5  and  S_6
REMARK    6  A    between atoms: S_6  and  C_8
REMARK    7  A    between atoms: C_11  and  C_12
REMARK    8  A    between atoms: CB_18  and  CG_19
REMARK                            x       y       z     vdW  Elec       q    Type
REMARK                         _______ _______ _______ _____ _____    ______ ____
ROOT
ATOM      1  C   UNK A   1       1.407   8.949  18.194  0.00  0.00    +0.000 C 
ATOM      2  C   UNK A   1       0.959   9.513  19.330  0.00  0.00    +0.000 A 
ATOM      3  N   UNK A   1       1.438   9.186  20.575  0.00  0.00    +0.000 N 
ATOM      4  C   PHE A   2       1.021   9.735  21.756  0.00  0.00    +0.000 A 
ATOM      5  O   PHE A   2       1.519   9.399  22.824  0.00  0.00    +0.000 OA
ATOM      6  CA  PHE A   2      -0.082  10.754  21.642  0.00  0.00    +0.000 A 
ATOM      7  CB  PHE A   2      -0.548  11.296  22.779  0.00  0.00    +0.000 C 
ATOM      8  N   PHE A   2      -0.571  11.077  20.397  0.00  0.00    +0.000 N 
ATOM      9  C   UNK A   1      -0.134  10.544  19.214  0.00  0.00    +0.000 A 
ATOM     10  O   UNK A   1      -0.621  10.886  18.142  0.00  0.00    +0.000 OA
ATOM     11  H   UNK A   1       2.175   8.496  20.663  0.00  0.00    +0.000 HD
ATOM     12  H   PHE A   2      -1.314  11.760  20.320  0.00  0.00    +0.000 HD
ENDROOT
BRANCH   7  13
ATOM     13  CG  PHE A   2      -1.650  12.256  22.860  0.00  0.00    +0.000 A 
ATOM     14  CD1 PHE A   2      -1.457  13.573  22.430  0.00  0.00    +0.000 A 
ATOM     15  CE1 PHE A   2      -2.509  14.488  22.481  0.00  0.00    +0.000 A 
ATOM     16  CZ  PHE A   2      -3.755  14.091  22.964  0.00  0.00    +0.000 A 
ATOM     17  CE2 PHE A   2      -3.947  12.782  23.406  0.00  0.00    +0.000 A 
ATOM     18  CD2 PHE A   2      -2.896  11.865  23.359  0.00  0.00    +0.000 A 
ENDBRANCH   7  13
BRANCH   1  22
ATOM     19  C   UNK A   1       3.722   5.908  18.712  0.00  0.00    +0.000 A 
ATOM     20  C   UNK A   1       4.256   6.621  17.665  0.00  0.00    +0.000 A 
ATOM     21  C   UNK A   1       3.475   7.773  17.358  0.00  0.00    +0.000 A 
ATOM     22  C   UNK A   1       2.374   7.907  18.185  0.00  0.00    +0.000 A 
ATOM     23  S   UNK A   1       2.295   6.612  19.314  0.00  0.00    +0.000 S 
BRANCH  19  24
ATOM     24  S   UNK A   1       4.495   4.509  19.415  0.00  0.00    +0.000 S 
ATOM     25  O   UNK A   1       6.024   4.611  19.069  0.00  0.00    +0.000 OA
BRANCH  24  26
ATOM     26  C   UNK A   1       3.753   3.206  18.375  0.00  0.00    +0.000 C 
BRANCH  26  27
ATOM     27  C   UNK A   1       3.263   2.058  19.268  0.00  0.00    +0.000 C 
BRANCH  27  29
ATOM     28  C   UNK A   1       1.589   2.585  20.917  0.00  0.00    +0.000 C 
ATOM     29  N   UNK A   1       1.812   2.072  19.559  0.00  0.00    +0.000 NA
ATOM     30  C   UNK A   1       1.049   2.872  18.603  0.00  0.00    +0.000 C 
ENDBRANCH  27  29
ENDBRANCH  26  27
ENDBRANCH  24  26
ENDBRANCH  19  24
ENDBRANCH   1  22
TORSDOF 6
ENDMDL
MODEL 4
REMARK VINA RESULT:      -7.3      0.848      1.403
REMARK  Name = 
REMARK  8 active torsions:
REMARK  status: ('A' for Active; 'I' for Inactive)
REMARK    1  A    between atoms: C_1  and  N_2
REMARK    2  A    between atoms: N_2  and  C_3
REMARK    3  A    between atoms: N_2  and  C_4
REMARK    4  A    between atoms: C_4  and  C_5
REMARK    5  A    between atoms: C_5  and  S_6
REMARK    6  A    between atoms: S_6  and  C_8
REMARK    7  A    between atoms: C_11  and  C_12
REMARK    8  A    between atoms: CB_18  and  CG_19
REMARK                            x       y       z     vdW  Elec       q    Type
REMARK                         _______ _______ _______ _____ _____    ______ ____
ROOT
ATOM      1  C   UNK A   1       1.326   8.383  21.263  0.00  0.00    +0.000 C 
ATOM      2  C   UNK A   1       0.478   9.427  21.255  0.00  0.00    +0.000 A 
ATOM      3  N   UNK A   1      -0.010   9.995  20.103  0.00  0.00    +0.000 N 
ATOM      4  C   PHE A   2      -0.878  11.050  20.044  0.00  0.00    +0.000 A 
ATOM      5  O   PHE A   2      -1.280  11.482  18.970  0.00  0.00    +0.000 OA
ATOM      6  CA  PHE A   2      -1.279  11.633  21.373  0.00  0.00    +0.000 A 
ATOM      7  CB  PHE A   2      -2.103  12.694  21.364  0.00  0.00    +0.000 C 
ATOM      8  N   PHE A   2      -0.784  11.073  22.528  0.00  0.00    +0.000 N 
ATOM      9  C   UNK A   1       0.064  10.000  22.586  0.00  0.00    +0.000 A 
ATOM     10  O   UNK A   1       0.461   9.557  23.658  0.00  0.00    +0.000 OA
ATOM     11  H   UNK A   1       0.260   9.614  19.204  0.00  0.00    +0.000 HD
ATOM     12  H   PHE A   2      -1.052  11.465  23.422  0.00  0.00    +0.000 HD
ENDROOT
BRANCH   7  13
ATOM     13  CG  PHE A   2      -2.551  13.418  22.554  0.00  0.00    +0.000 A 
ATOM     14  CD1 PHE A   2      -1.786  14.478  23.051  0.00  0.00    +0.000 A 
ATOM     15  CE1 PHE A   2      -2.219  15.190  24.171  0.00  0.00    +0.000 A 
ATOM     16  CZ  PHE A   2      -3.414  14.843  24.798  0.00  0.00    +0.000 A 
ATOM     17  CE2 PHE A   2      -4.172  13.778  24.313  0.00  0.00    +0.000 A 
ATOM     18  CD2 PHE A   2      -3.741  13.061  23.195  0.00  0.00    +0.000 A 
ENDBRANCH   7  13
BRANCH   1  22
ATOM     19  C   UNK A   1       2.864   6.305  18.400  0.00  0.00    +0.000 A 
ATOM     20  C   UNK A   1       2.642   7.560  17.885  0.00  0.00    +0.000 A 
ATOM     21  C   UNK A   1       2.054   8.430  18.848  0.00  0.00    +0.000 A 
ATOM     22  C   UNK A   1       1.850   7.813  20.071  0.00  0.00    +0.000 A 
ATOM     23  S   UNK A   1       2.362   6.171  20.020  0.00  0.00    +0.000 S 
BRANCH  19  24
ATOM     24  S   UNK A   1       3.678   5.035  17.520  0.00  0.00    +0.000 S 
ATOM     25  O   UNK A   1       4.528   4.229  18.567  0.00  0.00    +0.000 OA
BRANCH  24  26
ATOM     26  C   UNK A   1       4.814   6.051  16.515  0.00  0.00    +0.000 C 
BRANCH  26  27
ATOM     27  C   UNK A   1       6.134   6.240  17.273  0.00  0.00    +0.000 C 
BRANCH  27  29
ATOM     28  C   UNK A   1       7.793   4.557  17.739  0.00  0.00    +0.000 C 
ATOM     29  N   UNK A   1       7.282   5.486  16.722  0.00  0.00    +0.000 NA
ATOM     30  C   UNK A   1       6.943   4.743  15.509  0.00  0.00    +0.000 C 
ENDBRANCH  27  29
ENDBRANCH  26  27
ENDBRANCH  24  26
ENDBRANCH  19  24
ENDBRANCH   1  22
TORSDOF 6
ENDMDL
MODEL 5
REMARK VINA RESULT:      -7.2      0.814      1.053
REMARK  Name = 
REMARK  8 active torsions:
REMARK  status: ('A' for Active; 'I' for Inactive)
REMARK    1  A    between atoms: C_1  and  N_2
REMARK    2  A    between atoms: N_2  and  C_3
REMARK    3  A    between atoms: N_2  and  C_4
REMARK    4  A    between atoms: C_4  and  C_5
REMARK    5  A    between atoms: C_5  and  S_6
REMARK    6  A    between atoms: S_6  and  C_8
REMARK    7  A    between atoms: C_11  and  C_12
REMARK    8  A    between atoms: CB_18  and  CG_19
REMARK                            x       y       z     vdW  Elec       q    Type
REMARK                         _______ _______ _______ _____ _____    ______ ____
ROOT
ATOM      1  C   UNK A   1       1.272   8.184  21.515  0.00  0.00    +0.000 C 
ATOM      2  C   UNK A   1       0.457   9.253  21.485  0.00  0.00    +0.000 A 
ATOM      3  N   UNK A   1      -0.069   9.769  20.326  0.00  0.00    +0.000 N 
ATOM      4  C   PHE A   2      -0.907  10.848  20.245  0.00  0.00    +0.000 A 
ATOM      5  O   PHE A   2      -1.347  11.230  19.168  0.00  0.00    +0.000 OA
ATOM      6  CA  PHE A   2      -1.224  11.519  21.554  0.00  0.00    +0.000 A 
ATOM      7  CB  PHE A   2      -2.016  12.605  21.521  0.00  0.00    +0.000 C 
ATOM      8  N   PHE A   2      -0.691  11.011  22.716  0.00  0.00    +0.000 N 
ATOM      9  C   UNK A   1       0.126   9.915  22.798  0.00  0.00    +0.000 A 
ATOM     10  O   UNK A   1       0.560   9.522  23.875  0.00  0.00    +0.000 OA
ATOM     11  H   UNK A   1       0.145   9.329  19.439  0.00  0.00    +0.000 HD
ATOM     12  H   PHE A   2      -0.904  11.463  23.597  0.00  0.00    +0.000 HD
ENDROOT
BRANCH   7  13
ATOM     13  CG  PHE A   2      -2.382  13.411  22.686  0.00  0.00    +0.000 A 
ATOM     14  CD1 PHE A   2      -3.514  13.075  23.435  0.00  0.00    +0.000 A 
ATOM     15  CE1 PHE A   2      -3.856  13.824  24.562  0.00  0.00    +0.000 A 
ATOM     16  CZ  PHE A   2      -3.071  14.912  24.941  0.00  0.00    +0.000 A 
ATOM     17  CE2 PHE A   2      -1.950  15.258  24.187  0.00  0.00    +0.000 A 
ATOM     18  CD2 PHE A   2      -1.606  14.512  23.058  0.00  0.00    +0.000 A 
ENDBRANCH   7  13
BRANCH   1  22
ATOM     19  C   UNK A   1       2.465   5.859  18.678  0.00  0.00    +0.000 A 
ATOM     20  C   UNK A   1       2.549   7.138  18.184  0.00  0.00    +0.000 A 
ATOM     21  C   UNK A   1       2.117   8.103  19.140  0.00  0.00    +0.000 A 
ATOM     22  C   UNK A   1       1.720   7.529  20.336  0.00  0.00    +0.000 A 
ATOM     23  S   UNK A   1       1.863   5.816  20.270  0.00  0.00    +0.000 S 
BRANCH  19  24
ATOM     24  S   UNK A   1       3.027   4.453  17.807  0.00  0.00    +0.000 S 
ATOM     25  O   UNK A   1       3.101   3.275  18.845  0.00  0.00    +0.000 OA
BRANCH  24  26
ATOM     26  C   UNK A   1       4.727   4.998  17.429  0.00  0.00    +0.000 C 
BRANCH  26  27
ATOM     27  C   UNK A   1       5.117   4.515  16.026  0.00  0.00    +0.000 C 
BRANCH  27  29
ATOM     28  C   UNK A   1       7.058   4.777  14.625  0.00  0.00    +0.000 C 
ATOM     29  N   UNK A   1       6.546   4.169  15.861  0.00  0.00    +0.000 NA
ATOM     30  C   UNK A   1       7.367   4.595  16.992  0.00  0.00    +0.000 C 
ENDBRANCH  27  29
ENDBRANCH  26  27
ENDBRANCH  24  26
ENDBRANCH  19  24
ENDBRANCH   1  22
TORSDOF 6
ENDMDL
MODEL 6
REMARK VINA RESULT:      -7.2      2.172      3.315
REMARK  Name = 
REMARK  8 active torsions:
REMARK  status: ('A' for Active; 'I' for Inactive)
REMARK    1  A    between atoms: C_1  and  N_2
REMARK    2  A    between atoms: N_2  and  C_3
REMARK    3  A    between atoms: N_2  and  C_4
REMARK    4  A    between atoms: C_4  and  C_5
REMARK    5  A    between atoms: C_5  and  S_6
REMARK    6  A    between atoms: S_6  and  C_8
REMARK    7  A    between atoms: C_11  and  C_12
REMARK    8  A    between atoms: CB_18  and  CG_19
REMARK                            x       y       z     vdW  Elec       q    Type
REMARK                         _______ _______ _______ _____ _____    ______ ____
ROOT
ATOM      1  C   UNK A   1       1.360   9.005  18.174  0.00  0.00    +0.000 C 
ATOM      2  C   UNK A   1       0.901   9.573  19.304  0.00  0.00    +0.000 A 
ATOM      3  N   UNK A   1       1.372   9.253  20.555  0.00  0.00    +0.000 N 
ATOM      4  C   PHE A   2       0.943   9.807  21.730  0.00  0.00    +0.000 A 
ATOM      5  O   PHE A   2       1.434   9.477  22.803  0.00  0.00    +0.000 OA
ATOM      6  CA  PHE A   2      -0.163  10.820  21.602  0.00  0.00    +0.000 A 
ATOM      7  CB  PHE A   2      -0.640  11.365  22.733  0.00  0.00    +0.000 C 
ATOM      8  N   PHE A   2      -0.643  11.135  20.352  0.00  0.00    +0.000 N 
ATOM      9  C   UNK A   1      -0.194  10.599  19.175  0.00  0.00    +0.000 A 
ATOM     10  O   UNK A   1      -0.674  10.934  18.098  0.00  0.00    +0.000 OA
ATOM     11  H   UNK A   1       2.111   8.567  20.652  0.00  0.00    +0.000 HD
ATOM     12  H   PHE A   2      -1.388  11.816  20.266  0.00  0.00    +0.000 HD
ENDROOT
BRANCH   7  13
ATOM     13  CG  PHE A   2      -1.746  12.322  22.801  0.00  0.00    +0.000 A 
ATOM     14  CD1 PHE A   2      -2.974  11.927  23.340  0.00  0.00    +0.000 A 
ATOM     15  CE1 PHE A   2      -4.026  12.840  23.431  0.00  0.00    +0.000 A 
ATOM     16  CZ  PHE A   2      -3.854  14.148  22.982  0.00  0.00    +0.000 A 
ATOM     17  CE2 PHE A   2      -2.634  14.542  22.431  0.00  0.00    +0.000 A 
ATOM     18  CD2 PHE A   2      -1.581  13.630  22.336  0.00  0.00    +0.000 A 
ENDBRANCH   7  13
BRANCH   1  22
ATOM     19  C   UNK A   1       3.720   6.010  18.756  0.00  0.00    +0.000 A 
ATOM     20  C   UNK A   1       4.189   6.654  17.636  0.00  0.00    +0.000 A 
ATOM     21  C   UNK A   1       3.386   7.782  17.301  0.00  0.00    +0.000 A 
ATOM     22  C   UNK A   1       2.332   7.968  18.178  0.00  0.00    +0.000 A 
ATOM     23  S   UNK A   1       2.324   6.748  19.392  0.00  0.00    +0.000 S 
BRANCH  19  24
ATOM     24  S   UNK A   1       4.539   4.661  19.503  0.00  0.00    +0.000 S 
ATOM     25  O   UNK A   1       6.072   4.839  19.208  0.00  0.00    +0.000 OA
BRANCH  24  26
ATOM     26  C   UNK A   1       3.902   3.309  18.455  0.00  0.00    +0.000 C 
BRANCH  26  27
ATOM     27  C   UNK A   1       2.990   2.402  19.292  0.00  0.00    +0.000 C 
BRANCH  27  29
ATOM     28  C   UNK A   1       0.734   3.124  19.725  0.00  0.00    +0.000 C 
ATOM     29  N   UNK A   1       2.108   3.114  20.243  0.00  0.00    +0.000 NA
ATOM     30  C   UNK A   1       2.121   2.521  21.580  0.00  0.00    +0.000 C 
ENDBRANCH  27  29
ENDBRANCH  26  27
ENDBRANCH  24  26
ENDBRANCH  19  24
ENDBRANCH   1  22
TORSDOF 6
ENDMDL
MODEL 7
REMARK VINA RESULT:      -7.2      0.639      1.144
REMARK  Name = 
REMARK  8 active torsions:
REMARK  status: ('A' for Active; 'I' for Inactive)
REMARK    1  A    between atoms: C_1  and  N_2
REMARK    2  A    between atoms: N_2  and  C_3
REMARK    3  A    between atoms: N_2  and  C_4
REMARK    4  A    between atoms: C_4  and  C_5
REMARK    5  A    between atoms: C_5  and  S_6
REMARK    6  A    between atoms: S_6  and  C_8
REMARK    7  A    between atoms: C_11  and  C_12
REMARK    8  A    between atoms: CB_18  and  CG_19
REMARK                            x       y       z     vdW  Elec       q    Type
REMARK                         _______ _______ _______ _____ _____    ______ ____
ROOT
ATOM      1  C   UNK A   1       1.428   8.221  21.336  0.00  0.00    +0.000 C 
ATOM      2  C   UNK A   1       0.598   9.279  21.355  0.00  0.00    +0.000 A 
ATOM      3  N   UNK A   1       0.089   9.859  20.218  0.00  0.00    +0.000 N 
ATOM      4  C   PHE A   2      -0.763  10.929  20.186  0.00  0.00    +0.000 A 
ATOM      5  O   PHE A   2      -1.186  11.372  19.125  0.00  0.00    +0.000 OA
ATOM      6  CA  PHE A   2      -1.118  11.513  21.527  0.00  0.00    +0.000 A 
ATOM      7  CB  PHE A   2      -1.925  12.587  21.544  0.00  0.00    +0.000 C 
ATOM      8  N   PHE A   2      -0.603  10.940  22.667  0.00  0.00    +0.000 N 
ATOM      9  C   UNK A   1       0.229   9.853  22.698  0.00  0.00    +0.000 A 
ATOM     10  O   UNK A   1       0.646   9.399  23.758  0.00  0.00    +0.000 OA
ATOM     11  H   UNK A   1       0.328   9.478  19.311  0.00  0.00    +0.000 HD
ATOM     12  H   PHE A   2      -0.841  11.334  23.569  0.00  0.00    +0.000 HD
ENDROOT
BRANCH   7  13
ATOM     13  CG  PHE A   2      -2.329  13.314  22.748  0.00  0.00    +0.000 A 
ATOM     14  CD1 PHE A   2      -1.440  14.210  23.350  0.00  0.00    +0.000 A 
ATOM     15  CE1 PHE A   2      -1.826  14.926  24.484  0.00  0.00    +0.000 A 
ATOM     16  CZ  PHE A   2      -3.100  14.746  25.021  0.00  0.00    +0.000 A 
ATOM     17  CE2 PHE A   2      -3.984  13.844  24.431  0.00  0.00    +0.000 A 
ATOM     18  CD2 PHE A   2      -3.600  13.124  23.298  0.00  0.00    +0.000 A 
ENDBRANCH   7  13
BRANCH   1  22
ATOM     19  C   UNK A   1       2.836   6.123  18.422  0.00  0.00    +0.000 A 
ATOM     20  C   UNK A   1       2.661   7.394  17.928  0.00  0.00    +0.000 A 
ATOM     21  C   UNK A   1       2.124   8.273  18.913  0.00  0.00    +0.000 A 
ATOM     22  C   UNK A   1       1.911   7.647  20.129  0.00  0.00    +0.000 A 
ATOM     23  S   UNK A   1       2.352   5.986  20.047  0.00  0.00    +0.000 S 
BRANCH  19  24
ATOM     24  S   UNK A   1       3.584   4.833  17.512  0.00  0.00    +0.000 S 
ATOM     25  O   UNK A   1       2.716   3.545  17.752  0.00  0.00    +0.000 OA
BRANCH  24  26
ATOM     26  C   UNK A   1       5.137   4.666  18.455  0.00  0.00    +0.000 C 
BRANCH  26  27
ATOM     27  C   UNK A   1       6.328   4.721  17.488  0.00  0.00    +0.000 C 
BRANCH  27  29
ATOM     28  C   UNK A   1       7.019   7.026  17.394  0.00  0.00    +0.000 C 
ATOM     29  N   UNK A   1       7.389   5.683  17.861  0.00  0.00    +0.000 NA
ATOM     30  C   UNK A   1       7.642   5.719  19.300  0.00  0.00    +0.000 C 
ENDBRANCH  27  29
ENDBRANCH  26  27
ENDBRANCH  24  26
ENDBRANCH  19  24
ENDBRANCH   1  22
TORSDOF 6
ENDMDL
MODEL 8
REMARK VINA RESULT:      -7.1      3.729      4.646
REMARK  Name = 
REMARK  8 active torsions:
REMARK  status: ('A' for Active; 'I' for Inactive)
REMARK    1  A    between atoms: C_1  and  N_2
REMARK    2  A    between atoms: N_2  and  C_3
REMARK    3  A    between atoms: N_2  and  C_4
REMARK    4  A    between atoms: C_4  and  C_5
REMARK    5  A    between atoms: C_5  and  S_6
REMARK    6  A    between atoms: S_6  and  C_8
REMARK    7  A    between atoms: C_11  and  C_12
REMARK    8  A    between atoms: CB_18  and  CG_19
REMARK                            x       y       z     vdW  Elec       q    Type
REMARK                         _______ _______ _______ _____ _____    ______ ____
ROOT
ATOM      1  C   UNK A   1       0.113  10.683  19.555  0.00  0.00    +0.000 C 
ATOM      2  C   UNK A   1      -1.131  10.860  19.073  0.00  0.00    +0.000 A 
ATOM      3  N   UNK A   1      -1.716  10.012  18.164  0.00  0.00    +0.000 N 
ATOM      4  C   PHE A   2      -2.977  10.146  17.652  0.00  0.00    +0.000 A 
ATOM      5  O   PHE A   2      -3.430   9.330  16.858  0.00  0.00    +0.000 OA
ATOM      6  CA  PHE A   2      -3.741  11.356  18.121  0.00  0.00    +0.000 A 
ATOM      7  CB  PHE A   2      -4.972  11.548  17.618  0.00  0.00    +0.000 C 
ATOM      8  N   PHE A   2      -3.154  12.212  19.024  0.00  0.00    +0.000 N 
ATOM      9  C   UNK A   1      -1.901  12.062  19.555  0.00  0.00    +0.000 A 
ATOM     10  O   UNK A   1      -1.448  12.870  20.359  0.00  0.00    +0.000 OA
ATOM     11  H   UNK A   1      -1.208   9.200  17.837  0.00  0.00    +0.000 HD
ATOM     12  H   PHE A   2      -3.667  13.026  19.338  0.00  0.00    +0.000 HD
ENDROOT
BRANCH   7  13
ATOM     13  CG  PHE A   2      -5.831  12.694  17.919  0.00  0.00    +0.000 A 
ATOM     14  CD1 PHE A   2      -6.090  13.038  19.249  0.00  0.00    +0.000 A 
ATOM     15  CE1 PHE A   2      -6.888  14.145  19.544  0.00  0.00    +0.000 A 
ATOM     16  CZ  PHE A   2      -7.432  14.907  18.512  0.00  0.00    +0.000 A 
ATOM     17  CE2 PHE A   2      -7.188  14.558  17.183  0.00  0.00    +0.000 A 
ATOM     18  CD2 PHE A   2      -6.392  13.450  16.885  0.00  0.00    +0.000 A 
ENDBRANCH   7  13
BRANCH   1  22
ATOM     19  C   UNK A   1       2.368   7.610  18.967  0.00  0.00    +0.000 A 
ATOM     20  C   UNK A   1       2.419   8.348  17.809  0.00  0.00    +0.000 A 
ATOM     21  C   UNK A   1       1.606   9.515  17.891  0.00  0.00    +0.000 A 
ATOM     22  C   UNK A   1       0.964   9.634  19.111  0.00  0.00    +0.000 A 
ATOM     23  S   UNK A   1       1.347   8.307  20.136  0.00  0.00    +0.000 S 
BRANCH  19  24
ATOM     24  S   UNK A   1       3.339   6.184  19.242  0.00  0.00    +0.000 S 
ATOM     25  O   UNK A   1       4.007   5.817  17.868  0.00  0.00    +0.000 OA
BRANCH  24  26
ATOM     26  C   UNK A   1       2.009   4.980  19.577  0.00  0.00    +0.000 C 
BRANCH  26  27
ATOM     27  C   UNK A   1       2.390   4.128  20.796  0.00  0.00    +0.000 C 
BRANCH  27  29
ATOM     28  C   UNK A   1       1.731   2.222  19.479  0.00  0.00    +0.000 C 
ATOM     29  N   UNK A   1       2.672   2.706  20.498  0.00  0.00    +0.000 NA
ATOM     30  C   UNK A   1       4.043   2.484  20.041  0.00  0.00    +0.000 C 
ENDBRANCH  27  29
ENDBRANCH  26  27
ENDBRANCH  24  26
ENDBRANCH  19  24
ENDBRANCH   1  22
TORSDOF 6
ENDMDL
MODEL 9
REMARK VINA RESULT:      -7.1      2.120      3.208
REMARK  Name = 
REMARK  8 active torsions:
REMARK  status: ('A' for Active; 'I' for Inactive)
REMARK    1  A    between atoms: C_1  and  N_2
REMARK    2  A    between atoms: N_2  and  C_3
REMARK    3  A    between atoms: N_2  and  C_4
REMARK    4  A    between atoms: C_4  and  C_5
REMARK    5  A    between atoms: C_5  and  S_6
REMARK    6  A    between atoms: S_6  and  C_8
REMARK    7  A    between atoms: C_11  and  C_12
REMARK    8  A    between atoms: CB_18  and  CG_19
REMARK                            x       y       z     vdW  Elec       q    Type
REMARK                         _______ _______ _______ _____ _____    ______ ____
ROOT
ATOM      1  C   UNK A   1       1.424   9.087  18.957  0.00  0.00    +0.000 C 
ATOM      2  C   UNK A   1       0.776   9.680  19.976  0.00  0.00    +0.000 A 
ATOM      3  N   UNK A   1       0.775   9.188  21.259  0.00  0.00    +0.000 N 
ATOM      4  C   PHE A   2       0.139   9.758  22.327  0.00  0.00    +0.000 A 
ATOM      5  O   PHE A   2       0.207   9.261  23.445  0.00  0.00    +0.000 OA
ATOM      6  CA  PHE A   2      -0.644  11.007  22.023  0.00  0.00    +0.000 A 
ATOM      7  CB  PHE A   2      -1.314  11.583  23.035  0.00  0.00    +0.000 C 
ATOM      8  N   PHE A   2      -0.653  11.497  20.738  0.00  0.00    +0.000 N 
ATOM      9  C   UNK A   1       0.006  10.940  19.675  0.00  0.00    +0.000 A 
ATOM     10  O   UNK A   1      -0.050  11.440  18.556  0.00  0.00    +0.000 OA
ATOM     11  H   UNK A   1       1.292   8.344  21.472  0.00  0.00    +0.000 HD
ATOM     12  H   PHE A   2      -1.180  12.337  20.532  0.00  0.00    +0.000 HD
ENDROOT
BRANCH   7  13
ATOM     13  CG  PHE A   2      -2.167  12.766  22.910  0.00  0.00    +0.000 A 
ATOM     14  CD1 PHE A   2      -3.509  12.620  22.545  0.00  0.00    +0.000 A 
ATOM     15  CE1 PHE A   2      -4.335  13.741  22.448  0.00  0.00    +0.000 A 
ATOM     16  CZ  PHE A   2      -3.822  15.009  22.713  0.00  0.00    +0.000 A 
ATOM     17  CE2 PHE A   2      -2.481  15.160  23.064  0.00  0.00    +0.000 A 
ATOM     18  CD2 PHE A   2      -1.651  14.041  23.159  0.00  0.00    +0.000 A 
ENDBRANCH   7  13
BRANCH   1  22
ATOM     19  C   UNK A   1       3.520   5.856  18.745  0.00  0.00    +0.000 A 
ATOM     20  C   UNK A   1       2.821   5.782  19.927  0.00  0.00    +0.000 A 
ATOM     21  C   UNK A   1       2.012   6.936  20.135  0.00  0.00    +0.000 A 
ATOM     22  C   UNK A   1       2.113   7.853  19.103  0.00  0.00    +0.000 A 
ATOM     23  S   UNK A   1       3.213   7.301  17.900  0.00  0.00    +0.000 S 
BRANCH  19  24
ATOM     24  S   UNK A   1       4.513   4.557  18.132  0.00  0.00    +0.000 S 
ATOM     25  O   UNK A   1       3.835   4.052  16.808  0.00  0.00    +0.000 OA
BRANCH  24  26
ATOM     26  C   UNK A   1       4.220   3.317  19.439  0.00  0.00    +0.000 C 
BRANCH  26  27
ATOM     27  C   UNK A   1       3.416   2.146  18.859  0.00  0.00    +0.000 C 
BRANCH  27  29
ATOM     28  C   UNK A   1       2.020   2.465  20.795  0.00  0.00    +0.000 C 
ATOM     29  N   UNK A   1       2.047   2.002  19.401  0.00  0.00    +0.000 NA
ATOM     30  C   UNK A   1       1.049   2.735  18.624  0.00  0.00    +0.000 C 
ENDBRANCH  27  29
ENDBRANCH  26  27
ENDBRANCH  24  26
ENDBRANCH  19  24
ENDBRANCH   1  22
TORSDOF 6
ENDMDL
