MODEL 1
REMARK VINA RESULT:      -6.2      0.000      0.000
REMARK  Name = 
REMARK  6 active torsions:
REMARK  status: ('A' for Active; 'I' for Inactive)
REMARK    1  A    between atoms: C_1  and  S_2
REMARK    2  A    between atoms: S_2  and  C_3
REMARK    3  A    between atoms: N_10  and  C1*_11
REMARK    4  A    between atoms: C3*_13  and  O3*_14
REMARK    5  A    between atoms: C4*_15  and  C5*_16
REMARK    6  A    between atoms: C5*_16  and  O5*_17
REMARK                            x       y       z     vdW  Elec       q    Type
REMARK                         _______ _______ _______ _____ _____    ______ ____
ROOT
ATOM      1  C   UNL     1       5.370   5.712  16.668  0.00  0.00    +0.000 A 
ATOM      2  N   UNL     1       4.981   6.961  16.462  0.00  0.00    +0.000 NA
ATOM      3  C   UNL     1       3.967   7.120  17.337  0.00  0.00    +0.000 A 
ATOM      4  C   UNL     1       3.095   8.162  17.672  0.00  0.00    +0.000 A 
ATOM      5  N   UNL     1       2.214   7.865  18.645  0.00  0.00    +0.000 NA
ATOM      6  S   UNL     1       2.482   6.269  19.126  0.00  0.00    +0.000 S 
ATOM      7  C   UNL     1       3.739   6.015  18.070  0.00  0.00    +0.000 A 
ATOM      8  N   UNL     1       4.625   5.076  17.657  0.00  0.00    +0.000 N 
ENDROOT
BRANCH   8   9
ATOM      9  C1* UNL     1       4.751   3.699  18.108  0.00  0.00    +0.000 C 
ATOM     10  C2* UNL     1       4.730   3.523  19.619  0.00  0.00    +0.000 C 
ATOM     11  C3* UNL     1       4.123   2.154  19.806  0.00  0.00    +0.000 C 
ATOM     12  C4* UNL     1       3.208   1.979  18.600  0.00  0.00    +0.000 C 
ATOM     13  O4* UNL     1       3.663   2.905  17.588  0.00  0.00    +0.000 OA
BRANCH  11  14
ATOM     14  O3* UNL     1       5.163   1.177  19.823  0.00  0.00    +0.000 OA
ATOM     15  H3* UNL     1       4.800   0.315  20.088  0.00  0.00    +0.000 HD
ENDBRANCH  11  14
BRANCH  12  16
ATOM     16  C5* UNL     1       1.744   2.274  18.934  0.00  0.00    +0.000 C 
BRANCH  16  17
ATOM     17  O5* UNL     1       1.151   3.082  17.920  0.00  0.00    +0.000 OA
ATOM     18  H5* UNL     1       0.558   2.500  17.408  0.00  0.00    +0.000 HD
ENDBRANCH  16  17
ENDBRANCH  12  16
ENDBRANCH   8   9
BRANCH   1  20
ATOM     19  C   UNL     1       5.809   4.198  14.428  0.00  0.00    +0.000 C 
ATOM     20  S   UNL     1       6.681   4.944  15.829  0.00  0.00    +0.000 S 
ENDBRANCH   1  20
TORSDOF 5
ENDMDL
MODEL 2
REMARK VINA RESULT:      -6.2      1.676      3.822
REMARK  Name = 
REMARK  6 active torsions:
REMARK  status: ('A' for Active; 'I' for Inactive)
REMARK    1  A    between atoms: C_1  and  S_2
REMARK    2  A    between atoms: S_2  and  C_3
REMARK    3  A    between atoms: N_10  and  C1*_11
REMARK    4  A    between atoms: C3*_13  and  O3*_14
REMARK    5  A    between atoms: C4*_15  and  C5*_16
REMARK    6  A    between atoms: C5*_16  and  O5*_17
REMARK                            x       y       z     vdW  Elec       q    Type
REMARK                         _______ _______ _______ _____ _____    ______ ____
ROOT
ATOM      1  C   UNL     1       3.164   7.040  18.086  0.00  0.00    +0.000 A 
ATOM      2  N   UNL     1       4.053   7.547  17.245  0.00  0.00    +0.000 NA
ATOM      3  C   UNL     1       4.654   6.455  16.731  0.00  0.00    +0.000 A 
ATOM      4  C   UNL     1       5.675   6.225  15.800  0.00  0.00    +0.000 A 
ATOM      5  N   UNL     1       5.951   4.926  15.580  0.00  0.00    +0.000 NA
ATOM      6  S   UNL     1       4.930   4.001  16.556  0.00  0.00    +0.000 S 
ATOM      7  C   UNL     1       4.153   5.308  17.223  0.00  0.00    +0.000 A 
ATOM      8  N   UNL     1       3.189   5.648  18.114  0.00  0.00    +0.000 N 
ENDROOT
BRANCH   8   9
ATOM      9  C1* UNL     1       2.383   4.769  18.947  0.00  0.00    +0.000 C 
ATOM     10  C2* UNL     1       1.471   3.827  18.176  0.00  0.00    +0.000 C 
ATOM     11  C3* UNL     1       1.370   2.619  19.076  0.00  0.00    +0.000 C 
ATOM     12  C4* UNL     1       2.693   2.601  19.832  0.00  0.00    +0.000 C 
ATOM     13  O4* UNL     1       3.238   3.937  19.761  0.00  0.00    +0.000 OA
BRANCH  11  14
ATOM     14  O3* UNL     1       0.261   2.784  19.959  0.00  0.00    +0.000 OA
ATOM     15  H3* UNL     1       0.268   2.079  20.630  0.00  0.00    +0.000 HD
ENDBRANCH  11  14
BRANCH  12  16
ATOM     16  C5* UNL     1       3.694   1.613  19.227  0.00  0.00    +0.000 C 
BRANCH  16  17
ATOM     17  O5* UNL     1       5.003   1.847  19.741  0.00  0.00    +0.000 OA
ATOM     18  H5* UNL     1       5.464   0.988  19.737  0.00  0.00    +0.000 HD
ENDBRANCH  16  17
ENDBRANCH  12  16
ENDBRANCH   8   9
BRANCH   1  20
ATOM     19  C   UNL     1       1.697   9.345  17.893  0.00  0.00    +0.000 C 
ATOM     20  S   UNL     1       2.063   7.987  19.035  0.00  0.00    +0.000 S 
ENDBRANCH   1  20
TORSDOF 5
ENDMDL
MODEL 3
REMARK VINA RESULT:      -6.0      2.636      4.528
REMARK  Name = 
REMARK  6 active torsions:
REMARK  status: ('A' for Active; 'I' for Inactive)
REMARK    1  A    between atoms: C_1  and  S_2
REMARK    2  A    between atoms: S_2  and  C_3
REMARK    3  A    between atoms: N_10  and  C1*_11
REMARK    4  A    between atoms: C3*_13  and  O3*_14
REMARK    5  A    between atoms: C4*_15  and  C5*_16
REMARK    6  A    between atoms: C5*_16  and  O5*_17
REMARK                            x       y       z     vdW  Elec       q    Type
REMARK                         _______ _______ _______ _____ _____    ______ ____
ROOT
ATOM      1  C   UNL     1       2.900   4.381  20.068  0.00  0.00    +0.000 A 
ATOM      2  N   UNL     1       2.107   5.289  20.618  0.00  0.00    +0.000 NA
ATOM      3  C   UNL     1       2.278   6.370  19.830  0.00  0.00    +0.000 A 
ATOM      4  C   UNL     1       1.772   7.675  19.806  0.00  0.00    +0.000 A 
ATOM      5  N   UNL     1       2.230   8.436  18.795  0.00  0.00    +0.000 NA
ATOM      6  S   UNL     1       3.307   7.506  17.886  0.00  0.00    +0.000 S 
ATOM      7  C   UNL     1       3.136   6.143  18.820  0.00  0.00    +0.000 A 
ATOM      8  N   UNL     1       3.568   4.864  18.947  0.00  0.00    +0.000 N 
ENDROOT
BRANCH   8   9
ATOM      9  C1* UNL     1       4.541   4.158  18.128  0.00  0.00    +0.000 C 
ATOM     10  C2* UNL     1       4.575   4.592  16.670  0.00  0.00    +0.000 C 
ATOM     11  C3* UNL     1       6.011   4.356  16.267  0.00  0.00    +0.000 C 
ATOM     12  C4* UNL     1       6.801   4.542  17.556  0.00  0.00    +0.000 C 
ATOM     13  O4* UNL     1       5.871   4.366  18.649  0.00  0.00    +0.000 OA
BRANCH  11  14
ATOM     14  O3* UNL     1       6.143   3.030  15.755  0.00  0.00    +0.000 OA
ATOM     15  H3* UNL     1       5.352   2.511  15.981  0.00  0.00    +0.000 HD
ENDBRANCH  11  14
BRANCH  12  16
ATOM     16  C5* UNL     1       7.437   5.931  17.652  0.00  0.00    +0.000 C 
BRANCH  16  17
ATOM     17  O5* UNL     1       7.555   6.520  16.359  0.00  0.00    +0.000 OA
ATOM     18  H5* UNL     1       8.169   7.273  16.448  0.00  0.00    +0.000 HD
ENDBRANCH  16  17
ENDBRANCH  12  16
ENDBRANCH   8   9
BRANCH   1  20
ATOM     19  C   UNL     1       1.593   2.588  21.674  0.00  0.00    +0.000 C 
ATOM     20  S   UNL     1       3.077   2.756  20.650  0.00  0.00    +0.000 S 
ENDBRANCH   1  20
TORSDOF 5
ENDMDL
MODEL 4
REMARK VINA RESULT:      -6.0      1.245      1.364
REMARK  Name = 
REMARK  6 active torsions:
REMARK  status: ('A' for Active; 'I' for Inactive)
REMARK    1  A    between atoms: C_1  and  S_2
REMARK    2  A    between atoms: S_2  and  C_3
REMARK    3  A    between atoms: N_10  and  C1*_11
REMARK    4  A    between atoms: C3*_13  and  O3*_14
REMARK    5  A    between atoms: C4*_15  and  C5*_16
REMARK    6  A    between atoms: C5*_16  and  O5*_17
REMARK                            x       y       z     vdW  Elec       q    Type
REMARK                         _______ _______ _______ _____ _____    ______ ____
ROOT
ATOM      1  C   UNL     1       4.815   5.570  16.675  0.00  0.00    +0.000 A 
ATOM      2  N   UNL     1       4.477   6.837  16.489  0.00  0.00    +0.000 NA
ATOM      3  C   UNL     1       3.623   7.084  17.504  0.00  0.00    +0.000 A 
ATOM      4  C   UNL     1       2.880   8.189  17.935  0.00  0.00    +0.000 A 
ATOM      5  N   UNL     1       2.145   7.975  19.042  0.00  0.00    +0.000 NA
ATOM      6  S   UNL     1       2.386   6.376  19.529  0.00  0.00    +0.000 S 
ATOM      7  C   UNL     1       3.444   6.014  18.301  0.00  0.00    +0.000 A 
ATOM      8  N   UNL     1       4.195   5.009  17.788  0.00  0.00    +0.000 N 
ENDROOT
BRANCH   8   9
ATOM      9  C1* UNL     1       4.305   3.637  18.261  0.00  0.00    +0.000 C 
ATOM     10  C2* UNL     1       4.995   3.486  19.608  0.00  0.00    +0.000 C 
ATOM     11  C3* UNL     1       4.347   2.257  20.199  0.00  0.00    +0.000 C 
ATOM     12  C4* UNL     1       2.947   2.244  19.600  0.00  0.00    +0.000 C 
ATOM     13  O4* UNL     1       2.991   3.057  18.406  0.00  0.00    +0.000 OA
BRANCH  11  14
ATOM     14  O3* UNL     1       5.095   1.103  19.816  0.00  0.00    +0.000 OA
ATOM     15  H3* UNL     1       4.490   0.358  19.656  0.00  0.00    +0.000 HD
ENDBRANCH  11  14
BRANCH  12  16
ATOM     16  C5* UNL     1       1.899   2.813  20.560  0.00  0.00    +0.000 C 
BRANCH  16  17
ATOM     17  O5* UNL     1       2.380   2.785  21.902  0.00  0.00    +0.000 OA
ATOM     18  H5* UNL     1       3.132   3.406  21.944  0.00  0.00    +0.000 HD
ENDBRANCH  16  17
ENDBRANCH  12  16
ENDBRANCH   8   9
BRANCH   1  20
ATOM     19  C   UNL     1       7.380   4.613  16.750  0.00  0.00    +0.000 C 
ATOM     20  S   UNL     1       5.928   4.697  15.670  0.00  0.00    +0.000 S 
ENDBRANCH   1  20
TORSDOF 5
ENDMDL
MODEL 5
REMARK VINA RESULT:      -6.0      2.845      4.819
REMARK  Name = 
REMARK  6 active torsions:
REMARK  status: ('A' for Active; 'I' for Inactive)
REMARK    1  A    between atoms: C_1  and  S_2
REMARK    2  A    between atoms: S_2  and  C_3
REMARK    3  A    between atoms: N_10  and  C1*_11
REMARK    4  A    between atoms: C3*_13  and  O3*_14
REMARK    5  A    between atoms: C4*_15  and  C5*_16
REMARK    6  A    between atoms: C5*_16  and  O5*_17
REMARK                            x       y       z     vdW  Elec       q    Type
REMARK                         _______ _______ _______ _____ _____    ______ ____
ROOT
ATOM      1  C   UNL     1       3.242   5.644  18.090  0.00  0.00    +0.000 A 
ATOM      2  N   UNL     1       2.045   5.436  18.617  0.00  0.00    +0.000 NA
ATOM      3  C   UNL     1       2.007   4.098  18.786  0.00  0.00    +0.000 A 
ATOM      4  C   UNL     1       1.070   3.183  19.281  0.00  0.00    +0.000 A 
ATOM      5  N   UNL     1       1.478   1.901  19.270  0.00  0.00    +0.000 NA
ATOM      6  S   UNL     1       3.038   1.853  18.624  0.00  0.00    +0.000 S 
ATOM      7  C   UNL     1       3.143   3.494  18.392  0.00  0.00    +0.000 A 
ATOM      8  N   UNL     1       3.965   4.465  17.925  0.00  0.00    +0.000 N 
ENDROOT
BRANCH   8   9
ATOM      9  C1* UNL     1       5.291   4.318  17.343  0.00  0.00    +0.000 C 
ATOM     10  C2* UNL     1       5.728   5.480  16.465  0.00  0.00    +0.000 C 
ATOM     11  C3* UNL     1       7.229   5.497  16.625  0.00  0.00    +0.000 C 
ATOM     12  C4* UNL     1       7.465   4.941  18.023  0.00  0.00    +0.000 C 
ATOM     13  O4* UNL     1       6.280   4.199  18.388  0.00  0.00    +0.000 OA
BRANCH  11  14
ATOM     14  O3* UNL     1       7.817   4.668  15.623  0.00  0.00    +0.000 OA
ATOM     15  H3* UNL     1       7.159   4.031  15.295  0.00  0.00    +0.000 HD
ENDBRANCH  11  14
BRANCH  12  16
ATOM     16  C5* UNL     1       7.708   6.046  19.054  0.00  0.00    +0.000 C 
BRANCH  16  17
ATOM     17  O5* UNL     1       7.987   5.486  20.335  0.00  0.00    +0.000 OA
ATOM     18  H5* UNL     1       8.899   5.142  20.299  0.00  0.00    +0.000 HD
ENDBRANCH  16  17
ENDBRANCH  12  16
ENDBRANCH   8   9
BRANCH   1  20
ATOM     19  C   UNL     1       2.412   8.249  17.933  0.00  0.00    +0.000 C 
ATOM     20  S   UNL     1       3.870   7.206  17.674  0.00  0.00    +0.000 S 
ENDBRANCH   1  20
TORSDOF 5
ENDMDL
MODEL 6
REMARK VINA RESULT:      -5.9      2.477      3.837
REMARK  Name = 
REMARK  6 active torsions:
REMARK  status: ('A' for Active; 'I' for Inactive)
REMARK    1  A    between atoms: C_1  and  S_2
REMARK    2  A    between atoms: S_2  and  C_3
REMARK    3  A    between atoms: N_10  and  C1*_11
REMARK    4  A    between atoms: C3*_13  and  O3*_14
REMARK    5  A    between atoms: C4*_15  and  C5*_16
REMARK    6  A    between atoms: C5*_16  and  O5*_17
REMARK                            x       y       z     vdW  Elec       q    Type
REMARK                         _______ _______ _______ _____ _____    ______ ____
ROOT
ATOM      1  C   UNL     1       7.185   6.023  17.291  0.00  0.00    +0.000 A 
ATOM      2  N   UNL     1       7.683   6.006  16.064  0.00  0.00    +0.000 NA
ATOM      3  C   UNL     1       6.860   5.165  15.405  0.00  0.00    +0.000 A 
ATOM      4  C   UNL     1       6.777   4.674  14.097  0.00  0.00    +0.000 A 
ATOM      5  N   UNL     1       5.750   3.833  13.877  0.00  0.00    +0.000 NA
ATOM      6  S   UNL     1       4.899   3.656  15.325  0.00  0.00    +0.000 S 
ATOM      7  C   UNL     1       5.878   4.683  16.188  0.00  0.00    +0.000 A 
ATOM      8  N   UNL     1       6.061   5.211  17.423  0.00  0.00    +0.000 N 
ENDROOT
BRANCH   8   9
ATOM      9  C1* UNL     1       5.290   4.962  18.631  0.00  0.00    +0.000 C 
ATOM     10  C2* UNL     1       3.818   5.330  18.530  0.00  0.00    +0.000 C 
ATOM     11  C3* UNL     1       3.146   4.356  19.467  0.00  0.00    +0.000 C 
ATOM     12  C4* UNL     1       4.043   3.125  19.439  0.00  0.00    +0.000 C 
ATOM     13  O4* UNL     1       5.340   3.559  18.970  0.00  0.00    +0.000 OA
BRANCH  11  14
ATOM     14  O3* UNL     1       3.080   4.930  20.772  0.00  0.00    +0.000 OA
ATOM     15  H3* UNL     1       2.442   4.438  21.316  0.00  0.00    +0.000 HD
ENDBRANCH  11  14
BRANCH  12  16
ATOM     16  C5* UNL     1       3.506   2.036  18.506  0.00  0.00    +0.000 C 
BRANCH  16  17
ATOM     17  O5* UNL     1       4.324   0.871  18.573  0.00  0.00    +0.000 OA
ATOM     18  H5* UNL     1       4.170   0.372  17.749  0.00  0.00    +0.000 HD
ENDBRANCH  16  17
ENDBRANCH  12  16
ENDBRANCH   8   9
BRANCH   1  20
ATOM     19  C   UNL     1       7.981   8.592  17.809  0.00  0.00    +0.000 C 
ATOM     20  S   UNL     1       7.829   6.968  18.596  0.00  0.00    +0.000 S 
ENDBRANCH   1  20
TORSDOF 5
ENDMDL
MODEL 7
REMARK VINA RESULT:      -5.8      2.795      4.912
REMARK  Name = 
REMARK  6 active torsions:
REMARK  status: ('A' for Active; 'I' for Inactive)
REMARK    1  A    between atoms: C_1  and  S_2
REMARK    2  A    between atoms: S_2  and  C_3
REMARK    3  A    between atoms: N_10  and  C1*_11
REMARK    4  A    between atoms: C3*_13  and  O3*_14
REMARK    5  A    between atoms: C4*_15  and  C5*_16
REMARK    6  A    between atoms: C5*_16  and  O5*_17
REMARK                            x       y       z     vdW  Elec       q    Type
REMARK                         _______ _______ _______ _____ _____    ______ ____
ROOT
ATOM      1  C   UNL     1       2.718   6.647  18.773  0.00  0.00    +0.000 A 
ATOM      2  N   UNL     1       1.894   5.997  19.581  0.00  0.00    +0.000 NA
ATOM      3  C   UNL     1       2.534   4.832  19.809  0.00  0.00    +0.000 A 
ATOM      4  C   UNL     1       2.266   3.677  20.552  0.00  0.00    +0.000 A 
ATOM      5  N   UNL     1       3.227   2.736  20.494  0.00  0.00    +0.000 NA
ATOM      6  S   UNL     1       4.461   3.310  19.494  0.00  0.00    +0.000 S 
ATOM      7  C   UNL     1       3.720   4.762  19.177  0.00  0.00    +0.000 A 
ATOM      8  N   UNL     1       3.870   5.919  18.487  0.00  0.00    +0.000 N 
ENDROOT
BRANCH   8   9
ATOM      9  C1* UNL     1       4.963   6.307  17.608  0.00  0.00    +0.000 C 
ATOM     10  C2* UNL     1       6.340   5.864  18.078  0.00  0.00    +0.000 C 
ATOM     11  C3* UNL     1       7.106   5.673  16.792  0.00  0.00    +0.000 C 
ATOM     12  C4* UNL     1       6.043   5.283  15.774  0.00  0.00    +0.000 C 
ATOM     13  O4* UNL     1       4.772   5.732  16.298  0.00  0.00    +0.000 OA
BRANCH  11  14
ATOM     14  O3* UNL     1       7.747   6.899  16.441  0.00  0.00    +0.000 OA
ATOM     15  H3* UNL     1       8.161   6.814  15.565  0.00  0.00    +0.000 HD
ENDBRANCH  11  14
BRANCH  12  16
ATOM     16  C5* UNL     1       5.989   3.771  15.540  0.00  0.00    +0.000 C 
BRANCH  16  17
ATOM     17  O5* UNL     1       6.322   3.460  14.190  0.00  0.00    +0.000 OA
ATOM     18  H5* UNL     1       6.791   2.604  14.206  0.00  0.00    +0.000 HD
ENDBRANCH  16  17
ENDBRANCH  12  16
ENDBRANCH   8   9
BRANCH   1  20
ATOM     19  C   UNL     1       1.409   8.948  19.475  0.00  0.00    +0.000 C 
ATOM     20  S   UNL     1       2.427   8.241  18.154  0.00  0.00    +0.000 S 
ENDBRANCH   1  20
TORSDOF 5
ENDMDL
MODEL 8
REMARK VINA RESULT:      -5.8      2.902      4.837
REMARK  Name = 
REMARK  6 active torsions:
REMARK  status: ('A' for Active; 'I' for Inactive)
REMARK    1  A    between atoms: C_1  and  S_2
REMARK    2  A    between atoms: S_2  and  C_3
REMARK    3  A    between atoms: N_10  and  C1*_11
REMARK    4  A    between atoms: C3*_13  and  O3*_14
REMARK    5  A    between atoms: C4*_15  and  C5*_16
REMARK    6  A    between atoms: C5*_16  and  O5*_17
REMARK                            x       y       z     vdW  Elec       q    Type
REMARK                         _______ _______ _______ _____ _____    ______ ____
ROOT
ATOM      1  C   UNL     1       3.202   5.966  18.626  0.00  0.00    +0.000 A 
ATOM      2  N   UNL     1       2.174   5.881  19.458  0.00  0.00    +0.000 NA
ATOM      3  C   UNL     1       2.326   4.664  20.019  0.00  0.00    +0.000 A 
ATOM      4  C   UNL     1       1.627   3.910  20.968  0.00  0.00    +0.000 A 
ATOM      5  N   UNL     1       2.167   2.708  21.240  0.00  0.00    +0.000 NA
ATOM      6  S   UNL     1       3.551   2.529  20.288  0.00  0.00    +0.000 S 
ATOM      7  C   UNL     1       3.415   4.017  19.564  0.00  0.00    +0.000 A 
ATOM      8  N   UNL     1       4.004   4.828  18.651  0.00  0.00    +0.000 N 
ENDROOT
BRANCH   8   9
ATOM      9  C1* UNL     1       5.184   4.565  17.842  0.00  0.00    +0.000 C 
ATOM     10  C2* UNL     1       5.586   5.704  16.918  0.00  0.00    +0.000 C 
ATOM     11  C3* UNL     1       7.085   5.560  16.812  0.00  0.00    +0.000 C 
ATOM     12  C4* UNL     1       7.499   4.936  18.139  0.00  0.00    +0.000 C 
ATOM     13  O4* UNL     1       6.321   4.308  18.695  0.00  0.00    +0.000 OA
BRANCH  11  14
ATOM     14  O3* UNL     1       7.397   4.709  15.710  0.00  0.00    +0.000 OA
ATOM     15  H3* UNL     1       8.083   5.123  15.158  0.00  0.00    +0.000 HD
ENDBRANCH  11  14
BRANCH  12  16
ATOM     16  C5* UNL     1       8.034   5.974  19.127  0.00  0.00    +0.000 C 
BRANCH  16  17
ATOM     17  O5* UNL     1       7.967   5.478  20.462  0.00  0.00    +0.000 OA
ATOM     18  H5* UNL     1       7.086   5.071  20.567  0.00  0.00    +0.000 HD
ENDBRANCH  16  17
ENDBRANCH  12  16
ENDBRANCH   8   9
BRANCH   1  20
ATOM     19  C   UNL     1       2.116   8.399  17.992  0.00  0.00    +0.000 C 
ATOM     20  S   UNL     1       3.544   7.345  17.631  0.00  0.00    +0.000 S 
ENDBRANCH   1  20
TORSDOF 5
ENDMDL
MODEL 9
REMARK VINA RESULT:      -5.8      2.726      4.442
REMARK  Name = 
REMARK  6 active torsions:
REMARK  status: ('A' for Active; 'I' for Inactive)
REMARK    1  A    between atoms: C_1  and  S_2
REMARK    2  A    between atoms: S_2  and  C_3
REMARK    3  A    between atoms: N_10  and  C1*_11
REMARK    4  A    between atoms: C3*_13  and  O3*_14
REMARK    5  A    between atoms: C4*_15  and  C5*_16
REMARK    6  A    between atoms: C5*_16  and  O5*_17
REMARK                            x       y       z     vdW  Elec       q    Type
REMARK                         _______ _______ _______ _____ _____    ______ ____
ROOT
ATOM      1  C   UNL     1       3.502   4.072  19.661  0.00  0.00    +0.000 A 
ATOM      2  N   UNL     1       2.499   4.651  20.304  0.00  0.00    +0.000 NA
ATOM      3  C   UNL     1       2.447   5.882  19.755  0.00  0.00    +0.000 A 
ATOM      4  C   UNL     1       1.654   7.021  19.937  0.00  0.00    +0.000 A 
ATOM      5  N   UNL     1       1.964   8.055  19.134  0.00  0.00    +0.000 NA
ATOM      6  S   UNL     1       3.263   7.590  18.160  0.00  0.00    +0.000 S 
ATOM      7  C   UNL     1       3.375   6.061  18.797  0.00  0.00    +0.000 A 
ATOM      8  N   UNL     1       4.085   4.910  18.714  0.00  0.00    +0.000 N 
ENDROOT
BRANCH   8   9
ATOM      9  C1* UNL     1       5.228   4.617  17.862  0.00  0.00    +0.000 C 
ATOM     10  C2* UNL     1       5.627   5.749  16.928  0.00  0.00    +0.000 C 
ATOM     11  C3* UNL     1       7.116   5.563  16.767  0.00  0.00    +0.000 C 
ATOM     12  C4* UNL     1       7.561   4.922  18.075  0.00  0.00    +0.000 C 
ATOM     13  O4* UNL     1       6.387   4.325  18.672  0.00  0.00    +0.000 OA
BRANCH  11  14
ATOM     14  O3* UNL     1       7.364   4.709  15.650  0.00  0.00    +0.000 OA
ATOM     15  H3* UNL     1       7.891   3.942  15.934  0.00  0.00    +0.000 HD
ENDBRANCH  11  14
BRANCH  12  16
ATOM     16  C5* UNL     1       8.161   5.940  19.047  0.00  0.00    +0.000 C 
BRANCH  16  17
ATOM     17  O5* UNL     1       7.984   5.511  20.395  0.00  0.00    +0.000 OA
ATOM     18  H5* UNL     1       8.586   6.051  20.943  0.00  0.00    +0.000 HD
ENDBRANCH  16  17
ENDBRANCH  12  16
ENDBRANCH   8   9
BRANCH   1  20
ATOM     19  C   UNL     1       3.345   1.606  18.478  0.00  0.00    +0.000 C 
ATOM     20  S   UNL     1       4.027   2.441  19.934  0.00  0.00    +0.000 S 
ENDBRANCH   1  20
TORSDOF 5
ENDMDL
