MODEL 1
REMARK VINA RESULT:      -8.8      0.000      0.000
REMARK  Name = 
REMARK  5 active torsions:
REMARK  status: ('A' for Active; 'I' for Inactive)
REMARK    1  A    between atoms: C_1  and  O_2
REMARK    2  A    between atoms: O_2  and  C_3
REMARK    3  A    between atoms: C_6  and  C_7
REMARK    4  A    between atoms: C_9  and  N_10
REMARK    5  A    between atoms: C_22  and  C_23
REMARK                            x       y       z     vdW  Elec       q    Type
REMARK                         _______ _______ _______ _____ _____    ______ ____
ROOT
ATOM      1  N   UNL     1       4.498   3.534  17.450  0.00  0.00    +0.000 N 
ATOM      2  C   UNL     1       3.713   4.439  18.154  0.00  0.00    +0.000 A 
ATOM      3  N   UNL     1       3.424   5.624  17.671  0.00  0.00    +0.000 NA
ATOM      4  C   UNL     1       2.715   6.576  18.433  0.00  0.00    +0.000 A 
ATOM      5  C   UNL     1       2.499   7.842  17.887  0.00  0.00    +0.000 A 
ATOM      6  C   UNL     1       1.862   8.832  18.638  0.00  0.00    +0.000 A 
ATOM      7  C   UNL     1       1.434   8.559  19.938  0.00  0.00    +0.000 A 
ATOM      8  C   UNL     1       1.635   7.291  20.489  0.00  0.00    +0.000 A 
ATOM      9  C   UNL     1       2.273   6.304  19.735  0.00  0.00    +0.000 A 
ATOM     10  C   UNL     1       2.550   4.976  20.234  0.00  0.00    +0.000 A 
ATOM     11  N   UNL     1       2.257   4.419  21.386  0.00  0.00    +0.000 NA
ATOM     12  N   UNL     1       2.784   3.151  21.376  0.00  0.00    +0.000 NA
ATOM     13  C   UNL     1       3.392   2.957  20.221  0.00  0.00    +0.000 A 
ATOM     14  C   UNL     1       4.114   1.729  19.832  0.00  0.00    +0.000 C 
ATOM     15  N   UNL     1       3.253   4.089  19.444  0.00  0.00    +0.000 N 
ATOM     16  H   UNL     1       4.023   2.690  17.134  0.00  0.00    +0.000 HD
ENDROOT
BRANCH   1  23
ATOM     17  C   UNL     1       6.585   4.688  16.803  0.00  0.00    +0.000 A 
ATOM     18  C   UNL     1       7.503   5.044  15.805  0.00  0.00    +0.000 A 
ATOM     19  C   UNL     1       7.255   4.741  14.463  0.00  0.00    +0.000 A 
ATOM     20  C   UNL     1       6.081   4.090  14.095  0.00  0.00    +0.000 A 
ATOM     21  C   UNL     1       5.781   3.763  12.663  0.00  0.00    +0.000 C 
ATOM     22  C   UNL     1       5.175   3.720  15.094  0.00  0.00    +0.000 A 
ATOM     23  C   UNL     1       5.431   3.959  16.457  0.00  0.00    +0.000 A 
BRANCH  17  25
ATOM     24  C   UNL     1       7.580   6.116  18.408  0.00  0.00    +0.000 C 
ATOM     25  O   UNL     1       6.753   4.982  18.138  0.00  0.00    +0.000 OA
ENDBRANCH  17  25
ENDBRANCH   1  23
TORSDOF 2
ENDMDL
MODEL 2
REMARK VINA RESULT:      -7.2      1.536      3.572
REMARK  Name = 
REMARK  5 active torsions:
REMARK  status: ('A' for Active; 'I' for Inactive)
REMARK    1  A    between atoms: C_1  and  O_2
REMARK    2  A    between atoms: O_2  and  C_3
REMARK    3  A    between atoms: C_6  and  C_7
REMARK    4  A    between atoms: C_9  and  N_10
REMARK    5  A    between atoms: C_22  and  C_23
REMARK                            x       y       z     vdW  Elec       q    Type
REMARK                         _______ _______ _______ _____ _____    ______ ____
ROOT
ATOM      1  N   UNL     1       4.812   6.615  17.470  0.00  0.00    +0.000 N 
ATOM      2  C   UNL     1       4.111   5.976  18.487  0.00  0.00    +0.000 A 
ATOM      3  N   UNL     1       4.452   4.785  18.918  0.00  0.00    +0.000 NA
ATOM      4  C   UNL     1       3.676   4.099  19.875  0.00  0.00    +0.000 A 
ATOM      5  C   UNL     1       4.054   2.807  20.241  0.00  0.00    +0.000 A 
ATOM      6  C   UNL     1       3.273   2.072  21.134  0.00  0.00    +0.000 A 
ATOM      7  C   UNL     1       2.111   2.628  21.670  0.00  0.00    +0.000 A 
ATOM      8  C   UNL     1       1.729   3.925  21.320  0.00  0.00    +0.000 A 
ATOM      9  C   UNL     1       2.514   4.657  20.426  0.00  0.00    +0.000 A 
ATOM     10  C   UNL     1       2.181   5.992  19.984  0.00  0.00    +0.000 A 
ATOM     11  N   UNL     1       1.185   6.779  20.318  0.00  0.00    +0.000 NA
ATOM     12  N   UNL     1       1.301   7.929  19.578  0.00  0.00    +0.000 NA
ATOM     13  C   UNL     1       2.363   7.825  18.803  0.00  0.00    +0.000 A 
ATOM     14  C   UNL     1       2.814   8.841  17.830  0.00  0.00    +0.000 C 
ATOM     15  N   UNL     1       2.975   6.610  19.039  0.00  0.00    +0.000 N 
ATOM     16  H   UNL     1       5.320   7.453  17.743  0.00  0.00    +0.000 HD
ENDROOT
BRANCH   1  23
ATOM     17  C   UNL     1       6.977   5.800  16.599  0.00  0.00    +0.000 A 
ATOM     18  C   UNL     1       7.684   5.033  15.664  0.00  0.00    +0.000 A 
ATOM     19  C   UNL     1       7.023   4.404  14.605  0.00  0.00    +0.000 A 
ATOM     20  C   UNL     1       5.645   4.544  14.456  0.00  0.00    +0.000 A 
ATOM     21  C   UNL     1       4.909   3.892  13.324  0.00  0.00    +0.000 C 
ATOM     22  C   UNL     1       4.938   5.295  15.400  0.00  0.00    +0.000 A 
ATOM     23  C   UNL     1       5.573   5.886  16.508  0.00  0.00    +0.000 A 
BRANCH  17  25
ATOM     24  C   UNL     1       7.861   5.663  18.791  0.00  0.00    +0.000 C 
ATOM     25  O   UNL     1       7.570   6.469  17.647  0.00  0.00    +0.000 OA
ENDBRANCH  17  25
ENDBRANCH   1  23
TORSDOF 2
ENDMDL
MODEL 3
REMARK VINA RESULT:      -7.1      6.119      9.769
REMARK  Name = 
REMARK  5 active torsions:
REMARK  status: ('A' for Active; 'I' for Inactive)
REMARK    1  A    between atoms: C_1  and  O_2
REMARK    2  A    between atoms: O_2  and  C_3
REMARK    3  A    between atoms: C_6  and  C_7
REMARK    4  A    between atoms: C_9  and  N_10
REMARK    5  A    between atoms: C_22  and  C_23
REMARK                            x       y       z     vdW  Elec       q    Type
REMARK                         _______ _______ _______ _____ _____    ______ ____
ROOT
ATOM      1  N   UNL     1      -2.260  11.826  20.082  0.00  0.00    +0.000 N 
ATOM      2  C   UNL     1      -1.144  10.997  20.104  0.00  0.00    +0.000 A 
ATOM      3  N   UNL     1      -0.607  10.533  19.000  0.00  0.00    +0.000 NA
ATOM      4  C   UNL     1       0.458   9.610  19.033  0.00  0.00    +0.000 A 
ATOM      5  C   UNL     1       0.940   9.102  17.826  0.00  0.00    +0.000 A 
ATOM      6  C   UNL     1       1.947   8.136  17.821  0.00  0.00    +0.000 A 
ATOM      7  C   UNL     1       2.481   7.674  19.025  0.00  0.00    +0.000 A 
ATOM      8  C   UNL     1       2.015   8.184  20.238  0.00  0.00    +0.000 A 
ATOM      9  C   UNL     1       1.007   9.151  20.239  0.00  0.00    +0.000 A 
ATOM     10  C   UNL     1       0.443   9.712  21.445  0.00  0.00    +0.000 A 
ATOM     11  N   UNL     1       0.743   9.503  22.705  0.00  0.00    +0.000 NA
ATOM     12  N   UNL     1      -0.122  10.251  23.466  0.00  0.00    +0.000 NA
ATOM     13  C   UNL     1      -0.936  10.902  22.657  0.00  0.00    +0.000 A 
ATOM     14  C   UNL     1      -2.035  11.791  23.087  0.00  0.00    +0.000 C 
ATOM     15  N   UNL     1      -0.604  10.607  21.351  0.00  0.00    +0.000 N 
ATOM     16  H   UNL     1      -2.105  12.782  20.399  0.00  0.00    +0.000 HD
ENDROOT
BRANCH   1  23
ATOM     17  C   UNL     1      -4.507  12.261  19.150  0.00  0.00    +0.000 A 
ATOM     18  C   UNL     1      -5.363  12.294  18.040  0.00  0.00    +0.000 A 
ATOM     19  C   UNL     1      -4.933  11.839  16.791  0.00  0.00    +0.000 A 
ATOM     20  C   UNL     1      -3.645  11.332  16.632  0.00  0.00    +0.000 A 
ATOM     21  C   UNL     1      -3.160  10.826  15.307  0.00  0.00    +0.000 C 
ATOM     22  C   UNL     1      -2.787  11.317  17.735  0.00  0.00    +0.000 A 
ATOM     23  C   UNL     1      -3.176  11.826  18.989  0.00  0.00    +0.000 A 
BRANCH  17  25
ATOM     24  C   UNL     1      -6.112  12.125  20.884  0.00  0.00    +0.000 C 
ATOM     25  O   UNL     1      -4.875  12.665  20.414  0.00  0.00    +0.000 OA
ENDBRANCH  17  25
ENDBRANCH   1  23
TORSDOF 2
ENDMDL
MODEL 4
REMARK VINA RESULT:      -6.9      8.277     11.444
REMARK  Name = 
REMARK  5 active torsions:
REMARK  status: ('A' for Active; 'I' for Inactive)
REMARK    1  A    between atoms: C_1  and  O_2
REMARK    2  A    between atoms: O_2  and  C_3
REMARK    3  A    between atoms: C_6  and  C_7
REMARK    4  A    between atoms: C_9  and  N_10
REMARK    5  A    between atoms: C_22  and  C_23
REMARK                            x       y       z     vdW  Elec       q    Type
REMARK                         _______ _______ _______ _____ _____    ______ ____
ROOT
ATOM      1  N   UNL     1      -2.794  12.428  19.028  0.00  0.00    +0.000 N 
ATOM      2  C   UNL     1      -3.941  12.481  19.811  0.00  0.00    +0.000 A 
ATOM      3  N   UNL     1      -3.892  12.786  21.087  0.00  0.00    +0.000 NA
ATOM      4  C   UNL     1      -5.044  12.737  21.899  0.00  0.00    +0.000 A 
ATOM      5  C   UNL     1      -4.912  13.005  23.262  0.00  0.00    +0.000 A 
ATOM      6  C   UNL     1      -6.017  12.899  24.109  0.00  0.00    +0.000 A 
ATOM      7  C   UNL     1      -7.261  12.529  23.596  0.00  0.00    +0.000 A 
ATOM      8  C   UNL     1      -7.406  12.270  22.231  0.00  0.00    +0.000 A 
ATOM      9  C   UNL     1      -6.298  12.376  21.387  0.00  0.00    +0.000 A 
ATOM     10  C   UNL     1      -6.348  12.098  19.970  0.00  0.00    +0.000 A 
ATOM     11  N   UNL     1      -7.356  11.755  19.202  0.00  0.00    +0.000 NA
ATOM     12  N   UNL     1      -6.863  11.565  17.934  0.00  0.00    +0.000 NA
ATOM     13  C   UNL     1      -5.564  11.790  17.951  0.00  0.00    +0.000 A 
ATOM     14  C   UNL     1      -4.659  11.659  16.790  0.00  0.00    +0.000 C 
ATOM     15  N   UNL     1      -5.186  12.155  19.227  0.00  0.00    +0.000 N 
ATOM     16  H   UNL     1      -2.723  13.136  18.300  0.00  0.00    +0.000 HD
ENDROOT
BRANCH   1  23
ATOM     17  C   UNL     1      -0.613  13.253  19.847  0.00  0.00    +0.000 A 
ATOM     18  C   UNL     1       0.623  12.987  20.451  0.00  0.00    +0.000 A 
ATOM     19  C   UNL     1       1.009  11.676  20.747  0.00  0.00    +0.000 A 
ATOM     20  C   UNL     1       0.171  10.610  20.432  0.00  0.00    +0.000 A 
ATOM     21  C   UNL     1       0.562   9.192  20.726  0.00  0.00    +0.000 C 
ATOM     22  C   UNL     1      -1.070  10.878  19.846  0.00  0.00    +0.000 A 
ATOM     23  C   UNL     1      -1.506  12.193  19.594  0.00  0.00    +0.000 A 
BRANCH  17  25
ATOM     24  C   UNL     1      -0.023  15.380  18.992  0.00  0.00    +0.000 C 
ATOM     25  O   UNL     1      -1.041  14.516  19.502  0.00  0.00    +0.000 OA
ENDBRANCH  17  25
ENDBRANCH   1  23
TORSDOF 2
ENDMDL
MODEL 5
REMARK VINA RESULT:      -6.8      8.261     11.151
REMARK  Name = 
REMARK  5 active torsions:
REMARK  status: ('A' for Active; 'I' for Inactive)
REMARK    1  A    between atoms: C_1  and  O_2
REMARK    2  A    between atoms: O_2  and  C_3
REMARK    3  A    between atoms: C_6  and  C_7
REMARK    4  A    between atoms: C_9  and  N_10
REMARK    5  A    between atoms: C_22  and  C_23
REMARK                            x       y       z     vdW  Elec       q    Type
REMARK                         _______ _______ _______ _____ _____    ______ ____
ROOT
ATOM      1  N   UNL     1      -3.066  12.313  18.562  0.00  0.00    +0.000 N 
ATOM      2  C   UNL     1      -3.831  12.499  19.707  0.00  0.00    +0.000 A 
ATOM      3  N   UNL     1      -3.283  12.599  20.896  0.00  0.00    +0.000 NA
ATOM      4  C   UNL     1      -4.069  12.682  22.063  0.00  0.00    +0.000 A 
ATOM      5  C   UNL     1      -3.426  12.716  23.301  0.00  0.00    +0.000 A 
ATOM      6  C   UNL     1      -4.172  12.730  24.481  0.00  0.00    +0.000 A 
ATOM      7  C   UNL     1      -5.566  12.714  24.429  0.00  0.00    +0.000 A 
ATOM      8  C   UNL     1      -6.220  12.692  23.195  0.00  0.00    +0.000 A 
ATOM      9  C   UNL     1      -5.470  12.678  22.017  0.00  0.00    +0.000 A 
ATOM     10  C   UNL     1      -6.060  12.625  20.698  0.00  0.00    +0.000 A 
ATOM     11  N   UNL     1      -7.319  12.622  20.326  0.00  0.00    +0.000 NA
ATOM     12  N   UNL     1      -7.344  12.515  18.957  0.00  0.00    +0.000 NA
ATOM     13  C   UNL     1      -6.102  12.450  18.518  0.00  0.00    +0.000 A 
ATOM     14  C   UNL     1      -5.703  12.296  17.104  0.00  0.00    +0.000 C 
ATOM     15  N   UNL     1      -5.239  12.537  19.592  0.00  0.00    +0.000 N 
ATOM     16  H   UNL     1      -3.066  13.088  17.901  0.00  0.00    +0.000 HD
ENDROOT
BRANCH   1  23
ATOM     17  C   UNL     1      -1.536  10.417  18.146  0.00  0.00    +0.000 A 
ATOM     18  C   UNL     1      -0.236   9.895  18.166  0.00  0.00    +0.000 A 
ATOM     19  C   UNL     1       0.824  10.632  18.702  0.00  0.00    +0.000 A 
ATOM     20  C   UNL     1       0.600  11.897  19.238  0.00  0.00    +0.000 A 
ATOM     21  C   UNL     1       1.714  12.706  19.830  0.00  0.00    +0.000 C 
ATOM     22  C   UNL     1      -0.694  12.424  19.202  0.00  0.00    +0.000 A 
ATOM     23  C   UNL     1      -1.766  11.727  18.612  0.00  0.00    +0.000 A 
BRANCH  17  25
ATOM     24  C   UNL     1      -2.760   9.735  16.239  0.00  0.00    +0.000 C 
ATOM     25  O   UNL     1      -2.629   9.733  17.662  0.00  0.00    +0.000 OA
ENDBRANCH  17  25
ENDBRANCH   1  23
TORSDOF 2
ENDMDL
MODEL 6
REMARK VINA RESULT:      -6.8      1.142      2.514
REMARK  Name = 
REMARK  5 active torsions:
REMARK  status: ('A' for Active; 'I' for Inactive)
REMARK    1  A    between atoms: C_1  and  O_2
REMARK    2  A    between atoms: O_2  and  C_3
REMARK    3  A    between atoms: C_6  and  C_7
REMARK    4  A    between atoms: C_9  and  N_10
REMARK    5  A    between atoms: C_22  and  C_23
REMARK                            x       y       z     vdW  Elec       q    Type
REMARK                         _______ _______ _______ _____ _____    ______ ____
ROOT
ATOM      1  N   UNL     1       4.802   4.296  18.071  0.00  0.00    +0.000 N 
ATOM      2  C   UNL     1       3.792   4.911  18.801  0.00  0.00    +0.000 A 
ATOM      3  N   UNL     1       3.410   6.141  18.551  0.00  0.00    +0.000 NA
ATOM      4  C   UNL     1       2.460   6.795  19.361  0.00  0.00    +0.000 A 
ATOM      5  C   UNL     1       2.148   8.127  19.084  0.00  0.00    +0.000 A 
ATOM      6  C   UNL     1       1.263   8.828  19.905  0.00  0.00    +0.000 A 
ATOM      7  C   UNL     1       0.682   8.199  21.007  0.00  0.00    +0.000 A 
ATOM      8  C   UNL     1       0.979   6.863  21.287  0.00  0.00    +0.000 A 
ATOM      9  C   UNL     1       1.864   6.166  20.463  0.00  0.00    +0.000 A 
ATOM     10  C   UNL     1       2.253   4.792  20.694  0.00  0.00    +0.000 A 
ATOM     11  N   UNL     1       1.869   3.940  21.616  0.00  0.00    +0.000 NA
ATOM     12  N   UNL     1       2.572   2.777  21.420  0.00  0.00    +0.000 NA
ATOM     13  C   UNL     1       3.374   2.940  20.386  0.00  0.00    +0.000 A 
ATOM     14  C   UNL     1       4.321   1.929  19.872  0.00  0.00    +0.000 C 
ATOM     15  N   UNL     1       3.193   4.207  19.871  0.00  0.00    +0.000 N 
ATOM     16  H   UNL     1       4.511   3.511  17.490  0.00  0.00    +0.000 HD
ENDROOT
BRANCH   1  23
ATOM     17  C   UNL     1       6.178   4.742  16.067  0.00  0.00    +0.000 A 
ATOM     18  C   UNL     1       7.132   5.537  15.416  0.00  0.00    +0.000 A 
ATOM     19  C   UNL     1       7.763   6.590  16.084  0.00  0.00    +0.000 A 
ATOM     20  C   UNL     1       7.462   6.857  17.417  0.00  0.00    +0.000 A 
ATOM     21  C   UNL     1       8.132   7.972  18.163  0.00  0.00    +0.000 C 
ATOM     22  C   UNL     1       6.499   6.075  18.060  0.00  0.00    +0.000 A 
ATOM     23  C   UNL     1       5.805   5.049  17.390  0.00  0.00    +0.000 A 
BRANCH  17  25
ATOM     24  C   UNL     1       5.567   3.666  14.049  0.00  0.00    +0.000 C 
ATOM     25  O   UNL     1       5.542   3.672  15.478  0.00  0.00    +0.000 OA
ENDBRANCH  17  25
ENDBRANCH   1  23
TORSDOF 2
ENDMDL
MODEL 7
REMARK VINA RESULT:      -6.6      2.857      6.626
REMARK  Name = 
REMARK  5 active torsions:
REMARK  status: ('A' for Active; 'I' for Inactive)
REMARK    1  A    between atoms: C_1  and  O_2
REMARK    2  A    between atoms: O_2  and  C_3
REMARK    3  A    between atoms: C_6  and  C_7
REMARK    4  A    between atoms: C_9  and  N_10
REMARK    5  A    between atoms: C_22  and  C_23
REMARK                            x       y       z     vdW  Elec       q    Type
REMARK                         _______ _______ _______ _____ _____    ______ ____
ROOT
ATOM      1  N   UNL     1       2.638   7.711  18.511  0.00  0.00    +0.000 N 
ATOM      2  C   UNL     1       2.843   6.405  18.941  0.00  0.00    +0.000 A 
ATOM      3  N   UNL     1       1.958   5.772  19.675  0.00  0.00    +0.000 NA
ATOM      4  C   UNL     1       2.217   4.487  20.194  0.00  0.00    +0.000 A 
ATOM      5  C   UNL     1       1.264   3.897  21.024  0.00  0.00    +0.000 A 
ATOM      6  C   UNL     1       1.514   2.656  21.612  0.00  0.00    +0.000 A 
ATOM      7  C   UNL     1       2.719   1.996  21.369  0.00  0.00    +0.000 A 
ATOM      8  C   UNL     1       3.676   2.572  20.530  0.00  0.00    +0.000 A 
ATOM      9  C   UNL     1       3.422   3.814  19.945  0.00  0.00    +0.000 A 
ATOM     10  C   UNL     1       4.364   4.499  19.089  0.00  0.00    +0.000 A 
ATOM     11  N   UNL     1       5.551   4.134  18.663  0.00  0.00    +0.000 NA
ATOM     12  N   UNL     1       6.053   5.166  17.909  0.00  0.00    +0.000 NA
ATOM     13  C   UNL     1       5.168   6.144  17.891  0.00  0.00    +0.000 A 
ATOM     14  C   UNL     1       5.345   7.445  17.214  0.00  0.00    +0.000 C 
ATOM     15  N   UNL     1       4.058   5.759  18.616  0.00  0.00    +0.000 N 
ATOM     16  H   UNL     1       2.520   7.831  17.507  0.00  0.00    +0.000 HD
ENDROOT
BRANCH   1  23
ATOM     17  C   UNL     1       1.549   9.916  18.745  0.00  0.00    +0.000 A 
ATOM     18  C   UNL     1       0.649  10.747  19.427  0.00  0.00    +0.000 A 
ATOM     19  C   UNL     1       0.017  10.312  20.595  0.00  0.00    +0.000 A 
ATOM     20  C   UNL     1       0.285   9.046  21.109  0.00  0.00    +0.000 A 
ATOM     21  C   UNL     1      -0.368   8.555  22.367  0.00  0.00    +0.000 C 
ATOM     22  C   UNL     1       1.168   8.211  20.418  0.00  0.00    +0.000 A 
ATOM     23  C   UNL     1       1.769   8.604  19.206  0.00  0.00    +0.000 A 
BRANCH  17  25
ATOM     24  C   UNL     1       2.681  11.648  17.595  0.00  0.00    +0.000 C 
ATOM     25  O   UNL     1       2.227  10.293  17.607  0.00  0.00    +0.000 OA
ENDBRANCH  17  25
ENDBRANCH   1  23
TORSDOF 2
ENDMDL
MODEL 8
REMARK VINA RESULT:      -6.5      8.654     11.579
REMARK  Name = 
REMARK  5 active torsions:
REMARK  status: ('A' for Active; 'I' for Inactive)
REMARK    1  A    between atoms: C_1  and  O_2
REMARK    2  A    between atoms: O_2  and  C_3
REMARK    3  A    between atoms: C_6  and  C_7
REMARK    4  A    between atoms: C_9  and  N_10
REMARK    5  A    between atoms: C_22  and  C_23
REMARK                            x       y       z     vdW  Elec       q    Type
REMARK                         _______ _______ _______ _____ _____    ______ ____
ROOT
ATOM      1  N   UNL     1      -2.920  12.547  19.076  0.00  0.00    +0.000 N 
ATOM      2  C   UNL     1      -4.068  12.556  19.860  0.00  0.00    +0.000 A 
ATOM      3  N   UNL     1      -4.028  12.844  21.140  0.00  0.00    +0.000 NA
ATOM      4  C   UNL     1      -5.178  12.750  21.951  0.00  0.00    +0.000 A 
ATOM      5  C   UNL     1      -5.054  13.004  23.317  0.00  0.00    +0.000 A 
ATOM      6  C   UNL     1      -6.155  12.854  24.163  0.00  0.00    +0.000 A 
ATOM      7  C   UNL     1      -7.387  12.454  23.644  0.00  0.00    +0.000 A 
ATOM      8  C   UNL     1      -7.525  12.209  22.276  0.00  0.00    +0.000 A 
ATOM      9  C   UNL     1      -6.421  12.360  21.434  0.00  0.00    +0.000 A 
ATOM     10  C   UNL     1      -6.463  12.099  20.013  0.00  0.00    +0.000 A 
ATOM     11  N   UNL     1      -7.460  11.738  19.240  0.00  0.00    +0.000 NA
ATOM     12  N   UNL     1      -6.962  11.579  17.970  0.00  0.00    +0.000 NA
ATOM     13  C   UNL     1      -5.670  11.843  17.990  0.00  0.00    +0.000 A 
ATOM     14  C   UNL     1      -4.762  11.754  16.828  0.00  0.00    +0.000 C 
ATOM     15  N   UNL     1      -5.303  12.201  19.271  0.00  0.00    +0.000 N 
ATOM     16  H   UNL     1      -2.870  13.267  18.359  0.00  0.00    +0.000 HD
ENDROOT
BRANCH   1  23
ATOM     17  C   UNL     1      -0.967  11.102  19.528  0.00  0.00    +0.000 A 
ATOM     18  C   UNL     1       0.326  10.956  20.051  0.00  0.00    +0.000 A 
ATOM     19  C   UNL     1       0.942  12.004  20.739  0.00  0.00    +0.000 A 
ATOM     20  C   UNL     1       0.274  13.211  20.928  0.00  0.00    +0.000 A 
ATOM     21  C   UNL     1       0.905  14.349  21.672  0.00  0.00    +0.000 C 
ATOM     22  C   UNL     1      -1.008  13.362  20.390  0.00  0.00    +0.000 A 
ATOM     23  C   UNL     1      -1.626  12.343  19.640  0.00  0.00    +0.000 A 
BRANCH  17  25
ATOM     24  C   UNL     1      -1.310   9.958  17.484  0.00  0.00    +0.000 C 
ATOM     25  O   UNL     1      -1.643  10.101  18.866  0.00  0.00    +0.000 OA
ENDBRANCH  17  25
ENDBRANCH   1  23
TORSDOF 2
ENDMDL
MODEL 9
REMARK VINA RESULT:      -6.5      8.506     12.240
REMARK  Name = 
REMARK  5 active torsions:
REMARK  status: ('A' for Active; 'I' for Inactive)
REMARK    1  A    between atoms: C_1  and  O_2
REMARK    2  A    between atoms: O_2  and  C_3
REMARK    3  A    between atoms: C_6  and  C_7
REMARK    4  A    between atoms: C_9  and  N_10
REMARK    5  A    between atoms: C_22  and  C_23
REMARK                            x       y       z     vdW  Elec       q    Type
REMARK                         _______ _______ _______ _____ _____    ______ ____
ROOT
ATOM      1  N   UNL     1      -3.219  13.109  21.148  0.00  0.00    +0.000 N 
ATOM      2  C   UNL     1      -2.857  12.371  20.027  0.00  0.00    +0.000 A 
ATOM      3  N   UNL     1      -3.623  12.309  18.964  0.00  0.00    +0.000 NA
ATOM      4  C   UNL     1      -3.301  11.476  17.873  0.00  0.00    +0.000 A 
ATOM      5  C   UNL     1      -4.192  11.403  16.802  0.00  0.00    +0.000 A 
ATOM      6  C   UNL     1      -3.941  10.538  15.735  0.00  0.00    +0.000 A 
ATOM      7  C   UNL     1      -2.794   9.743  15.733  0.00  0.00    +0.000 A 
ATOM      8  C   UNL     1      -1.889   9.817  16.794  0.00  0.00    +0.000 A 
ATOM      9  C   UNL     1      -2.144  10.684  17.859  0.00  0.00    +0.000 A 
ATOM     10  C   UNL     1      -1.281  10.804  19.013  0.00  0.00    +0.000 A 
ATOM     11  N   UNL     1      -0.139  10.218  19.289  0.00  0.00    +0.000 NA
ATOM     12  N   UNL     1       0.252  10.643  20.535  0.00  0.00    +0.000 NA
ATOM     13  C   UNL     1      -0.659  11.477  20.999  0.00  0.00    +0.000 A 
ATOM     14  C   UNL     1      -0.623  12.130  22.324  0.00  0.00    +0.000 C 
ATOM     15  N   UNL     1      -1.653  11.631  20.053  0.00  0.00    +0.000 N 
ATOM     16  H   UNL     1      -2.637  13.920  21.348  0.00  0.00    +0.000 HD
ENDROOT
BRANCH   1  23
ATOM     17  C   UNL     1      -5.197  12.950  22.621  0.00  0.00    +0.000 A 
ATOM     18  C   UNL     1      -6.522  13.312  22.897  0.00  0.00    +0.000 A 
ATOM     19  C   UNL     1      -7.262  14.072  21.987  0.00  0.00    +0.000 A 
ATOM     20  C   UNL     1      -6.694  14.472  20.780  0.00  0.00    +0.000 A 
ATOM     21  C   UNL     1      -7.466  15.278  19.779  0.00  0.00    +0.000 C 
ATOM     22  C   UNL     1      -5.366  14.125  20.514  0.00  0.00    +0.000 A 
ATOM     23  C   UNL     1      -4.581  13.413  21.441  0.00  0.00    +0.000 A 
BRANCH  17  25
ATOM     24  C   UNL     1      -4.693  12.342  24.852  0.00  0.00    +0.000 C 
ATOM     25  O   UNL     1      -4.422  12.178  23.459  0.00  0.00    +0.000 OA
ENDBRANCH  17  25
ENDBRANCH   1  23
TORSDOF 2
ENDMDL
