MODEL 1
REMARK VINA RESULT:      -8.5      0.000      0.000
REMARK  Name = 
REMARK  9 active torsions:
REMARK  status: ('A' for Active; 'I' for Inactive)
REMARK    1  A    between atoms: C_2  and  O_3
REMARK    2  A    between atoms: C_2  and  C_4
REMARK    3  A    between atoms: C_4  and  C_5
REMARK    4  A    between atoms: N_8  and  C_9
REMARK    5  A    between atoms: C_9  and  C_10
REMARK    6  A    between atoms: C_10  and  C_11
REMARK    7  A    between atoms: C_11  and  C_12
REMARK    8  A    between atoms: C_19  and  C_20
REMARK    9  A    between atoms: C_20  and  C_21
REMARK                            x       y       z     vdW  Elec       q    Type
REMARK                         _______ _______ _______ _____ _____    ______ ____
ROOT
ATOM      1  C   UNL     1       1.369   4.779  20.407  0.00  0.00    +0.000 C 
ATOM      2  C   UNL     1       0.669   3.623  19.675  0.00  0.00    +0.000 C 
ATOM      3  C   UNL     1       1.540   3.004  18.584  0.00  0.00    +0.000 C 
ATOM      4  N   UNL     1       2.033   3.985  17.604  0.00  0.00    +0.000 NA
ATOM      5  C   UNL     1       2.621   5.185  18.221  0.00  0.00    +0.000 C 
ATOM      6  C   UNL     1       1.745   5.830  19.331  0.00  0.00    +0.000 C 
ENDROOT
BRANCH   1   7
ATOM      7  C   UNL     1       2.571   4.319  21.253  0.00  0.00    +0.000 C 
BRANCH   7   9
ATOM      8  O   UNL     1       1.372   2.579  22.416  0.00  0.00    +0.000 OA
ATOM      9  C   UNL     1       2.377   2.935  21.826  0.00  0.00    +0.000 C 
BRANCH   9  10
ATOM     10  O   UNL     1       3.446   2.128  21.642  0.00  0.00    +0.000 OA
ATOM     11  H   UNL     1       3.537   1.787  20.726  0.00  0.00    +0.000 HD
ENDBRANCH   9  10
ENDBRANCH   7   9
ENDBRANCH   1   7
BRANCH   4  12
ATOM     12  C   UNL     1       3.000   3.345  16.673  0.00  0.00    +0.000 C 
BRANCH  12  13
ATOM     13  C   UNL     1       4.454   3.585  17.104  0.00  0.00    +0.000 C 
BRANCH  13  14
ATOM     14  C   UNL     1       5.215   4.541  16.179  0.00  0.00    +0.000 C 
BRANCH  14  15
ATOM     15  C   UNL     1       6.231   5.335  16.972  0.00  0.00    +0.000 A 
ATOM     16  C   UNL     1       6.900   4.748  18.054  0.00  0.00    +0.000 A 
ATOM     17  C   UNL     1       7.778   5.500  18.838  0.00  0.00    +0.000 A 
ATOM     18  C   UNL     1       7.993   6.846  18.551  0.00  0.00    +0.000 A 
ATOM     19  C   UNL     1       7.336   7.441  17.476  0.00  0.00    +0.000 A 
ATOM     20  C   UNL     1       6.459   6.690  16.689  0.00  0.00    +0.000 A 
ENDBRANCH  14  15
ENDBRANCH  13  14
ENDBRANCH  12  13
ENDBRANCH   4  12
BRANCH   6  21
ATOM     21  C   UNL     1       2.450   7.091  19.870  0.00  0.00    +0.000 C 
BRANCH  21  22
ATOM     22  C   UNL     1       1.542   8.103  20.497  0.00  0.00    +0.000 A 
ATOM     23  N   UNL     1       1.160   8.092  21.759  0.00  0.00    +0.000 NA
ATOM     24  C   UNL     1       0.382   9.207  21.926  0.00  0.00    +0.000 A 
ATOM     25  C   UNL     1      -0.236   9.697  23.087  0.00  0.00    +0.000 A 
ATOM     26  C   UNL     1      -1.048  10.833  22.985  0.00  0.00    +0.000 A 
ATOM     27  C   UNL     1      -1.226  11.458  21.753  0.00  0.00    +0.000 A 
ATOM     28  F   UNL     1      -2.034  12.526  21.683  0.00  0.00    +0.000 F 
ATOM     29  C   UNL     1      -0.591  11.013  20.588  0.00  0.00    +0.000 A 
ATOM     30  C   UNL     1       0.217   9.880  20.720  0.00  0.00    +0.000 A 
ATOM     31  N   UNL     1       1.000   9.178  19.831  0.00  0.00    +0.000 N 
ATOM     32  H   UNL     1       1.146   9.412  18.859  0.00  0.00    +0.000 HD
ENDBRANCH  21  22
ENDBRANCH   6  21
TORSDOF 9
ENDMDL
MODEL 2
REMARK VINA RESULT:      -8.4      3.034      4.869
REMARK  Name = 
REMARK  9 active torsions:
REMARK  status: ('A' for Active; 'I' for Inactive)
REMARK    1  A    between atoms: C_2  and  O_3
REMARK    2  A    between atoms: C_2  and  C_4
REMARK    3  A    between atoms: C_4  and  C_5
REMARK    4  A    between atoms: N_8  and  C_9
REMARK    5  A    between atoms: C_9  and  C_10
REMARK    6  A    between atoms: C_10  and  C_11
REMARK    7  A    between atoms: C_11  and  C_12
REMARK    8  A    between atoms: C_19  and  C_20
REMARK    9  A    between atoms: C_20  and  C_21
REMARK                            x       y       z     vdW  Elec       q    Type
REMARK                         _______ _______ _______ _____ _____    ______ ____
ROOT
ATOM      1  C   UNL     1       4.349   4.841  16.556  0.00  0.00    +0.000 C 
ATOM      2  C   UNL     1       5.294   5.349  15.455  0.00  0.00    +0.000 C 
ATOM      3  C   UNL     1       6.597   5.915  16.012  0.00  0.00    +0.000 C 
ATOM      4  N   UNL     1       6.393   6.971  17.016  0.00  0.00    +0.000 NA
ATOM      5  C   UNL     1       5.413   6.612  18.054  0.00  0.00    +0.000 C 
ATOM      6  C   UNL     1       4.078   6.039  17.502  0.00  0.00    +0.000 C 
ENDROOT
BRANCH   1   7
ATOM      7  C   UNL     1       4.888   3.598  17.288  0.00  0.00    +0.000 C 
BRANCH   7   9
ATOM      8  O   UNL     1       2.666   2.660  17.268  0.00  0.00    +0.000 OA
ATOM      9  C   UNL     1       3.784   2.679  17.754  0.00  0.00    +0.000 C 
BRANCH   9  10
ATOM     10  O   UNL     1       4.149   1.891  18.790  0.00  0.00    +0.000 OA
ATOM     11  H   UNL     1       4.269   2.373  19.637  0.00  0.00    +0.000 HD
ENDBRANCH   9  10
ENDBRANCH   7   9
ENDBRANCH   1   7
BRANCH   4  12
ATOM     12  C   UNL     1       7.691   7.358  17.631  0.00  0.00    +0.000 C 
BRANCH  12  13
ATOM     13  C   UNL     1       7.865   8.883  17.690  0.00  0.00    +0.000 C 
BRANCH  13  14
ATOM     14  C   UNL     1       8.825   9.345  18.791  0.00  0.00    +0.000 C 
BRANCH  14  15
ATOM     15  C   UNL     1       9.366  10.722  18.468  0.00  0.00    +0.000 A 
ATOM     16  C   UNL     1       8.535  11.689  17.886  0.00  0.00    +0.000 A 
ATOM     17  C   UNL     1       9.049  12.933  17.511  0.00  0.00    +0.000 A 
ATOM     18  C   UNL     1      10.397  13.221  17.711  0.00  0.00    +0.000 A 
ATOM     19  C   UNL     1      11.232  12.269  18.292  0.00  0.00    +0.000 A 
ATOM     20  C   UNL     1      10.720  11.025  18.669  0.00  0.00    +0.000 A 
ENDBRANCH  14  15
ENDBRANCH  13  14
ENDBRANCH  12  13
ENDBRANCH   4  12
BRANCH   6  21
ATOM     21  C   UNL     1       3.127   5.736  18.679  0.00  0.00    +0.000 C 
BRANCH  21  22
ATOM     22  C   UNL     1       2.441   6.933  19.260  0.00  0.00    +0.000 A 
ATOM     23  N   UNL     1       2.124   8.021  18.586  0.00  0.00    +0.000 NA
ATOM     24  C   UNL     1       1.476   8.838  19.474  0.00  0.00    +0.000 A 
ATOM     25  C   UNL     1       0.888  10.095  19.262  0.00  0.00    +0.000 A 
ATOM     26  C   UNL     1       0.343  10.772  20.359  0.00  0.00    +0.000 A 
ATOM     27  C   UNL     1       0.383  10.198  21.627  0.00  0.00    +0.000 A 
ATOM     28  F   UNL     1      -0.121  10.884  22.663  0.00  0.00    +0.000 F 
ATOM     29  C   UNL     1       0.929   8.930  21.859  0.00  0.00    +0.000 A 
ATOM     30  C   UNL     1       1.463   8.275  20.745  0.00  0.00    +0.000 A 
ATOM     31  N   UNL     1       2.049   7.041  20.575  0.00  0.00    +0.000 N 
ATOM     32  H   UNL     1       2.172   6.340  21.293  0.00  0.00    +0.000 HD
ENDBRANCH  21  22
ENDBRANCH   6  21
TORSDOF 9
ENDMDL
MODEL 3
REMARK VINA RESULT:      -8.4      0.972      1.844
REMARK  Name = 
REMARK  9 active torsions:
REMARK  status: ('A' for Active; 'I' for Inactive)
REMARK    1  A    between atoms: C_2  and  O_3
REMARK    2  A    between atoms: C_2  and  C_4
REMARK    3  A    between atoms: C_4  and  C_5
REMARK    4  A    between atoms: N_8  and  C_9
REMARK    5  A    between atoms: C_9  and  C_10
REMARK    6  A    between atoms: C_10  and  C_11
REMARK    7  A    between atoms: C_11  and  C_12
REMARK    8  A    between atoms: C_19  and  C_20
REMARK    9  A    between atoms: C_20  and  C_21
REMARK                            x       y       z     vdW  Elec       q    Type
REMARK                         _______ _______ _______ _____ _____    ______ ____
ROOT
ATOM      1  C   UNL     1       1.931   4.476  19.605  0.00  0.00    +0.000 C 
ATOM      2  C   UNL     1       1.467   3.369  18.645  0.00  0.00    +0.000 C 
ATOM      3  C   UNL     1       2.605   2.816  17.792  0.00  0.00    +0.000 C 
ATOM      4  N   UNL     1       3.328   3.854  17.039  0.00  0.00    +0.000 NA
ATOM      5  C   UNL     1       3.715   5.011  17.862  0.00  0.00    +0.000 C 
ATOM      6  C   UNL     1       2.565   5.589  18.734  0.00  0.00    +0.000 C 
ENDROOT
BRANCH   1   7
ATOM      7  C   UNL     1       2.869   3.962  20.713  0.00  0.00    +0.000 C 
BRANCH   7   9
ATOM      8  O   UNL     1       1.028   2.896  21.849  0.00  0.00    +0.000 OA
ATOM      9  C   UNL     1       2.217   2.912  21.581  0.00  0.00    +0.000 C 
BRANCH   9  10
ATOM     10  O   UNL     1       3.090   1.996  22.057  0.00  0.00    +0.000 OA
ATOM     11  H   UNL     1       3.925   1.935  21.544  0.00  0.00    +0.000 HD
ENDBRANCH   9  10
ENDBRANCH   7   9
ENDBRANCH   1   7
BRANCH   4  12
ATOM     12  C   UNL     1       4.517   3.269  16.364  0.00  0.00    +0.000 C 
BRANCH  12  13
ATOM     13  C   UNL     1       5.220   4.290  15.457  0.00  0.00    +0.000 C 
BRANCH  13  14
ATOM     14  C   UNL     1       6.744   4.302  15.620  0.00  0.00    +0.000 C 
BRANCH  14  15
ATOM     15  C   UNL     1       7.141   5.231  16.747  0.00  0.00    +0.000 A 
ATOM     16  C   UNL     1       7.148   6.618  16.551  0.00  0.00    +0.000 A 
ATOM     17  C   UNL     1       7.591   7.476  17.561  0.00  0.00    +0.000 A 
ATOM     18  C   UNL     1       8.035   6.955  18.774  0.00  0.00    +0.000 A 
ATOM     19  C   UNL     1       8.030   5.578  18.983  0.00  0.00    +0.000 A 
ATOM     20  C   UNL     1       7.586   4.719  17.974  0.00  0.00    +0.000 A 
ENDBRANCH  14  15
ENDBRANCH  13  14
ENDBRANCH  12  13
ENDBRANCH   4  12
BRANCH   6  21
ATOM     21  C   UNL     1       3.084   6.814  19.517  0.00  0.00    +0.000 C 
BRANCH  21  22
ATOM     22  C   UNL     1       2.091   7.921  19.688  0.00  0.00    +0.000 A 
ATOM     23  N   UNL     1       1.681   8.721  18.723  0.00  0.00    +0.000 NA
ATOM     24  C   UNL     1       0.749   9.548  19.292  0.00  0.00    +0.000 A 
ATOM     25  C   UNL     1      -0.031  10.552  18.698  0.00  0.00    +0.000 A 
ATOM     26  C   UNL     1      -0.871  11.318  19.514  0.00  0.00    +0.000 A 
ATOM     27  C   UNL     1      -0.927  11.076  20.885  0.00  0.00    +0.000 A 
ATOM     28  F   UNL     1      -1.719  11.846  21.644  0.00  0.00    +0.000 F 
ATOM     29  C   UNL     1      -0.189  10.056  21.496  0.00  0.00    +0.000 A 
ATOM     30  C   UNL     1       0.638   9.304  20.657  0.00  0.00    +0.000 A 
ATOM     31  N   UNL     1       1.475   8.234  20.878  0.00  0.00    +0.000 N 
ATOM     32  H   UNL     1       1.614   7.765  21.763  0.00  0.00    +0.000 HD
ENDBRANCH  21  22
ENDBRANCH   6  21
TORSDOF 9
ENDMDL
MODEL 4
REMARK VINA RESULT:      -8.3      2.212      3.204
REMARK  Name = 
REMARK  9 active torsions:
REMARK  status: ('A' for Active; 'I' for Inactive)
REMARK    1  A    between atoms: C_2  and  O_3
REMARK    2  A    between atoms: C_2  and  C_4
REMARK    3  A    between atoms: C_4  and  C_5
REMARK    4  A    between atoms: N_8  and  C_9
REMARK    5  A    between atoms: C_9  and  C_10
REMARK    6  A    between atoms: C_10  and  C_11
REMARK    7  A    between atoms: C_11  and  C_12
REMARK    8  A    between atoms: C_19  and  C_20
REMARK    9  A    between atoms: C_20  and  C_21
REMARK                            x       y       z     vdW  Elec       q    Type
REMARK                         _______ _______ _______ _____ _____    ______ ____
ROOT
ATOM      1  C   UNL     1       1.905   4.683  18.547  0.00  0.00    +0.000 C 
ATOM      2  C   UNL     1       2.492   4.222  17.203  0.00  0.00    +0.000 C 
ATOM      3  C   UNL     1       3.956   3.804  17.313  0.00  0.00    +0.000 C 
ATOM      4  N   UNL     1       4.818   4.844  17.900  0.00  0.00    +0.000 NA
ATOM      5  C   UNL     1       4.274   5.425  19.137  0.00  0.00    +0.000 C 
ATOM      6  C   UNL     1       2.785   5.860  19.041  0.00  0.00    +0.000 C 
ENDROOT
BRANCH   1   7
ATOM      7  C   UNL     1       1.781   3.543  19.575  0.00  0.00    +0.000 C 
BRANCH   7   9
ATOM      8  O   UNL     1       0.120   2.134  18.539  0.00  0.00    +0.000 OA
ATOM      9  C   UNL     1       1.256   2.267  18.962  0.00  0.00    +0.000 C 
BRANCH   9  10
ATOM     10  O   UNL     1       2.167   1.268  18.949  0.00  0.00    +0.000 OA
ATOM     11  H   UNL     1       2.073   0.651  18.192  0.00  0.00    +0.000 HD
ENDBRANCH   9  10
ENDBRANCH   7   9
ENDBRANCH   1   7
BRANCH   4  12
ATOM     12  C   UNL     1       6.188   4.313  18.126  0.00  0.00    +0.000 C 
BRANCH  12  13
ATOM     13  C   UNL     1       7.132   4.649  16.962  0.00  0.00    +0.000 C 
BRANCH  13  14
ATOM     14  C   UNL     1       6.523   5.620  15.944  0.00  0.00    +0.000 C 
BRANCH  14  15
ATOM     15  C   UNL     1       6.542   5.006  14.561  0.00  0.00    +0.000 A 
ATOM     16  C   UNL     1       5.564   4.074  14.187  0.00  0.00    +0.000 A 
ATOM     17  C   UNL     1       5.623   3.444  12.942  0.00  0.00    +0.000 A 
ATOM     18  C   UNL     1       6.662   3.735  12.060  0.00  0.00    +0.000 A 
ATOM     19  C   UNL     1       7.638   4.662  12.419  0.00  0.00    +0.000 A 
ATOM     20  C   UNL     1       7.580   5.295  13.663  0.00  0.00    +0.000 A 
ENDBRANCH  14  15
ENDBRANCH  13  14
ENDBRANCH  12  13
ENDBRANCH   4  12
BRANCH   6  21
ATOM     21  C   UNL     1       2.346   6.483  20.382  0.00  0.00    +0.000 C 
BRANCH  21  22
ATOM     22  C   UNL     1       1.662   7.810  20.269  0.00  0.00    +0.000 A 
ATOM     23  N   UNL     1       0.950   8.374  21.224  0.00  0.00    +0.000 NA
ATOM     24  C   UNL     1       0.549   9.586  20.728  0.00  0.00    +0.000 A 
ATOM     25  C   UNL     1      -0.191  10.603  21.351  0.00  0.00    +0.000 A 
ATOM     26  C   UNL     1      -0.539  11.733  20.602  0.00  0.00    +0.000 A 
ATOM     27  C   UNL     1      -0.149  11.837  19.269  0.00  0.00    +0.000 A 
ATOM     28  F   UNL     1      -0.524  12.917  18.569  0.00  0.00    +0.000 F 
ATOM     29  C   UNL     1       0.621  10.855  18.634  0.00  0.00    +0.000 A 
ATOM     30  C   UNL     1       0.958   9.740  19.407  0.00  0.00    +0.000 A 
ATOM     31  N   UNL     1       1.701   8.610  19.150  0.00  0.00    +0.000 N 
ATOM     32  H   UNL     1       2.187   8.405  18.287  0.00  0.00    +0.000 HD
ENDBRANCH  21  22
ENDBRANCH   6  21
TORSDOF 9
ENDMDL
MODEL 5
REMARK VINA RESULT:      -8.3      2.266      3.335
REMARK  Name = 
REMARK  9 active torsions:
REMARK  status: ('A' for Active; 'I' for Inactive)
REMARK    1  A    between atoms: C_2  and  O_3
REMARK    2  A    between atoms: C_2  and  C_4
REMARK    3  A    between atoms: C_4  and  C_5
REMARK    4  A    between atoms: N_8  and  C_9
REMARK    5  A    between atoms: C_9  and  C_10
REMARK    6  A    between atoms: C_10  and  C_11
REMARK    7  A    between atoms: C_11  and  C_12
REMARK    8  A    between atoms: C_19  and  C_20
REMARK    9  A    between atoms: C_20  and  C_21
REMARK                            x       y       z     vdW  Elec       q    Type
REMARK                         _______ _______ _______ _____ _____    ______ ____
ROOT
ATOM      1  C   UNL     1       2.276   4.173  19.086  0.00  0.00    +0.000 C 
ATOM      2  C   UNL     1       2.863   3.631  17.774  0.00  0.00    +0.000 C 
ATOM      3  C   UNL     1       4.387   3.700  17.737  0.00  0.00    +0.000 C 
ATOM      4  N   UNL     1       4.917   5.049  17.996  0.00  0.00    +0.000 NA
ATOM      5  C   UNL     1       4.323   5.694  19.179  0.00  0.00    +0.000 C 
ATOM      6  C   UNL     1       2.771   5.635  19.229  0.00  0.00    +0.000 C 
ENDROOT
BRANCH   1   7
ATOM      7  C   UNL     1       2.613   3.296  20.307  0.00  0.00    +0.000 C 
BRANCH   7   9
ATOM      8  O   UNL     1       1.398   2.325  22.150  0.00  0.00    +0.000 OA
ATOM      9  C   UNL     1       1.378   2.829  21.040  0.00  0.00    +0.000 C 
BRANCH   9  10
ATOM     10  O   UNL     1       0.240   3.002  20.332  0.00  0.00    +0.000 OA
ATOM     11  H   UNL     1      -0.580   2.854  20.850  0.00  0.00    +0.000 HD
ENDBRANCH   9  10
ENDBRANCH   7   9
ENDBRANCH   1   7
BRANCH   4  12
ATOM     12  C   UNL     1       6.399   5.011  18.107  0.00  0.00    +0.000 C 
BRANCH  12  13
ATOM     13  C   UNL     1       7.073   4.895  16.731  0.00  0.00    +0.000 C 
BRANCH  13  14
ATOM     14  C   UNL     1       6.317   5.629  15.618  0.00  0.00    +0.000 C 
BRANCH  14  15
ATOM     15  C   UNL     1       6.493   4.902  14.302  0.00  0.00    +0.000 A 
ATOM     16  C   UNL     1       7.534   5.255  13.433  0.00  0.00    +0.000 A 
ATOM     17  C   UNL     1       7.652   4.644  12.182  0.00  0.00    +0.000 A 
ATOM     18  C   UNL     1       6.731   3.676  11.787  0.00  0.00    +0.000 A 
ATOM     19  C   UNL     1       5.693   3.314  12.644  0.00  0.00    +0.000 A 
ATOM     20  C   UNL     1       5.574   3.923  13.896  0.00  0.00    +0.000 A 
ENDBRANCH  14  15
ENDBRANCH  13  14
ENDBRANCH  12  13
ENDBRANCH   4  12
BRANCH   6  21
ATOM     21  C   UNL     1       2.272   6.372  20.489  0.00  0.00    +0.000 C 
BRANCH  21  22
ATOM     22  C   UNL     1       1.749   7.754  20.248  0.00  0.00    +0.000 A 
ATOM     23  N   UNL     1       1.046   8.455  21.115  0.00  0.00    +0.000 NA
ATOM     24  C   UNL     1       0.814   9.666  20.519  0.00  0.00    +0.000 A 
ATOM     25  C   UNL     1       0.155  10.797  21.026  0.00  0.00    +0.000 A 
ATOM     26  C   UNL     1      -0.018  11.904  20.187  0.00  0.00    +0.000 A 
ATOM     27  C   UNL     1       0.465  11.874  18.880  0.00  0.00    +0.000 A 
ATOM     28  F   UNL     1       0.257  12.938  18.092  0.00  0.00    +0.000 F 
ATOM     29  C   UNL     1       1.159  10.774  18.363  0.00  0.00    +0.000 A 
ATOM     30  C   UNL     1       1.320   9.685  19.223  0.00  0.00    +0.000 A 
ATOM     31  N   UNL     1       1.947   8.467  19.088  0.00  0.00    +0.000 N 
ATOM     32  H   UNL     1       2.460   8.153  18.275  0.00  0.00    +0.000 HD
ENDBRANCH  21  22
ENDBRANCH   6  21
TORSDOF 9
ENDMDL
MODEL 6
REMARK VINA RESULT:      -8.3      0.100      1.059
REMARK  Name = 
REMARK  9 active torsions:
REMARK  status: ('A' for Active; 'I' for Inactive)
REMARK    1  A    between atoms: C_2  and  O_3
REMARK    2  A    between atoms: C_2  and  C_4
REMARK    3  A    between atoms: C_4  and  C_5
REMARK    4  A    between atoms: N_8  and  C_9
REMARK    5  A    between atoms: C_9  and  C_10
REMARK    6  A    between atoms: C_10  and  C_11
REMARK    7  A    between atoms: C_11  and  C_12
REMARK    8  A    between atoms: C_19  and  C_20
REMARK    9  A    between atoms: C_20  and  C_21
REMARK                            x       y       z     vdW  Elec       q    Type
REMARK                         _______ _______ _______ _____ _____    ______ ____
ROOT
ATOM      1  C   UNL     1       1.357   4.816  20.456  0.00  0.00    +0.000 C 
ATOM      2  C   UNL     1       0.666   3.645  19.738  0.00  0.00    +0.000 C 
ATOM      3  C   UNL     1       1.541   3.021  18.654  0.00  0.00    +0.000 C 
ATOM      4  N   UNL     1       2.025   3.995  17.662  0.00  0.00    +0.000 NA
ATOM      5  C   UNL     1       2.604   5.207  18.265  0.00  0.00    +0.000 C 
ATOM      6  C   UNL     1       1.723   5.857  19.368  0.00  0.00    +0.000 C 
ENDROOT
BRANCH   1   7
ATOM      7  C   UNL     1       2.563   4.376  21.307  0.00  0.00    +0.000 C 
BRANCH   7   9
ATOM      8  O   UNL     1       3.307   2.101  21.608  0.00  0.00    +0.000 OA
ATOM      9  C   UNL     1       2.445   2.947  21.781  0.00  0.00    +0.000 C 
BRANCH   9  10
ATOM     10  O   UNL     1       1.271   2.685  22.397  0.00  0.00    +0.000 OA
ATOM     11  H   UNL     1       1.331   1.999  23.097  0.00  0.00    +0.000 HD
ENDBRANCH   9  10
ENDBRANCH   7   9
ENDBRANCH   1   7
BRANCH   4  12
ATOM     12  C   UNL     1       2.997   3.353  16.738  0.00  0.00    +0.000 C 
BRANCH  12  13
ATOM     13  C   UNL     1       4.448   3.571  17.191  0.00  0.00    +0.000 C 
BRANCH  13  14
ATOM     14  C   UNL     1       5.229   4.534  16.289  0.00  0.00    +0.000 C 
BRANCH  14  15
ATOM     15  C   UNL     1       6.166   5.383  17.122  0.00  0.00    +0.000 A 
ATOM     16  C   UNL     1       6.492   6.683  16.715  0.00  0.00    +0.000 A 
ATOM     17  C   UNL     1       7.419   7.441  17.436  0.00  0.00    +0.000 A 
ATOM     18  C   UNL     1       8.030   6.906  18.567  0.00  0.00    +0.000 A 
ATOM     19  C   UNL     1       7.711   5.615  18.984  0.00  0.00    +0.000 A 
ATOM     20  C   UNL     1       6.784   4.856  18.266  0.00  0.00    +0.000 A 
ENDBRANCH  14  15
ENDBRANCH  13  14
ENDBRANCH  12  13
ENDBRANCH   4  12
BRANCH   6  21
ATOM     21  C   UNL     1       2.418   7.131  19.893  0.00  0.00    +0.000 C 
BRANCH  21  22
ATOM     22  C   UNL     1       1.503   8.136  20.521  0.00  0.00    +0.000 A 
ATOM     23  N   UNL     1       1.108   8.111  21.779  0.00  0.00    +0.000 NA
ATOM     24  C   UNL     1       0.329   9.225  21.949  0.00  0.00    +0.000 A 
ATOM     25  C   UNL     1      -0.302   9.701  23.109  0.00  0.00    +0.000 A 
ATOM     26  C   UNL     1      -1.112  10.839  23.011  0.00  0.00    +0.000 A 
ATOM     27  C   UNL     1      -1.277  11.478  21.785  0.00  0.00    +0.000 A 
ATOM     28  F   UNL     1      -2.083  12.547  21.718  0.00  0.00    +0.000 F 
ATOM     29  C   UNL     1      -0.629  11.046  20.621  0.00  0.00    +0.000 A 
ATOM     30  C   UNL     1       0.177   9.911  20.749  0.00  0.00    +0.000 A 
ATOM     31  N   UNL     1       0.969   9.218  19.861  0.00  0.00    +0.000 N 
ATOM     32  H   UNL     1       1.125   9.463  18.893  0.00  0.00    +0.000 HD
ENDBRANCH  21  22
ENDBRANCH   6  21
TORSDOF 9
ENDMDL
MODEL 7
REMARK VINA RESULT:      -8.3      2.664      4.131
REMARK  Name = 
REMARK  9 active torsions:
REMARK  status: ('A' for Active; 'I' for Inactive)
REMARK    1  A    between atoms: C_2  and  O_3
REMARK    2  A    between atoms: C_2  and  C_4
REMARK    3  A    between atoms: C_4  and  C_5
REMARK    4  A    between atoms: N_8  and  C_9
REMARK    5  A    between atoms: C_9  and  C_10
REMARK    6  A    between atoms: C_10  and  C_11
REMARK    7  A    between atoms: C_11  and  C_12
REMARK    8  A    between atoms: C_19  and  C_20
REMARK    9  A    between atoms: C_20  and  C_21
REMARK                            x       y       z     vdW  Elec       q    Type
REMARK                         _______ _______ _______ _____ _____    ______ ____
ROOT
ATOM      1  C   UNL     1       3.809   4.238  17.520  0.00  0.00    +0.000 C 
ATOM      2  C   UNL     1       4.568   4.266  16.183  0.00  0.00    +0.000 C 
ATOM      3  C   UNL     1       5.988   4.808  16.324  0.00  0.00    +0.000 C 
ATOM      4  N   UNL     1       6.047   6.136  16.956  0.00  0.00    +0.000 NA
ATOM      5  C   UNL     1       5.252   6.233  18.190  0.00  0.00    +0.000 C 
ATOM      6  C   UNL     1       3.801   5.690  18.062  0.00  0.00    +0.000 C 
ENDROOT
BRANCH   1   7
ATOM      7  C   UNL     1       4.385   3.219  18.520  0.00  0.00    +0.000 C 
BRANCH   7   9
ATOM      8  O   UNL     1       2.397   2.129  19.343  0.00  0.00    +0.000 OA
ATOM      9  C   UNL     1       3.459   2.048  18.749  0.00  0.00    +0.000 C 
BRANCH   9  10
ATOM     10  O   UNL     1       3.936   0.886  18.250  0.00  0.00    +0.000 OA
ATOM     11  H   UNL     1       4.437   0.347  18.900  0.00  0.00    +0.000 HD
ENDBRANCH   9  10
ENDBRANCH   7   9
ENDBRANCH   1   7
BRANCH   4  12
ATOM     12  C   UNL     1       7.459   6.527  17.208  0.00  0.00    +0.000 C 
BRANCH  12  13
ATOM     13  C   UNL     1       7.594   8.028  17.505  0.00  0.00    +0.000 C 
BRANCH  13  14
ATOM     14  C   UNL     1       8.518   8.334  18.688  0.00  0.00    +0.000 C 
BRANCH  14  15
ATOM     15  C   UNL     1       8.841   9.813  18.728  0.00  0.00    +0.000 A 
ATOM     16  C   UNL     1       8.372  10.667  17.721  0.00  0.00    +0.000 A 
ATOM     17  C   UNL     1       8.734  12.016  17.709  0.00  0.00    +0.000 A 
ATOM     18  C   UNL     1       9.570  12.524  18.701  0.00  0.00    +0.000 A 
ATOM     19  C   UNL     1      10.040  11.686  19.710  0.00  0.00    +0.000 A 
ATOM     20  C   UNL     1       9.678  10.337  19.725  0.00  0.00    +0.000 A 
ENDBRANCH  14  15
ENDBRANCH  13  14
ENDBRANCH  12  13
ENDBRANCH   4  12
BRANCH   6  21
ATOM     21  C   UNL     1       3.064   5.881  19.404  0.00  0.00    +0.000 C 
BRANCH  21  22
ATOM     22  C   UNL     1       2.299   7.162  19.528  0.00  0.00    +0.000 A 
ATOM     23  N   UNL     1       1.697   7.576  20.626  0.00  0.00    +0.000 NA
ATOM     24  C   UNL     1       1.165   8.801  20.323  0.00  0.00    +0.000 A 
ATOM     25  C   UNL     1       0.465   9.696  21.147  0.00  0.00    +0.000 A 
ATOM     26  C   UNL     1      -0.045  10.870  20.579  0.00  0.00    +0.000 A 
ATOM     27  C   UNL     1       0.150  11.135  19.225  0.00  0.00    +0.000 A 
ATOM     28  F   UNL     1      -0.377  12.252  18.705  0.00  0.00    +0.000 F 
ATOM     29  C   UNL     1       0.877  10.278  18.391  0.00  0.00    +0.000 A 
ATOM     30  C   UNL     1       1.378   9.116  18.985  0.00  0.00    +0.000 A 
ATOM     31  N   UNL     1       2.139   8.072  18.509  0.00  0.00    +0.000 N 
ATOM     32  H   UNL     1       2.510   7.990  17.573  0.00  0.00    +0.000 HD
ENDBRANCH  21  22
ENDBRANCH   6  21
TORSDOF 9
ENDMDL
MODEL 8
REMARK VINA RESULT:      -8.3      1.140      1.863
REMARK  Name = 
REMARK  9 active torsions:
REMARK  status: ('A' for Active; 'I' for Inactive)
REMARK    1  A    between atoms: C_2  and  O_3
REMARK    2  A    between atoms: C_2  and  C_4
REMARK    3  A    between atoms: C_4  and  C_5
REMARK    4  A    between atoms: N_8  and  C_9
REMARK    5  A    between atoms: C_9  and  C_10
REMARK    6  A    between atoms: C_10  and  C_11
REMARK    7  A    between atoms: C_11  and  C_12
REMARK    8  A    between atoms: C_19  and  C_20
REMARK    9  A    between atoms: C_20  and  C_21
REMARK                            x       y       z     vdW  Elec       q    Type
REMARK                         _______ _______ _______ _____ _____    ______ ____
ROOT
ATOM      1  C   UNL     1       1.847   4.785  19.358  0.00  0.00    +0.000 C 
ATOM      2  C   UNL     1       1.516   3.654  18.371  0.00  0.00    +0.000 C 
ATOM      3  C   UNL     1       2.753   3.113  17.659  0.00  0.00    +0.000 C 
ATOM      4  N   UNL     1       3.536   4.155  16.976  0.00  0.00    +0.000 NA
ATOM      5  C   UNL     1       3.806   5.332  17.817  0.00  0.00    +0.000 C 
ATOM      6  C   UNL     1       2.555   5.898  18.545  0.00  0.00    +0.000 C 
ENDROOT
BRANCH   1   7
ATOM      7  C   UNL     1       2.664   4.305  20.572  0.00  0.00    +0.000 C 
BRANCH   7   9
ATOM      8  O   UNL     1       2.577   2.413  22.066  0.00  0.00    +0.000 OA
ATOM      9  C   UNL     1       1.993   3.170  21.309  0.00  0.00    +0.000 C 
BRANCH   9  10
ATOM     10  O   UNL     1       0.676   3.057  21.026  0.00  0.00    +0.000 OA
ATOM     11  H   UNL     1       0.470   3.073  20.067  0.00  0.00    +0.000 HD
ENDBRANCH   9  10
ENDBRANCH   7   9
ENDBRANCH   1   7
BRANCH   4  12
ATOM     12  C   UNL     1       4.804   3.585  16.448  0.00  0.00    +0.000 C 
BRANCH  12  13
ATOM     13  C   UNL     1       5.265   4.301  15.169  0.00  0.00    +0.000 C 
BRANCH  13  14
ATOM     14  C   UNL     1       6.770   4.587  15.139  0.00  0.00    +0.000 C 
BRANCH  14  15
ATOM     15  C   UNL     1       7.198   5.261  16.426  0.00  0.00    +0.000 A 
ATOM     16  C   UNL     1       7.577   4.492  17.535  0.00  0.00    +0.000 A 
ATOM     17  C   UNL     1       7.894   5.106  18.749  0.00  0.00    +0.000 A 
ATOM     18  C   UNL     1       7.833   6.493  18.867  0.00  0.00    +0.000 A 
ATOM     19  C   UNL     1       7.461   7.268  17.771  0.00  0.00    +0.000 A 
ATOM     20  C   UNL     1       7.145   6.656  16.555  0.00  0.00    +0.000 A 
ENDBRANCH  14  15
ENDBRANCH  13  14
ENDBRANCH  12  13
ENDBRANCH   4  12
BRANCH   6  21
ATOM     21  C   UNL     1       2.959   7.144  19.361  0.00  0.00    +0.000 C 
BRANCH  21  22
ATOM     22  C   UNL     1       1.907   8.205  19.455  0.00  0.00    +0.000 A 
ATOM     23  N   UNL     1       1.339   8.797  18.423  0.00  0.00    +0.000 NA
ATOM     24  C   UNL     1       0.411   9.658  18.946  0.00  0.00    +0.000 A 
ATOM     25  C   UNL     1      -0.501  10.494  18.285  0.00  0.00    +0.000 A 
ATOM     26  C   UNL     1      -1.308  11.344  19.051  0.00  0.00    +0.000 A 
ATOM     27  C   UNL     1      -1.202  11.345  20.440  0.00  0.00    +0.000 A 
ATOM     28  F   UNL     1      -1.967  12.191  21.144  0.00  0.00    +0.000 F 
ATOM     29  C   UNL     1      -0.328  10.493  21.126  0.00  0.00    +0.000 A 
ATOM     30  C   UNL     1       0.462   9.653  20.337  0.00  0.00    +0.000 A 
ATOM     31  N   UNL     1       1.397   8.689  20.638  0.00  0.00    +0.000 N 
ATOM     32  H   UNL     1       1.662   8.393  21.567  0.00  0.00    +0.000 HD
ENDBRANCH  21  22
ENDBRANCH   6  21
TORSDOF 9
ENDMDL
MODEL 9
REMARK VINA RESULT:      -8.2      2.627      4.201
REMARK  Name = 
REMARK  9 active torsions:
REMARK  status: ('A' for Active; 'I' for Inactive)
REMARK    1  A    between atoms: C_2  and  O_3
REMARK    2  A    between atoms: C_2  and  C_4
REMARK    3  A    between atoms: C_4  and  C_5
REMARK    4  A    between atoms: N_8  and  C_9
REMARK    5  A    between atoms: C_9  and  C_10
REMARK    6  A    between atoms: C_10  and  C_11
REMARK    7  A    between atoms: C_11  and  C_12
REMARK    8  A    between atoms: C_19  and  C_20
REMARK    9  A    between atoms: C_20  and  C_21
REMARK                            x       y       z     vdW  Elec       q    Type
REMARK                         _______ _______ _______ _____ _____    ______ ____
ROOT
ATOM      1  C   UNL     1       3.810   4.937  17.159  0.00  0.00    +0.000 C 
ATOM      2  C   UNL     1       4.849   5.334  16.098  0.00  0.00    +0.000 C 
ATOM      3  C   UNL     1       6.271   5.367  16.650  0.00  0.00    +0.000 C 
ATOM      4  N   UNL     1       6.418   6.228  17.835  0.00  0.00    +0.000 NA
ATOM      5  C   UNL     1       5.390   5.992  18.862  0.00  0.00    +0.000 C 
ATOM      6  C   UNL     1       3.936   5.960  18.316  0.00  0.00    +0.000 C 
ENDROOT
BRANCH   1   7
ATOM      7  C   UNL     1       3.950   3.475  17.623  0.00  0.00    +0.000 C 
BRANCH   7   9
ATOM      8  O   UNL     1       2.444   1.948  18.728  0.00  0.00    +0.000 OA
ATOM      9  C   UNL     1       2.614   2.827  17.899  0.00  0.00    +0.000 C 
BRANCH   9  10
ATOM     10  O   UNL     1       1.620   3.301  17.116  0.00  0.00    +0.000 OA
ATOM     11  H   UNL     1       0.751   2.870  17.269  0.00  0.00    +0.000 HD
ENDBRANCH   9  10
ENDBRANCH   7   9
ENDBRANCH   1   7
BRANCH   4  12
ATOM     12  C   UNL     1       7.781   6.085  18.413  0.00  0.00    +0.000 C 
BRANCH  12  13
ATOM     13  C   UNL     1       8.414   7.447  18.731  0.00  0.00    +0.000 C 
BRANCH  13  14
ATOM     14  C   UNL     1       7.930   8.574  17.812  0.00  0.00    +0.000 C 
BRANCH  14  15
ATOM     15  C   UNL     1       8.542   9.892  18.236  0.00  0.00    +0.000 A 
ATOM     16  C   UNL     1       9.263   9.985  19.434  0.00  0.00    +0.000 A 
ATOM     17  C   UNL     1       9.760  11.215  19.869  0.00  0.00    +0.000 A 
ATOM     18  C   UNL     1       9.541  12.365  19.114  0.00  0.00    +0.000 A 
ATOM     19  C   UNL     1       8.828  12.285  17.919  0.00  0.00    +0.000 A 
ATOM     20  C   UNL     1       8.331  11.055  17.481  0.00  0.00    +0.000 A 
ENDBRANCH  14  15
ENDBRANCH  13  14
ENDBRANCH  12  13
ENDBRANCH   4  12
BRANCH   6  21
ATOM     21  C   UNL     1       2.955   5.743  19.487  0.00  0.00    +0.000 C 
BRANCH  21  22
ATOM     22  C   UNL     1       2.242   6.975  19.951  0.00  0.00    +0.000 A 
ATOM     23  N   UNL     1       2.053   8.056  19.220  0.00  0.00    +0.000 NA
ATOM     24  C   UNL     1       1.325   8.915  20.000  0.00  0.00    +0.000 A 
ATOM     25  C   UNL     1       0.814  10.185  19.690  0.00  0.00    +0.000 A 
ATOM     26  C   UNL     1       0.155  10.905  20.693  0.00  0.00    +0.000 A 
ATOM     27  C   UNL     1       0.011  10.360  21.967  0.00  0.00    +0.000 A 
ATOM     28  F   UNL     1      -0.598  11.087  22.914  0.00  0.00    +0.000 F 
ATOM     29  C   UNL     1       0.478   9.080  22.292  0.00  0.00    +0.000 A 
ATOM     30  C   UNL     1       1.128   8.382  21.270  0.00  0.00    +0.000 A 
ATOM     31  N   UNL     1       1.688   7.127  21.201  0.00  0.00    +0.000 N 
ATOM     32  H   UNL     1       1.692   6.440  21.943  0.00  0.00    +0.000 HD
ENDBRANCH  21  22
ENDBRANCH   6  21
TORSDOF 9
ENDMDL
