MODEL 1
REMARK VINA RESULT:      -8.6      0.000      0.000
REMARK  Name = 
REMARK  7 active torsions:
REMARK  status: ('A' for Active; 'I' for Inactive)
REMARK    1  A    between atoms: C_1  and  O_2
REMARK    2  A    between atoms: O_2  and  C_3
REMARK    3  A    between atoms: C_6  and  C_7
REMARK    4  A    between atoms: C_8  and  C_9
REMARK    5  A    between atoms: N_11  and  O_12
REMARK    6  A    between atoms: C_13  and  C_14
REMARK    7  A    between atoms: C_17  and  C_18
REMARK                            x       y       z     vdW  Elec       q    Type
REMARK                         _______ _______ _______ _____ _____    ______ ____
ROOT
ATOM      1  C   UNL     1       5.286   5.798  16.136  0.00  0.00    +0.000 A 
ATOM      2  C   UNL     1       5.025   4.436  16.233  0.00  0.00    +0.000 A 
ATOM      3  C   UNL     1       4.004   3.972  17.060  0.00  0.00    +0.000 A 
ATOM      4  C   UNL     1       3.222   4.863  17.815  0.00  0.00    +0.000 A 
ATOM      5  C   UNL     1       3.453   6.259  17.719  0.00  0.00    +0.000 A 
ATOM      6  C   UNL     1       4.501   6.691  16.867  0.00  0.00    +0.000 A 
ENDROOT
BRANCH   5   7
ATOM      7  C   UNL     1       2.657   7.289  18.440  0.00  0.00    +0.000 A 
ATOM      8  C   UNL     1       2.208   8.455  17.797  0.00  0.00    +0.000 A 
ATOM      9  C   UNL     1       1.471   9.436  18.477  0.00  0.00    +0.000 A 
ATOM     10  C   UNL     1       1.163   9.303  19.837  0.00  0.00    +0.000 A 
ATOM     11  C   UNL     1       1.574   8.120  20.467  0.00  0.00    +0.000 A 
ATOM     12  C   UNL     1       2.287   7.131  19.782  0.00  0.00    +0.000 A 
BRANCH  10  13
ATOM     13  C   UNL     1       0.450  10.359  20.589  0.00  0.00    +0.000 A 
ATOM     14  C   UNL     1       0.205  11.626  20.031  0.00  0.00    +0.000 A 
ATOM     15  C   UNL     1      -0.470  12.618  20.751  0.00  0.00    +0.000 A 
ATOM     16  C   UNL     1      -0.923  12.356  22.040  0.00  0.00    +0.000 A 
ATOM     17  C   UNL     1      -0.695  11.111  22.614  0.00  0.00    +0.000 A 
ATOM     18  C   UNL     1      -0.004  10.130  21.900  0.00  0.00    +0.000 A 
ENDBRANCH  10  13
ENDBRANCH   5   7
BRANCH   1  20
ATOM     19  C   UNL     1       7.065   5.062  14.735  0.00  0.00    +0.000 C 
ATOM     20  O   UNL     1       6.310   6.132  15.292  0.00  0.00    +0.000 OA
ENDBRANCH   1  20
BRANCH   4  21
ATOM     21  C   UNL     1       2.207   4.225  18.671  0.00  0.00    +0.000 C 
ATOM     22  C   UNL     1       2.493   3.734  19.886  0.00  0.00    +0.000 C 
BRANCH  22  23
ATOM     23  C   UNL     1       1.447   3.020  20.661  0.00  0.00    +0.000 C 
ATOM     24  O   UNL     1       0.399   2.610  20.176  0.00  0.00    +0.000 OA
ATOM     25  N   UNL     1       1.791   2.816  21.968  0.00  0.00    +0.000 N 
ATOM     26  H   UNL     1       2.695   3.038  22.373  0.00  0.00    +0.000 HD
BRANCH  25  27
ATOM     27  O   UNL     1       0.922   2.018  22.745  0.00  0.00    +0.000 OA
ATOM     28  H   UNL     1       0.837   2.544  23.570  0.00  0.00    +0.000 HD
ENDBRANCH  25  27
ENDBRANCH  22  23
ENDBRANCH   4  21
TORSDOF 6
ENDMDL
MODEL 2
REMARK VINA RESULT:      -8.6      0.602      1.367
REMARK  Name = 
REMARK  7 active torsions:
REMARK  status: ('A' for Active; 'I' for Inactive)
REMARK    1  A    between atoms: C_1  and  O_2
REMARK    2  A    between atoms: O_2  and  C_3
REMARK    3  A    between atoms: C_6  and  C_7
REMARK    4  A    between atoms: C_8  and  C_9
REMARK    5  A    between atoms: N_11  and  O_12
REMARK    6  A    between atoms: C_13  and  C_14
REMARK    7  A    between atoms: C_17  and  C_18
REMARK                            x       y       z     vdW  Elec       q    Type
REMARK                         _______ _______ _______ _____ _____    ______ ____
ROOT
ATOM      1  C   UNL     1       5.482   5.639  16.103  0.00  0.00    +0.000 A 
ATOM      2  C   UNL     1       5.253   4.282  16.303  0.00  0.00    +0.000 A 
ATOM      3  C   UNL     1       4.231   3.858  17.151  0.00  0.00    +0.000 A 
ATOM      4  C   UNL     1       3.417   4.786  17.824  0.00  0.00    +0.000 A 
ATOM      5  C   UNL     1       3.616   6.176  17.622  0.00  0.00    +0.000 A 
ATOM      6  C   UNL     1       4.665   6.566  16.752  0.00  0.00    +0.000 A 
ENDROOT
BRANCH   5   7
ATOM      7  C   UNL     1       2.785   7.238  18.249  0.00  0.00    +0.000 A 
ATOM      8  C   UNL     1       2.390   7.165  19.596  0.00  0.00    +0.000 A 
ATOM      9  C   UNL     1       1.594   8.156  20.188  0.00  0.00    +0.000 A 
ATOM     10  C   UNL     1       1.142   9.261  19.454  0.00  0.00    +0.000 A 
ATOM     11  C   UNL     1       1.573   9.357  18.123  0.00  0.00    +0.000 A 
ATOM     12  C   UNL     1       2.387   8.380  17.542  0.00  0.00    +0.000 A 
BRANCH  10  13
ATOM     13  C   UNL     1       0.243  10.279  20.039  0.00  0.00    +0.000 A 
ATOM     14  C   UNL     1       0.345  10.669  21.386  0.00  0.00    +0.000 A 
ATOM     15  C   UNL     1      -0.511  11.633  21.930  0.00  0.00    +0.000 A 
ATOM     16  C   UNL     1      -1.479  12.234  21.133  0.00  0.00    +0.000 A 
ATOM     17  C   UNL     1      -1.600  11.867  19.797  0.00  0.00    +0.000 A 
ATOM     18  C   UNL     1      -0.757  10.891  19.263  0.00  0.00    +0.000 A 
ENDBRANCH  10  13
ENDBRANCH   5   7
BRANCH   1  20
ATOM     19  C   UNL     1       6.875   4.928  14.307  0.00  0.00    +0.000 C 
ATOM     20  O   UNL     1       6.510   5.931  15.249  0.00  0.00    +0.000 OA
ENDBRANCH   1  20
BRANCH   4  21
ATOM     21  C   UNL     1       2.405   4.191  18.713  0.00  0.00    +0.000 C 
ATOM     22  C   UNL     1       2.730   3.490  19.809  0.00  0.00    +0.000 C 
BRANCH  22  23
ATOM     23  C   UNL     1       1.667   2.838  20.614  0.00  0.00    +0.000 C 
ATOM     24  O   UNL     1       0.688   2.282  20.129  0.00  0.00    +0.000 OA
ATOM     25  N   UNL     1       1.913   2.870  21.958  0.00  0.00    +0.000 N 
ATOM     26  H   UNL     1       2.766   3.217  22.385  0.00  0.00    +0.000 HD
BRANCH  25  27
ATOM     27  O   UNL     1       1.030   2.147  22.792  0.00  0.00    +0.000 OA
ATOM     28  H   UNL     1       1.520   1.309  22.939  0.00  0.00    +0.000 HD
ENDBRANCH  25  27
ENDBRANCH  22  23
ENDBRANCH   4  21
TORSDOF 6
ENDMDL
MODEL 3
REMARK VINA RESULT:      -8.6      2.514      5.231
REMARK  Name = 
REMARK  7 active torsions:
REMARK  status: ('A' for Active; 'I' for Inactive)
REMARK    1  A    between atoms: C_1  and  O_2
REMARK    2  A    between atoms: O_2  and  C_3
REMARK    3  A    between atoms: C_6  and  C_7
REMARK    4  A    between atoms: C_8  and  C_9
REMARK    5  A    between atoms: N_11  and  O_12
REMARK    6  A    between atoms: C_13  and  C_14
REMARK    7  A    between atoms: C_17  and  C_18
REMARK                            x       y       z     vdW  Elec       q    Type
REMARK                         _______ _______ _______ _____ _____    ______ ____
ROOT
ATOM      1  C   UNL     1       3.037   3.300  20.856  0.00  0.00    +0.000 A 
ATOM      2  C   UNL     1       3.998   2.750  20.015  0.00  0.00    +0.000 A 
ATOM      3  C   UNL     1       4.466   3.466  18.916  0.00  0.00    +0.000 A 
ATOM      4  C   UNL     1       3.977   4.752  18.629  0.00  0.00    +0.000 A 
ATOM      5  C   UNL     1       3.012   5.347  19.481  0.00  0.00    +0.000 A 
ATOM      6  C   UNL     1       2.560   4.585  20.589  0.00  0.00    +0.000 A 
ENDROOT
BRANCH   5   7
ATOM      7  C   UNL     1       2.461   6.716  19.292  0.00  0.00    +0.000 A 
ATOM      8  C   UNL     1       1.893   7.434  20.359  0.00  0.00    +0.000 A 
ATOM      9  C   UNL     1       1.359   8.719  20.182  0.00  0.00    +0.000 A 
ATOM     10  C   UNL     1       1.353   9.339  18.926  0.00  0.00    +0.000 A 
ATOM     11  C   UNL     1       1.959   8.640  17.872  0.00  0.00    +0.000 A 
ATOM     12  C   UNL     1       2.515   7.370  18.055  0.00  0.00    +0.000 A 
BRANCH  10  13
ATOM     13  C   UNL     1       0.731  10.662  18.705  0.00  0.00    +0.000 A 
ATOM     14  C   UNL     1      -0.645  10.798  18.449  0.00  0.00    +0.000 A 
ATOM     15  C   UNL     1      -1.225  12.055  18.241  0.00  0.00    +0.000 A 
ATOM     16  C   UNL     1      -0.439  13.202  18.297  0.00  0.00    +0.000 A 
ATOM     17  C   UNL     1       0.923  13.094  18.549  0.00  0.00    +0.000 A 
ATOM     18  C   UNL     1       1.502  11.838  18.737  0.00  0.00    +0.000 A 
ENDBRANCH  10  13
ENDBRANCH   5   7
BRANCH   1  20
ATOM     19  C   UNL     1       1.261   2.365  22.136  0.00  0.00    +0.000 C 
ATOM     20  O   UNL     1       2.657   2.504  21.901  0.00  0.00    +0.000 OA
ENDBRANCH   1  20
BRANCH   4  21
ATOM     21  C   UNL     1       4.537   5.371  17.415  0.00  0.00    +0.000 C 
ATOM     22  C   UNL     1       5.493   4.783  16.681  0.00  0.00    +0.000 C 
BRANCH  22  23
ATOM     23  C   UNL     1       6.082   5.499  15.521  0.00  0.00    +0.000 C 
ATOM     24  O   UNL     1       5.600   6.512  15.028  0.00  0.00    +0.000 OA
ATOM     25  N   UNL     1       7.253   4.945  15.084  0.00  0.00    +0.000 N 
ATOM     26  H   UNL     1       7.739   4.178  15.540  0.00  0.00    +0.000 HD
BRANCH  25  27
ATOM     27  O   UNL     1       7.960   5.643  14.079  0.00  0.00    +0.000 OA
ATOM     28  H   UNL     1       8.295   6.427  14.566  0.00  0.00    +0.000 HD
ENDBRANCH  25  27
ENDBRANCH  22  23
ENDBRANCH   4  21
TORSDOF 6
ENDMDL
MODEL 4
REMARK VINA RESULT:      -8.5      0.915      1.332
REMARK  Name = 
REMARK  7 active torsions:
REMARK  status: ('A' for Active; 'I' for Inactive)
REMARK    1  A    between atoms: C_1  and  O_2
REMARK    2  A    between atoms: O_2  and  C_3
REMARK    3  A    between atoms: C_6  and  C_7
REMARK    4  A    between atoms: C_8  and  C_9
REMARK    5  A    between atoms: N_11  and  O_12
REMARK    6  A    between atoms: C_13  and  C_14
REMARK    7  A    between atoms: C_17  and  C_18
REMARK                            x       y       z     vdW  Elec       q    Type
REMARK                         _______ _______ _______ _____ _____    ______ ____
ROOT
ATOM      1  C   UNL     1       5.695   5.520  15.677  0.00  0.00    +0.000 A 
ATOM      2  C   UNL     1       5.604   4.157  15.938  0.00  0.00    +0.000 A 
ATOM      3  C   UNL     1       4.721   3.682  16.906  0.00  0.00    +0.000 A 
ATOM      4  C   UNL     1       3.909   4.563  17.640  0.00  0.00    +0.000 A 
ATOM      5  C   UNL     1       3.966   5.957  17.380  0.00  0.00    +0.000 A 
ATOM      6  C   UNL     1       4.877   6.400  16.389  0.00  0.00    +0.000 A 
ENDROOT
BRANCH   5   7
ATOM      7  C   UNL     1       3.121   6.970  18.069  0.00  0.00    +0.000 A 
ATOM      8  C   UNL     1       2.745   6.823  19.415  0.00  0.00    +0.000 A 
ATOM      9  C   UNL     1       1.936   7.767  20.063  0.00  0.00    +0.000 A 
ATOM     10  C   UNL     1       1.452   8.896  19.389  0.00  0.00    +0.000 A 
ATOM     11  C   UNL     1       1.863   9.065  18.059  0.00  0.00    +0.000 A 
ATOM     12  C   UNL     1       2.691   8.135  17.422  0.00  0.00    +0.000 A 
BRANCH  10  13
ATOM     13  C   UNL     1       0.539   9.865  20.034  0.00  0.00    +0.000 A 
ATOM     14  C   UNL     1      -0.309  10.696  19.281  0.00  0.00    +0.000 A 
ATOM     15  C   UNL     1      -1.169  11.609  19.901  0.00  0.00    +0.000 A 
ATOM     16  C   UNL     1      -1.203  11.702  21.289  0.00  0.00    +0.000 A 
ATOM     17  C   UNL     1      -0.375  10.891  22.056  0.00  0.00    +0.000 A 
ATOM     18  C   UNL     1       0.495   9.994  21.434  0.00  0.00    +0.000 A 
ENDBRANCH  10  13
ENDBRANCH   5   7
BRANCH   1  20
ATOM     19  C   UNL     1       7.072   4.820  13.867  0.00  0.00    +0.000 C 
ATOM     20  O   UNL     1       6.594   5.865  14.707  0.00  0.00    +0.000 OA
ENDBRANCH   1  20
BRANCH   4  21
ATOM     21  C   UNL     1       3.054   3.920  18.653  0.00  0.00    +0.000 C 
ATOM     22  C   UNL     1       1.864   3.378  18.353  0.00  0.00    +0.000 C 
BRANCH  22  23
ATOM     23  C   UNL     1       1.008   2.828  19.433  0.00  0.00    +0.000 C 
ATOM     24  O   UNL     1       0.018   2.134  19.233  0.00  0.00    +0.000 OA
ATOM     25  N   UNL     1       1.465   3.127  20.687  0.00  0.00    +0.000 N 
ATOM     26  H   UNL     1       2.341   3.598  20.889  0.00  0.00    +0.000 HD
BRANCH  25  27
ATOM     27  O   UNL     1       0.797   2.523  21.776  0.00  0.00    +0.000 OA
ATOM     28  H   UNL     1       0.601   3.293  22.354  0.00  0.00    +0.000 HD
ENDBRANCH  25  27
ENDBRANCH  22  23
ENDBRANCH   4  21
TORSDOF 6
ENDMDL
MODEL 5
REMARK VINA RESULT:      -8.5      0.488      1.062
REMARK  Name = 
REMARK  7 active torsions:
REMARK  status: ('A' for Active; 'I' for Inactive)
REMARK    1  A    between atoms: C_1  and  O_2
REMARK    2  A    between atoms: O_2  and  C_3
REMARK    3  A    between atoms: C_6  and  C_7
REMARK    4  A    between atoms: C_8  and  C_9
REMARK    5  A    between atoms: N_11  and  O_12
REMARK    6  A    between atoms: C_13  and  C_14
REMARK    7  A    between atoms: C_17  and  C_18
REMARK                            x       y       z     vdW  Elec       q    Type
REMARK                         _______ _______ _______ _____ _____    ______ ____
ROOT
ATOM      1  C   UNL     1       5.579   5.561  15.892  0.00  0.00    +0.000 A 
ATOM      2  C   UNL     1       5.347   4.193  15.988  0.00  0.00    +0.000 A 
ATOM      3  C   UNL     1       4.342   3.706  16.821  0.00  0.00    +0.000 A 
ATOM      4  C   UNL     1       3.547   4.579  17.584  0.00  0.00    +0.000 A 
ATOM      5  C   UNL     1       3.748   5.980  17.490  0.00  0.00    +0.000 A 
ATOM      6  C   UNL     1       4.780   6.436  16.631  0.00  0.00    +0.000 A 
ENDROOT
BRANCH   5   7
ATOM      7  C   UNL     1       2.936   6.991  18.219  0.00  0.00    +0.000 A 
ATOM      8  C   UNL     1       2.487   8.166  17.592  0.00  0.00    +0.000 A 
ATOM      9  C   UNL     1       1.734   9.129  18.279  0.00  0.00    +0.000 A 
ATOM     10  C   UNL     1       1.411   8.970  19.634  0.00  0.00    +0.000 A 
ATOM     11  C   UNL     1       1.822   7.778  20.247  0.00  0.00    +0.000 A 
ATOM     12  C   UNL     1       2.550   6.806  19.553  0.00  0.00    +0.000 A 
BRANCH  10  13
ATOM     13  C   UNL     1       0.682  10.007  20.395  0.00  0.00    +0.000 A 
ATOM     14  C   UNL     1       0.214   9.774  21.700  0.00  0.00    +0.000 A 
ATOM     15  C   UNL     1      -0.475  10.763  22.411  0.00  0.00    +0.000 A 
ATOM     16  C   UNL     1      -0.700  12.008  21.833  0.00  0.00    +0.000 A 
ATOM     17  C   UNL     1      -0.247  12.263  20.544  0.00  0.00    +0.000 A 
ATOM     18  C   UNL     1       0.423  11.269  19.830  0.00  0.00    +0.000 A 
ENDBRANCH  10  13
ENDBRANCH   5   7
BRANCH   1  20
ATOM     19  C   UNL     1       7.083   4.912  14.165  0.00  0.00    +0.000 C 
ATOM     20  O   UNL     1       6.589   5.918  15.042  0.00  0.00    +0.000 OA
ENDBRANCH   1  20
BRANCH   4  21
ATOM     21  C   UNL     1       2.551   3.918  18.445  0.00  0.00    +0.000 C 
ATOM     22  C   UNL     1       2.845   3.470  19.674  0.00  0.00    +0.000 C 
BRANCH  22  23
ATOM     23  C   UNL     1       1.823   2.730  20.456  0.00  0.00    +0.000 C 
ATOM     24  O   UNL     1       1.017   1.950  19.962  0.00  0.00    +0.000 OA
ATOM     25  N   UNL     1       1.901   2.964  21.801  0.00  0.00    +0.000 N 
ATOM     26  H   UNL     1       2.626   3.511  22.255  0.00  0.00    +0.000 HD
BRANCH  25  27
ATOM     27  O   UNL     1       1.064   2.192  22.638  0.00  0.00    +0.000 OA
ATOM     28  H   UNL     1       0.182   2.315  22.223  0.00  0.00    +0.000 HD
ENDBRANCH  25  27
ENDBRANCH  22  23
ENDBRANCH   4  21
TORSDOF 6
ENDMDL
MODEL 6
REMARK VINA RESULT:      -8.3      2.451      5.136
REMARK  Name = 
REMARK  7 active torsions:
REMARK  status: ('A' for Active; 'I' for Inactive)
REMARK    1  A    between atoms: C_1  and  O_2
REMARK    2  A    between atoms: O_2  and  C_3
REMARK    3  A    between atoms: C_6  and  C_7
REMARK    4  A    between atoms: C_8  and  C_9
REMARK    5  A    between atoms: N_11  and  O_12
REMARK    6  A    between atoms: C_13  and  C_14
REMARK    7  A    between atoms: C_17  and  C_18
REMARK                            x       y       z     vdW  Elec       q    Type
REMARK                         _______ _______ _______ _____ _____    ______ ____
ROOT
ATOM      1  C   UNL     1       2.993   3.219  20.823  0.00  0.00    +0.000 A 
ATOM      2  C   UNL     1       4.064   2.730  20.085  0.00  0.00    +0.000 A 
ATOM      3  C   UNL     1       4.630   3.499  19.069  0.00  0.00    +0.000 A 
ATOM      4  C   UNL     1       4.130   4.777  18.765  0.00  0.00    +0.000 A 
ATOM      5  C   UNL     1       3.050   5.309  19.516  0.00  0.00    +0.000 A 
ATOM      6  C   UNL     1       2.503   4.496  20.540  0.00  0.00    +0.000 A 
ENDROOT
BRANCH   5   7
ATOM      7  C   UNL     1       2.474   6.664  19.305  0.00  0.00    +0.000 A 
ATOM      8  C   UNL     1       2.476   7.277  18.040  0.00  0.00    +0.000 A 
ATOM      9  C   UNL     1       1.948   8.561  17.840  0.00  0.00    +0.000 A 
ATOM     10  C   UNL     1       1.408   9.299  18.902  0.00  0.00    +0.000 A 
ATOM     11  C   UNL     1       1.366   8.671  20.154  0.00  0.00    +0.000 A 
ATOM     12  C   UNL     1       1.870   7.380  20.347  0.00  0.00    +0.000 A 
BRANCH  10  13
ATOM     13  C   UNL     1       0.912  10.681  18.725  0.00  0.00    +0.000 A 
ATOM     14  C   UNL     1       1.791  11.763  18.540  0.00  0.00    +0.000 A 
ATOM     15  C   UNL     1       1.311  13.068  18.374  0.00  0.00    +0.000 A 
ATOM     16  C   UNL     1      -0.058  13.313  18.380  0.00  0.00    +0.000 A 
ATOM     17  C   UNL     1      -0.947  12.260  18.561  0.00  0.00    +0.000 A 
ATOM     18  C   UNL     1      -0.466  10.963  18.745  0.00  0.00    +0.000 A 
ENDBRANCH  10  13
ENDBRANCH   5   7
BRANCH   1  20
ATOM     19  C   UNL     1       1.165   2.528  22.184  0.00  0.00    +0.000 C 
ATOM     20  O   UNL     1       2.525   2.375  21.792  0.00  0.00    +0.000 OA
ENDBRANCH   1  20
BRANCH   4  21
ATOM     21  C   UNL     1       4.803   5.455  17.644  0.00  0.00    +0.000 C 
ATOM     22  C   UNL     1       5.186   4.807  16.534  0.00  0.00    +0.000 C 
BRANCH  22  23
ATOM     23  C   UNL     1       5.942   5.528  15.480  0.00  0.00    +0.000 C 
ATOM     24  O   UNL     1       5.560   6.566  14.954  0.00  0.00    +0.000 OA
ATOM     25  N   UNL     1       7.144   4.945  15.186  0.00  0.00    +0.000 N 
ATOM     26  H   UNL     1       7.543   4.154  15.681  0.00  0.00    +0.000 HD
BRANCH  25  27
ATOM     27  O   UNL     1       7.997   5.641  14.300  0.00  0.00    +0.000 OA
ATOM     28  H   UNL     1       8.438   6.285  14.897  0.00  0.00    +0.000 HD
ENDBRANCH  25  27
ENDBRANCH  22  23
ENDBRANCH   4  21
TORSDOF 6
ENDMDL
MODEL 7
REMARK VINA RESULT:      -8.2      4.448      8.619
REMARK  Name = 
REMARK  7 active torsions:
REMARK  status: ('A' for Active; 'I' for Inactive)
REMARK    1  A    between atoms: C_1  and  O_2
REMARK    2  A    between atoms: O_2  and  C_3
REMARK    3  A    between atoms: C_6  and  C_7
REMARK    4  A    between atoms: C_8  and  C_9
REMARK    5  A    between atoms: N_11  and  O_12
REMARK    6  A    between atoms: C_13  and  C_14
REMARK    7  A    between atoms: C_17  and  C_18
REMARK                            x       y       z     vdW  Elec       q    Type
REMARK                         _______ _______ _______ _____ _____    ______ ____
ROOT
ATOM      1  C   UNL     1       0.407  13.199  21.345  0.00  0.00    +0.000 A 
ATOM      2  C   UNL     1      -0.905  13.497  20.996  0.00  0.00    +0.000 A 
ATOM      3  C   UNL     1      -1.609  12.668  20.125  0.00  0.00    +0.000 A 
ATOM      4  C   UNL     1      -1.011  11.519  19.578  0.00  0.00    +0.000 A 
ATOM      5  C   UNL     1       0.319  11.180  19.932  0.00  0.00    +0.000 A 
ATOM      6  C   UNL     1       1.002  12.049  20.821  0.00  0.00    +0.000 A 
ENDROOT
BRANCH   5   7
ATOM      7  C   UNL     1       1.030   9.967  19.445  0.00  0.00    +0.000 A 
ATOM      8  C   UNL     1       1.568   9.900  18.148  0.00  0.00    +0.000 A 
ATOM      9  C   UNL     1       2.225   8.754  17.679  0.00  0.00    +0.000 A 
ATOM     10  C   UNL     1       2.360   7.612  18.481  0.00  0.00    +0.000 A 
ATOM     11  C   UNL     1       1.862   7.695  19.789  0.00  0.00    +0.000 A 
ATOM     12  C   UNL     1       1.230   8.848  20.264  0.00  0.00    +0.000 A 
BRANCH  10  13
ATOM     13  C   UNL     1       2.985   6.369  17.980  0.00  0.00    +0.000 A 
ATOM     14  C   UNL     1       2.320   5.132  18.038  0.00  0.00    +0.000 A 
ATOM     15  C   UNL     1       2.921   3.961  17.561  0.00  0.00    +0.000 A 
ATOM     16  C   UNL     1       4.196   4.009  17.006  0.00  0.00    +0.000 A 
ATOM     17  C   UNL     1       4.874   5.220  16.936  0.00  0.00    +0.000 A 
ATOM     18  C   UNL     1       4.280   6.383  17.430  0.00  0.00    +0.000 A 
ENDBRANCH  10  13
ENDBRANCH   5   7
BRANCH   1  20
ATOM     19  C   UNL     1       0.507  15.422  22.189  0.00  0.00    +0.000 C 
ATOM     20  O   UNL     1       0.993  14.085  22.207  0.00  0.00    +0.000 OA
ENDBRANCH   1  20
BRANCH   4  21
ATOM     21  C   UNL     1      -1.864  10.761  18.646  0.00  0.00    +0.000 C 
ATOM     22  C   UNL     1      -1.885  11.005  17.327  0.00  0.00    +0.000 C 
BRANCH  22  23
ATOM     23  C   UNL     1      -2.834  10.270  16.454  0.00  0.00    +0.000 C 
ATOM     24  O   UNL     1      -3.611   9.413  16.859  0.00  0.00    +0.000 OA
ATOM     25  N   UNL     1      -2.795  10.681  15.150  0.00  0.00    +0.000 N 
ATOM     26  H   UNL     1      -2.249  11.464  14.804  0.00  0.00    +0.000 HD
BRANCH  25  27
ATOM     27  O   UNL     1      -3.764  10.141  14.276  0.00  0.00    +0.000 OA
ATOM     28  H   UNL     1      -4.410   9.742  14.899  0.00  0.00    +0.000 HD
ENDBRANCH  25  27
ENDBRANCH  22  23
ENDBRANCH   4  21
TORSDOF 6
ENDMDL
MODEL 8
REMARK VINA RESULT:      -8.2      2.401      5.172
REMARK  Name = 
REMARK  7 active torsions:
REMARK  status: ('A' for Active; 'I' for Inactive)
REMARK    1  A    between atoms: C_1  and  O_2
REMARK    2  A    between atoms: O_2  and  C_3
REMARK    3  A    between atoms: C_6  and  C_7
REMARK    4  A    between atoms: C_8  and  C_9
REMARK    5  A    between atoms: N_11  and  O_12
REMARK    6  A    between atoms: C_13  and  C_14
REMARK    7  A    between atoms: C_17  and  C_18
REMARK                            x       y       z     vdW  Elec       q    Type
REMARK                         _______ _______ _______ _____ _____    ______ ____
ROOT
ATOM      1  C   UNL     1       2.223   3.303  20.022  0.00  0.00    +0.000 A 
ATOM      2  C   UNL     1       3.474   2.886  19.581  0.00  0.00    +0.000 A 
ATOM      3  C   UNL     1       4.344   3.789  18.973  0.00  0.00    +0.000 A 
ATOM      4  C   UNL     1       3.978   5.134  18.789  0.00  0.00    +0.000 A 
ATOM      5  C   UNL     1       2.717   5.591  19.248  0.00  0.00    +0.000 A 
ATOM      6  C   UNL     1       1.860   4.642  19.860  0.00  0.00    +0.000 A 
ENDROOT
BRANCH   5   7
ATOM      7  C   UNL     1       2.249   7.000  19.141  0.00  0.00    +0.000 A 
ATOM      8  C   UNL     1       1.751   7.697  20.255  0.00  0.00    +0.000 A 
ATOM      9  C   UNL     1       1.295   9.019  20.156  0.00  0.00    +0.000 A 
ATOM     10  C   UNL     1       1.301   9.702  18.932  0.00  0.00    +0.000 A 
ATOM     11  C   UNL     1       1.838   9.021  17.830  0.00  0.00    +0.000 A 
ATOM     12  C   UNL     1       2.316   7.711  17.936  0.00  0.00    +0.000 A 
BRANCH  10  13
ATOM     13  C   UNL     1       0.757  11.070  18.792  0.00  0.00    +0.000 A 
ATOM     14  C   UNL     1      -0.627  11.317  18.773  0.00  0.00    +0.000 A 
ATOM     15  C   UNL     1      -1.130  12.617  18.640  0.00  0.00    +0.000 A 
ATOM     16  C   UNL     1      -0.257  13.695  18.535  0.00  0.00    +0.000 A 
ATOM     17  C   UNL     1       1.116  13.477  18.552  0.00  0.00    +0.000 A 
ATOM     18  C   UNL     1       1.615  12.178  18.666  0.00  0.00    +0.000 A 
ENDBRANCH  10  13
ENDBRANCH   5   7
BRANCH   1  20
ATOM     19  C   UNL     1       1.348   2.352  22.022  0.00  0.00    +0.000 C 
ATOM     20  O   UNL     1       1.460   2.328  20.603  0.00  0.00    +0.000 OA
ENDBRANCH   1  20
BRANCH   4  21
ATOM     21  C   UNL     1       4.984   5.961  18.100  0.00  0.00    +0.000 C 
ATOM     22  C   UNL     1       6.098   5.442  17.562  0.00  0.00    +0.000 C 
BRANCH  22  23
ATOM     23  C   UNL     1       7.118   6.339  16.963  0.00  0.00    +0.000 C 
ATOM     24  O   UNL     1       7.666   6.127  15.887  0.00  0.00    +0.000 OA
ATOM     25  N   UNL     1       7.350   7.463  17.707  0.00  0.00    +0.000 N 
ATOM     26  H   UNL     1       6.832   7.726  18.539  0.00  0.00    +0.000 HD
BRANCH  25  27
ATOM     27  O   UNL     1       8.196   8.444  17.143  0.00  0.00    +0.000 OA
ATOM     28  H   UNL     1       8.823   7.902  16.615  0.00  0.00    +0.000 HD
ENDBRANCH  25  27
ENDBRANCH  22  23
ENDBRANCH   4  21
TORSDOF 6
ENDMDL
MODEL 9
REMARK VINA RESULT:      -8.2      2.443      4.743
REMARK  Name = 
REMARK  7 active torsions:
REMARK  status: ('A' for Active; 'I' for Inactive)
REMARK    1  A    between atoms: C_1  and  O_2
REMARK    2  A    between atoms: O_2  and  C_3
REMARK    3  A    between atoms: C_6  and  C_7
REMARK    4  A    between atoms: C_8  and  C_9
REMARK    5  A    between atoms: N_11  and  O_12
REMARK    6  A    between atoms: C_13  and  C_14
REMARK    7  A    between atoms: C_17  and  C_18
REMARK                            x       y       z     vdW  Elec       q    Type
REMARK                         _______ _______ _______ _____ _____    ______ ____
ROOT
ATOM      1  C   UNL     1       2.477   3.238  17.881  0.00  0.00    +0.000 A 
ATOM      2  C   UNL     1       3.800   3.056  17.496  0.00  0.00    +0.000 A 
ATOM      3  C   UNL     1       4.675   4.139  17.449  0.00  0.00    +0.000 A 
ATOM      4  C   UNL     1       4.243   5.434  17.782  0.00  0.00    +0.000 A 
ATOM      5  C   UNL     1       2.903   5.646  18.197  0.00  0.00    +0.000 A 
ATOM      6  C   UNL     1       2.044   4.518  18.232  0.00  0.00    +0.000 A 
ENDROOT
BRANCH   5   7
ATOM      7  C   UNL     1       2.355   6.965  18.611  0.00  0.00    +0.000 A 
ATOM      8  C   UNL     1       2.140   7.998  17.682  0.00  0.00    +0.000 A 
ATOM      9  C   UNL     1       1.638   9.248  18.070  0.00  0.00    +0.000 A 
ATOM     10  C   UNL     1       1.343   9.530  19.411  0.00  0.00    +0.000 A 
ATOM     11  C   UNL     1       1.516   8.486  20.331  0.00  0.00    +0.000 A 
ATOM     12  C   UNL     1       1.992   7.232  19.938  0.00  0.00    +0.000 A 
BRANCH  10  13
ATOM     13  C   UNL     1       0.882  10.865  19.850  0.00  0.00    +0.000 A 
ATOM     14  C   UNL     1       0.064  11.029  20.983  0.00  0.00    +0.000 A 
ATOM     15  C   UNL     1      -0.366  12.297  21.389  0.00  0.00    +0.000 A 
ATOM     16  C   UNL     1       0.022  13.427  20.677  0.00  0.00    +0.000 A 
ATOM     17  C   UNL     1       0.831  13.291  19.554  0.00  0.00    +0.000 A 
ATOM     18  C   UNL     1       1.243  12.024  19.140  0.00  0.00    +0.000 A 
ENDBRANCH  10  13
ENDBRANCH   5   7
BRANCH   1  20
ATOM     19  C   UNL     1       0.616   2.066  18.794  0.00  0.00    +0.000 C 
ATOM     20  O   UNL     1       1.716   2.101  17.891  0.00  0.00    +0.000 OA
ENDBRANCH   1  20
BRANCH   4  21
ATOM     21  C   UNL     1       5.268   6.484  17.649  0.00  0.00    +0.000 C 
ATOM     22  C   UNL     1       6.565   6.260  17.905  0.00  0.00    +0.000 C 
BRANCH  22  23
ATOM     23  C   UNL     1       7.536   7.382  17.843  0.00  0.00    +0.000 C 
ATOM     24  O   UNL     1       7.591   8.187  16.921  0.00  0.00    +0.000 OA
ATOM     25  N   UNL     1       8.335   7.464  18.950  0.00  0.00    +0.000 N 
ATOM     26  H   UNL     1       8.239   6.888  19.780  0.00  0.00    +0.000 HD
BRANCH  25  27
ATOM     27  O   UNL     1       9.189   8.586  19.045  0.00  0.00    +0.000 OA
ATOM     28  H   UNL     1       8.561   9.309  19.262  0.00  0.00    +0.000 HD
ENDBRANCH  25  27
ENDBRANCH  22  23
ENDBRANCH   4  21
TORSDOF 6
ENDMDL
