MODEL 1
REMARK VINA RESULT:      -8.1      0.000      0.000
REMARK  Name = 
REMARK  7 active torsions:
REMARK  status: ('A' for Active; 'I' for Inactive)
REMARK    1  A    between atoms: C_1  and  O_2
REMARK    2  A    between atoms: O_2  and  C_3
REMARK    3  A    between atoms: C_9  and  C_10
REMARK    4  A    between atoms: C_11  and  C_12
REMARK    5  A    between atoms: C_12  and  O_13
REMARK    6  A    between atoms: N_16  and  C_17
REMARK    7  A    between atoms: C_24  and  C_25
REMARK                            x       y       z     vdW  Elec       q    Type
REMARK                         _______ _______ _______ _____ _____    ______ ____
ROOT
ATOM      1  C   UNL     1       2.584   3.519  18.446  0.00  0.00    +0.000 C 
ATOM      2  C   UNL     1       2.953   3.430  19.932  0.00  0.00    +0.000 C 
ATOM      3  O   UNL     1       2.695   4.573  20.750  0.00  0.00    +0.000 OA
ATOM      4  C   UNL     1       2.381   5.798  20.240  0.00  0.00    +0.000 A 
ATOM      5  C   UNL     1       1.475   6.486  21.060  0.00  0.00    +0.000 A 
ATOM      6  C   UNL     1       1.048   7.772  20.740  0.00  0.00    +0.000 A 
ATOM      7  C   UNL     1       1.550   8.407  19.605  0.00  0.00    +0.000 A 
ATOM      8  C   UNL     1       2.476   7.742  18.791  0.00  0.00    +0.000 A 
ATOM      9  C   UNL     1       2.888   6.426  19.084  0.00  0.00    +0.000 A 
ATOM     10  C   UNL     1       3.771   5.760  18.131  0.00  0.00    +0.000 A 
ATOM     11  N   UNL     1       4.778   6.410  17.430  0.00  0.00    +0.000 NA
ATOM     12  C   UNL     1       5.394   5.540  16.644  0.00  0.00    +0.000 A 
ATOM     13  S   UNL     1       4.776   3.941  16.675  0.00  0.00    +0.000 S 
ATOM     14  C   UNL     1       3.595   4.426  17.811  0.00  0.00    +0.000 A 
ENDROOT
BRANCH  12  15
ATOM     15  C   UNL     1       6.525   5.869  15.779  0.00  0.00    +0.000 C 
ATOM     16  N   UNL     1       7.527   6.590  16.382  0.00  0.00    +0.000 N 
ATOM     17  O   UNL     1       6.647   5.561  14.595  0.00  0.00    +0.000 OA
ATOM     18  H   UNL     1       7.464   6.833  17.360  0.00  0.00    +0.000 HD
ATOM     19  H   UNL     1       8.340   6.833  15.836  0.00  0.00    +0.000 HD
ENDBRANCH  12  15
BRANCH   1  21
ATOM     20  C   UNL     1       3.420   1.286  18.443  0.00  0.00    +0.000 C 
ATOM     21  O   UNL     1       2.611   2.251  17.783  0.00  0.00    +0.000 OA
ENDBRANCH   1  21
BRANCH   7  22
ATOM     22  C   UNL     1       1.096   9.724  19.275  0.00  0.00    +0.000 C 
ATOM     23  C   UNL     1       0.681  10.833  19.048  0.00  0.00    +0.000 C 
BRANCH  23  24
ATOM     24  C   UNL     1       0.135  12.189  18.840  0.00  0.00    +0.000 C 
ATOM     25  C   UNL     1       0.169  13.021  20.130  0.00  0.00    +0.000 C 
ATOM     26  C   UNL     1      -1.137  12.683  20.824  0.00  0.00    +0.000 C 
ATOM     27  N   UNL     1      -2.048  12.481  19.729  0.00  0.00    +0.000 N 
ATOM     28  C   UNL     1      -3.483  12.530  19.872  0.00  0.00    +0.000 C 
ATOM     29  C   UNL     1      -1.387  12.151  18.547  0.00  0.00    +0.000 C 
ATOM     30  O   UNL     1      -1.916  11.943  17.467  0.00  0.00    +0.000 OA
BRANCH  24  31
ATOM     31  O   UNL     1       0.912  12.845  17.851  0.00  0.00    +0.000 OA
ATOM     32  H   UNL     1       0.289  13.334  17.286  0.00  0.00    +0.000 HD
ENDBRANCH  24  31
ENDBRANCH  23  24
ENDBRANCH   7  22
TORSDOF 5
ENDMDL
MODEL 2
REMARK VINA RESULT:      -8.0      1.397      1.731
REMARK  Name = 
REMARK  7 active torsions:
REMARK  status: ('A' for Active; 'I' for Inactive)
REMARK    1  A    between atoms: C_1  and  O_2
REMARK    2  A    between atoms: O_2  and  C_3
REMARK    3  A    between atoms: C_9  and  C_10
REMARK    4  A    between atoms: C_11  and  C_12
REMARK    5  A    between atoms: C_12  and  O_13
REMARK    6  A    between atoms: N_16  and  C_17
REMARK    7  A    between atoms: C_24  and  C_25
REMARK                            x       y       z     vdW  Elec       q    Type
REMARK                         _______ _______ _______ _____ _____    ______ ____
ROOT
ATOM      1  C   UNL     1       1.860   4.202  18.817  0.00  0.00    +0.000 C 
ATOM      2  C   UNL     1       2.238   4.192  20.304  0.00  0.00    +0.000 C 
ATOM      3  O   UNL     1       2.063   5.404  21.041  0.00  0.00    +0.000 OA
ATOM      4  C   UNL     1       1.822   6.608  20.448  0.00  0.00    +0.000 A 
ATOM      5  C   UNL     1       0.970   7.408  21.223  0.00  0.00    +0.000 A 
ATOM      6  C   UNL     1       0.623   8.694  20.817  0.00  0.00    +0.000 A 
ATOM      7  C   UNL     1       1.153   9.215  19.637  0.00  0.00    +0.000 A 
ATOM      8  C   UNL     1       2.025   8.436  18.866  0.00  0.00    +0.000 A 
ATOM      9  C   UNL     1       2.356   7.120  19.248  0.00  0.00    +0.000 A 
ATOM     10  C   UNL     1       3.185   6.334  18.339  0.00  0.00    +0.000 A 
ATOM     11  N   UNL     1       4.223   6.868  17.588  0.00  0.00    +0.000 NA
ATOM     12  C   UNL     1       4.774   5.907  16.861  0.00  0.00    +0.000 A 
ATOM     13  S   UNL     1       4.056   4.358  17.008  0.00  0.00    +0.000 S 
ATOM     14  C   UNL     1       2.920   4.995  18.114  0.00  0.00    +0.000 A 
ENDROOT
BRANCH  12  15
ATOM     15  C   UNL     1       5.915   6.101  15.968  0.00  0.00    +0.000 C 
ATOM     16  N   UNL     1       7.008   6.702  16.545  0.00  0.00    +0.000 N 
ATOM     17  O   UNL     1       5.972   5.781  14.783  0.00  0.00    +0.000 OA
ATOM     18  H   UNL     1       6.998   6.952  17.523  0.00  0.00    +0.000 HD
ATOM     19  H   UNL     1       7.831   6.849  15.979  0.00  0.00    +0.000 HD
ENDBRANCH  12  15
BRANCH   1  21
ATOM     20  C   UNL     1       2.092   1.855  19.173  0.00  0.00    +0.000 C 
ATOM     21  O   UNL     1       1.800   2.891  18.244  0.00  0.00    +0.000 OA
ENDBRANCH   1  21
BRANCH   7  22
ATOM     22  C   UNL     1       0.781  10.532  19.218  0.00  0.00    +0.000 C 
ATOM     23  C   UNL     1       0.437  11.648  18.918  0.00  0.00    +0.000 C 
BRANCH  23  24
ATOM     24  C   UNL     1      -0.015  13.022  18.623  0.00  0.00    +0.000 C 
ATOM     25  C   UNL     1       1.167  13.975  18.392  0.00  0.00    +0.000 C 
ATOM     26  C   UNL     1       1.521  14.470  19.782  0.00  0.00    +0.000 C 
ATOM     27  N   UNL     1       0.246  14.521  20.447  0.00  0.00    +0.000 N 
ATOM     28  C   UNL     1       0.004  15.295  21.641  0.00  0.00    +0.000 C 
ATOM     29  C   UNL     1      -0.691  13.676  19.855  0.00  0.00    +0.000 C 
ATOM     30  O   UNL     1      -1.851  13.538  20.208  0.00  0.00    +0.000 OA
BRANCH  24  31
ATOM     31  O   UNL     1      -0.817  12.995  17.453  0.00  0.00    +0.000 OA
ATOM     32  H   UNL     1      -1.308  13.835  17.431  0.00  0.00    +0.000 HD
ENDBRANCH  24  31
ENDBRANCH  23  24
ENDBRANCH   7  22
TORSDOF 5
ENDMDL
MODEL 3
REMARK VINA RESULT:      -7.9      1.287      1.807
REMARK  Name = 
REMARK  7 active torsions:
REMARK  status: ('A' for Active; 'I' for Inactive)
REMARK    1  A    between atoms: C_1  and  O_2
REMARK    2  A    between atoms: O_2  and  C_3
REMARK    3  A    between atoms: C_9  and  C_10
REMARK    4  A    between atoms: C_11  and  C_12
REMARK    5  A    between atoms: C_12  and  O_13
REMARK    6  A    between atoms: N_16  and  C_17
REMARK    7  A    between atoms: C_24  and  C_25
REMARK                            x       y       z     vdW  Elec       q    Type
REMARK                         _______ _______ _______ _____ _____    ______ ____
ROOT
ATOM      1  C   UNL     1       2.614   3.686  18.280  0.00  0.00    +0.000 C 
ATOM      2  C   UNL     1       2.825   3.544  19.793  0.00  0.00    +0.000 C 
ATOM      3  O   UNL     1       2.521   4.674  20.615  0.00  0.00    +0.000 OA
ATOM      4  C   UNL     1       2.301   5.923  20.112  0.00  0.00    +0.000 A 
ATOM      5  C   UNL     1       1.338   6.620  20.855  0.00  0.00    +0.000 A 
ATOM      6  C   UNL     1       0.989   7.929  20.533  0.00  0.00    +0.000 A 
ATOM      7  C   UNL     1       1.626   8.575  19.475  0.00  0.00    +0.000 A 
ATOM      8  C   UNL     1       2.608   7.899  18.740  0.00  0.00    +0.000 A 
ATOM      9  C   UNL     1       2.945   6.562  19.034  0.00  0.00    +0.000 A 
ATOM     10  C   UNL     1       3.899   5.891  18.156  0.00  0.00    +0.000 A 
ATOM     11  N   UNL     1       4.994   6.524  17.581  0.00  0.00    +0.000 NA
ATOM     12  C   UNL     1       5.659   5.653  16.836  0.00  0.00    +0.000 A 
ATOM     13  S   UNL     1       4.989   4.078  16.756  0.00  0.00    +0.000 S 
ATOM     14  C   UNL     1       3.714   4.573  17.780  0.00  0.00    +0.000 A 
ENDROOT
BRANCH  12  15
ATOM     15  C   UNL     1       6.883   5.965  16.102  0.00  0.00    +0.000 C 
ATOM     16  N   UNL     1       7.628   6.994  16.624  0.00  0.00    +0.000 N 
ATOM     17  O   UNL     1       7.285   5.398  15.088  0.00  0.00    +0.000 OA
ATOM     18  H   UNL     1       7.334   7.460  17.471  0.00  0.00    +0.000 HD
ATOM     19  H   UNL     1       8.492   7.244  16.166  0.00  0.00    +0.000 HD
ENDBRANCH  12  15
BRANCH   1  21
ATOM     20  C   UNL     1       3.300   1.403  18.331  0.00  0.00    +0.000 C 
ATOM     21  O   UNL     1       2.668   2.436  17.585  0.00  0.00    +0.000 OA
ENDBRANCH   1  21
BRANCH   7  22
ATOM     22  C   UNL     1       1.252   9.915  19.139  0.00  0.00    +0.000 C 
ATOM     23  C   UNL     1       0.962  11.063  18.910  0.00  0.00    +0.000 C 
BRANCH  23  24
ATOM     24  C   UNL     1       0.646  12.489  18.694  0.00  0.00    +0.000 C 
ATOM     25  C   UNL     1       1.874  13.280  18.220  0.00  0.00    +0.000 C 
ATOM     26  C   UNL     1       2.561  13.703  19.505  0.00  0.00    +0.000 C 
ATOM     27  N   UNL     1       1.463  13.914  20.410  0.00  0.00    +0.000 N 
ATOM     28  C   UNL     1       1.571  14.695  21.619  0.00  0.00    +0.000 C 
ATOM     29  C   UNL     1       0.323  13.209  20.029  0.00  0.00    +0.000 C 
ATOM     30  O   UNL     1      -0.751  13.220  20.609  0.00  0.00    +0.000 OA
BRANCH  24  31
ATOM     31  O   UNL     1      -0.370  12.586  17.709  0.00  0.00    +0.000 OA
ATOM     32  H   UNL     1      -0.407  13.520  17.438  0.00  0.00    +0.000 HD
ENDBRANCH  24  31
ENDBRANCH  23  24
ENDBRANCH   7  22
TORSDOF 5
ENDMDL
MODEL 4
REMARK VINA RESULT:      -7.8      3.311      8.825
REMARK  Name = 
REMARK  7 active torsions:
REMARK  status: ('A' for Active; 'I' for Inactive)
REMARK    1  A    between atoms: C_1  and  O_2
REMARK    2  A    between atoms: O_2  and  C_3
REMARK    3  A    between atoms: C_9  and  C_10
REMARK    4  A    between atoms: C_11  and  C_12
REMARK    5  A    between atoms: C_12  and  O_13
REMARK    6  A    between atoms: N_16  and  C_17
REMARK    7  A    between atoms: C_24  and  C_25
REMARK                            x       y       z     vdW  Elec       q    Type
REMARK                         _______ _______ _______ _____ _____    ______ ____
ROOT
ATOM      1  C   UNL     1      -0.381  11.784  20.891  0.00  0.00    +0.000 C 
ATOM      2  C   UNL     1      -0.885  10.736  21.891  0.00  0.00    +0.000 C 
ATOM      3  O   UNL     1      -0.302   9.432  21.836  0.00  0.00    +0.000 OA
ATOM      4  C   UNL     1       0.478   9.008  20.800  0.00  0.00    +0.000 A 
ATOM      5  C   UNL     1       1.497   8.148  21.234  0.00  0.00    +0.000 A 
ATOM      6  C   UNL     1       2.387   7.572  20.331  0.00  0.00    +0.000 A 
ATOM      7  C   UNL     1       2.249   7.824  18.967  0.00  0.00    +0.000 A 
ATOM      8  C   UNL     1       1.219   8.659  18.517  0.00  0.00    +0.000 A 
ATOM      9  C   UNL     1       0.334   9.277  19.424  0.00  0.00    +0.000 A 
ATOM     10  C   UNL     1      -0.644  10.219  18.888  0.00  0.00    +0.000 A 
ATOM     11  N   UNL     1      -1.282  10.054  17.666  0.00  0.00    +0.000 NA
ATOM     12  C   UNL     1      -2.101  11.076  17.460  0.00  0.00    +0.000 A 
ATOM     13  S   UNL     1      -2.109  12.280  18.680  0.00  0.00    +0.000 S 
ATOM     14  C   UNL     1      -0.936  11.396  19.554  0.00  0.00    +0.000 A 
ENDROOT
BRANCH  12  15
ATOM     15  C   UNL     1      -2.957  11.221  16.285  0.00  0.00    +0.000 C 
ATOM     16  N   UNL     1      -4.133  11.895  16.502  0.00  0.00    +0.000 N 
ATOM     17  O   UNL     1      -2.715  10.800  15.155  0.00  0.00    +0.000 OA
ATOM     18  H   UNL     1      -4.345  12.274  17.414  0.00  0.00    +0.000 HD
ATOM     19  H   UNL     1      -4.758  12.038  15.722  0.00  0.00    +0.000 HD
ENDBRANCH  12  15
BRANCH   1  21
ATOM     20  C   UNL     1      -1.385  13.228  22.501  0.00  0.00    +0.000 C 
ATOM     21  O   UNL     1      -0.809  13.113  21.206  0.00  0.00    +0.000 OA
ENDBRANCH   1  21
BRANCH   7  22
ATOM     22  C   UNL     1       3.175   7.240  18.045  0.00  0.00    +0.000 C 
ATOM     23  C   UNL     1       3.982   6.803  17.263  0.00  0.00    +0.000 C 
BRANCH  23  24
ATOM     24  C   UNL     1       5.006   6.339  16.306  0.00  0.00    +0.000 C 
ATOM     25  C   UNL     1       4.819   4.858  15.945  0.00  0.00    +0.000 C 
ATOM     26  C   UNL     1       5.593   4.115  17.017  0.00  0.00    +0.000 C 
ATOM     27  N   UNL     1       6.696   4.996  17.297  0.00  0.00    +0.000 N 
ATOM     28  C   UNL     1       7.910   4.565  17.947  0.00  0.00    +0.000 C 
ATOM     29  C   UNL     1       6.417   6.316  16.947  0.00  0.00    +0.000 C 
ATOM     30  O   UNL     1       7.180   7.261  17.064  0.00  0.00    +0.000 OA
BRANCH  24  31
ATOM     31  O   UNL     1       4.907   7.115  15.122  0.00  0.00    +0.000 OA
ATOM     32  H   UNL     1       5.559   7.832  15.203  0.00  0.00    +0.000 HD
ENDBRANCH  24  31
ENDBRANCH  23  24
ENDBRANCH   7  22
TORSDOF 5
ENDMDL
MODEL 5
REMARK VINA RESULT:      -7.7      7.295     10.784
REMARK  Name = 
REMARK  7 active torsions:
REMARK  status: ('A' for Active; 'I' for Inactive)
REMARK    1  A    between atoms: C_1  and  O_2
REMARK    2  A    between atoms: O_2  and  C_3
REMARK    3  A    between atoms: C_9  and  C_10
REMARK    4  A    between atoms: C_11  and  C_12
REMARK    5  A    between atoms: C_12  and  O_13
REMARK    6  A    between atoms: N_16  and  C_17
REMARK    7  A    between atoms: C_24  and  C_25
REMARK                            x       y       z     vdW  Elec       q    Type
REMARK                         _______ _______ _______ _____ _____    ______ ____
ROOT
ATOM      1  C   UNL     1       8.993  14.691  20.643  0.00  0.00    +0.000 C 
ATOM      2  C   UNL     1      10.510  14.594  20.436  0.00  0.00    +0.000 C 
ATOM      3  O   UNL     1      11.014  13.452  19.742  0.00  0.00    +0.000 OA
ATOM      4  C   UNL     1      10.260  12.345  19.482  0.00  0.00    +0.000 A 
ATOM      5  C   UNL     1      10.598  11.762  18.253  0.00  0.00    +0.000 A 
ATOM      6  C   UNL     1       9.971  10.600  17.810  0.00  0.00    +0.000 A 
ATOM      7  C   UNL     1       9.013   9.981  18.613  0.00  0.00    +0.000 A 
ATOM      8  C   UNL     1       8.685  10.538  19.855  0.00  0.00    +0.000 A 
ATOM      9  C   UNL     1       9.286  11.734  20.298  0.00  0.00    +0.000 A 
ATOM     10  C   UNL     1       8.814  12.310  21.553  0.00  0.00    +0.000 A 
ATOM     11  N   UNL     1       8.435  11.553  22.654  0.00  0.00    +0.000 NA
ATOM     12  C   UNL     1       8.050  12.363  23.629  0.00  0.00    +0.000 A 
ATOM     13  S   UNL     1       8.081  14.037  23.262  0.00  0.00    +0.000 S 
ATOM     14  C   UNL     1       8.641  13.676  21.688  0.00  0.00    +0.000 A 
ENDROOT
BRANCH  12  15
ATOM     15  C   UNL     1       7.610  11.912  24.947  0.00  0.00    +0.000 C 
ATOM     16  N   UNL     1       8.348  12.392  26.002  0.00  0.00    +0.000 N 
ATOM     17  O   UNL     1       6.663  11.163  25.179  0.00  0.00    +0.000 OA
ATOM     18  H   UNL     1       9.114  13.030  25.842  0.00  0.00    +0.000 HD
ATOM     19  H   UNL     1       8.079  12.125  26.938  0.00  0.00    +0.000 HD
ENDBRANCH  12  15
BRANCH   1  21
ATOM     20  C   UNL     1       8.463  16.935  20.032  0.00  0.00    +0.000 C 
ATOM     21  O   UNL     1       8.566  15.984  21.084  0.00  0.00    +0.000 OA
ENDBRANCH   1  21
BRANCH   7  22
ATOM     22  C   UNL     1       8.363   8.795  18.146  0.00  0.00    +0.000 C 
ATOM     23  C   UNL     1       7.796   7.827  17.703  0.00  0.00    +0.000 C 
BRANCH  23  24
ATOM     24  C   UNL     1       7.085   6.684  17.097  0.00  0.00    +0.000 C 
ATOM     25  C   UNL     1       5.642   7.046  16.716  0.00  0.00    +0.000 C 
ATOM     26  C   UNL     1       4.846   6.776  17.978  0.00  0.00    +0.000 C 
ATOM     27  N   UNL     1       5.526   5.650  18.560  0.00  0.00    +0.000 N 
ATOM     28  C   UNL     1       4.925   4.783  19.546  0.00  0.00    +0.000 C 
ATOM     29  C   UNL     1       6.846   5.550  18.128  0.00  0.00    +0.000 C 
ATOM     30  O   UNL     1       7.641   4.682  18.452  0.00  0.00    +0.000 OA
BRANCH  24  31
ATOM     31  O   UNL     1       7.781   6.284  15.927  0.00  0.00    +0.000 OA
ATOM     32  H   UNL     1       8.724   6.242  16.164  0.00  0.00    +0.000 HD
ENDBRANCH  24  31
ENDBRANCH  23  24
ENDBRANCH   7  22
TORSDOF 5
ENDMDL
MODEL 6
REMARK VINA RESULT:      -7.5      2.856      4.426
REMARK  Name = 
REMARK  7 active torsions:
REMARK  status: ('A' for Active; 'I' for Inactive)
REMARK    1  A    between atoms: C_1  and  O_2
REMARK    2  A    between atoms: O_2  and  C_3
REMARK    3  A    between atoms: C_9  and  C_10
REMARK    4  A    between atoms: C_11  and  C_12
REMARK    5  A    between atoms: C_12  and  O_13
REMARK    6  A    between atoms: N_16  and  C_17
REMARK    7  A    between atoms: C_24  and  C_25
REMARK                            x       y       z     vdW  Elec       q    Type
REMARK                         _______ _______ _______ _____ _____    ______ ____
ROOT
ATOM      1  C   UNL     1       5.177   6.022  18.488  0.00  0.00    +0.000 C 
ATOM      2  C   UNL     1       4.622   6.121  17.062  0.00  0.00    +0.000 C 
ATOM      3  O   UNL     1       3.596   7.085  16.814  0.00  0.00    +0.000 OA
ATOM      4  C   UNL     1       2.922   7.728  17.811  0.00  0.00    +0.000 A 
ATOM      5  C   UNL     1       2.596   9.044  17.452  0.00  0.00    +0.000 A 
ATOM      6  C   UNL     1       1.876   9.868  18.314  0.00  0.00    +0.000 A 
ATOM      7  C   UNL     1       1.439   9.372  19.541  0.00  0.00    +0.000 A 
ATOM      8  C   UNL     1       1.735   8.052  19.901  0.00  0.00    +0.000 A 
ATOM      9  C   UNL     1       2.494   7.219  19.053  0.00  0.00    +0.000 A 
ATOM     10  C   UNL     1       2.854   5.892  19.544  0.00  0.00    +0.000 A 
ATOM     11  N   UNL     1       2.016   5.108  20.326  0.00  0.00    +0.000 NA
ATOM     12  C   UNL     1       2.629   3.969  20.614  0.00  0.00    +0.000 A 
ATOM     13  S   UNL     1       4.225   3.809  20.009  0.00  0.00    +0.000 S 
ATOM     14  C   UNL     1       4.112   5.366  19.313  0.00  0.00    +0.000 A 
ENDROOT
BRANCH  12  15
ATOM     15  C   UNL     1       2.034   2.890  21.399  0.00  0.00    +0.000 C 
ATOM     16  N   UNL     1       0.714   2.629  21.121  0.00  0.00    +0.000 N 
ATOM     17  O   UNL     1       2.601   2.220  22.260  0.00  0.00    +0.000 OA
ATOM     18  H   UNL     1       0.231   3.146  20.400  0.00  0.00    +0.000 HD
ATOM     19  H   UNL     1       0.255   1.883  21.623  0.00  0.00    +0.000 HD
ENDBRANCH  12  15
BRANCH   1  21
ATOM     20  C   UNL     1       6.842   4.788  17.309  0.00  0.00    +0.000 C 
ATOM     21  O   UNL     1       6.377   5.247  18.572  0.00  0.00    +0.000 OA
ENDBRANCH   1  21
BRANCH   7  22
ATOM     22  C   UNL     1       0.712  10.228  20.428  0.00  0.00    +0.000 C 
ATOM     23  C   UNL     1       0.099  10.993  21.131  0.00  0.00    +0.000 C 
BRANCH  23  24
ATOM     24  C   UNL     1      -0.655  11.978  21.931  0.00  0.00    +0.000 C 
ATOM     25  C   UNL     1      -2.108  12.113  21.450  0.00  0.00    +0.000 C 
ATOM     26  C   UNL     1      -2.040  13.163  20.357  0.00  0.00    +0.000 C 
ATOM     27  N   UNL     1      -1.000  14.046  20.813  0.00  0.00    +0.000 N 
ATOM     28  C   UNL     1      -0.836  15.395  20.329  0.00  0.00    +0.000 C 
ATOM     29  C   UNL     1      -0.129  13.419  21.703  0.00  0.00    +0.000 C 
ATOM     30  O   UNL     1       0.828  13.940  22.251  0.00  0.00    +0.000 OA
BRANCH  24  31
ATOM     31  O   UNL     1      -0.659  11.558  23.286  0.00  0.00    +0.000 OA
ATOM     32  H   UNL     1      -0.305  12.298  23.809  0.00  0.00    +0.000 HD
ENDBRANCH  24  31
ENDBRANCH  23  24
ENDBRANCH   7  22
TORSDOF 5
ENDMDL
MODEL 7
REMARK VINA RESULT:      -7.5      3.137      8.975
REMARK  Name = 
REMARK  7 active torsions:
REMARK  status: ('A' for Active; 'I' for Inactive)
REMARK    1  A    between atoms: C_1  and  O_2
REMARK    2  A    between atoms: O_2  and  C_3
REMARK    3  A    between atoms: C_9  and  C_10
REMARK    4  A    between atoms: C_11  and  C_12
REMARK    5  A    between atoms: C_12  and  O_13
REMARK    6  A    between atoms: N_16  and  C_17
REMARK    7  A    between atoms: C_24  and  C_25
REMARK                            x       y       z     vdW  Elec       q    Type
REMARK                         _______ _______ _______ _____ _____    ______ ____
ROOT
ATOM      1  C   UNL     1       0.366  12.757  20.658  0.00  0.00    +0.000 C 
ATOM      2  C   UNL     1      -0.272  12.308  21.979  0.00  0.00    +0.000 C 
ATOM      3  O   UNL     1      -0.030  10.967  22.411  0.00  0.00    +0.000 OA
ATOM      4  C   UNL     1       0.514  10.011  21.604  0.00  0.00    +0.000 A 
ATOM      5  C   UNL     1       1.333   9.129  22.323  0.00  0.00    +0.000 A 
ATOM      6  C   UNL     1       1.961   8.056  21.695  0.00  0.00    +0.000 A 
ATOM      7  C   UNL     1       1.749   7.829  20.336  0.00  0.00    +0.000 A 
ATOM      8  C   UNL     1       0.912   8.686  19.612  0.00  0.00    +0.000 A 
ATOM      9  C   UNL     1       0.300   9.797  20.228  0.00  0.00    +0.000 A 
ATOM     10  C   UNL     1      -0.471  10.706  19.384  0.00  0.00    +0.000 A 
ATOM     11  N   UNL     1      -1.251  10.288  18.314  0.00  0.00    +0.000 NA
ATOM     12  C   UNL     1      -1.815  11.344  17.747  0.00  0.00    +0.000 A 
ATOM     13  S   UNL     1      -1.407  12.862  18.430  0.00  0.00    +0.000 S 
ATOM     14  C   UNL     1      -0.400  12.075  19.565  0.00  0.00    +0.000 A 
ENDROOT
BRANCH  12  15
ATOM     15  C   UNL     1      -2.725  11.278  16.606  0.00  0.00    +0.000 C 
ATOM     16  N   UNL     1      -3.946  11.877  16.801  0.00  0.00    +0.000 N 
ATOM     17  O   UNL     1      -2.493  10.745  15.523  0.00  0.00    +0.000 OA
ATOM     18  H   UNL     1      -4.153  12.344  17.672  0.00  0.00    +0.000 HD
ATOM     19  H   UNL     1      -4.611  11.874  16.041  0.00  0.00    +0.000 HD
ENDBRANCH  12  15
BRANCH   1  21
ATOM     20  C   UNL     1       1.544  14.736  20.040  0.00  0.00    +0.000 C 
ATOM     21  O   UNL     1       0.307  14.173  20.458  0.00  0.00    +0.000 OA
ENDBRANCH   1  21
BRANCH   7  22
ATOM     22  C   UNL     1       2.408   6.732  19.694  0.00  0.00    +0.000 C 
ATOM     23  C   UNL     1       2.951   5.835  19.099  0.00  0.00    +0.000 C 
BRANCH  23  24
ATOM     24  C   UNL     1       3.603   4.776  18.303  0.00  0.00    +0.000 C 
ATOM     25  C   UNL     1       2.628   3.643  17.952  0.00  0.00    +0.000 C 
ATOM     26  C   UNL     1       2.713   2.700  19.138  0.00  0.00    +0.000 C 
ATOM     27  N   UNL     1       4.087   2.812  19.549  0.00  0.00    +0.000 N 
ATOM     28  C   UNL     1       4.752   1.830  20.371  0.00  0.00    +0.000 C 
ATOM     29  C   UNL     1       4.665   4.011  19.135  0.00  0.00    +0.000 C 
ATOM     30  O   UNL     1       5.819   4.354  19.335  0.00  0.00    +0.000 OA
BRANCH  24  31
ATOM     31  O   UNL     1       4.093   5.347  17.101  0.00  0.00    +0.000 OA
ATOM     32  H   UNL     1       4.047   4.652  16.422  0.00  0.00    +0.000 HD
ENDBRANCH  24  31
ENDBRANCH  23  24
ENDBRANCH   7  22
TORSDOF 5
ENDMDL
MODEL 8
REMARK VINA RESULT:      -7.4      3.176      9.069
REMARK  Name = 
REMARK  7 active torsions:
REMARK  status: ('A' for Active; 'I' for Inactive)
REMARK    1  A    between atoms: C_1  and  O_2
REMARK    2  A    between atoms: O_2  and  C_3
REMARK    3  A    between atoms: C_9  and  C_10
REMARK    4  A    between atoms: C_11  and  C_12
REMARK    5  A    between atoms: C_12  and  O_13
REMARK    6  A    between atoms: N_16  and  C_17
REMARK    7  A    between atoms: C_24  and  C_25
REMARK                            x       y       z     vdW  Elec       q    Type
REMARK                         _______ _______ _______ _____ _____    ______ ____
ROOT
ATOM      1  C   UNL     1      -0.216  12.621  21.307  0.00  0.00    +0.000 C 
ATOM      2  C   UNL     1      -0.777  11.906  22.542  0.00  0.00    +0.000 C 
ATOM      3  O   UNL     1      -0.391  10.547  22.756  0.00  0.00    +0.000 OA
ATOM      4  C   UNL     1       0.234   9.792  21.807  0.00  0.00    +0.000 A 
ATOM      5  C   UNL     1       1.154   8.900  22.375  0.00  0.00    +0.000 A 
ATOM      6  C   UNL     1       1.877   8.010  21.583  0.00  0.00    +0.000 A 
ATOM      7  C   UNL     1       1.663   7.977  20.206  0.00  0.00    +0.000 A 
ATOM      8  C   UNL     1       0.728   8.845  19.629  0.00  0.00    +0.000 A 
ATOM      9  C   UNL     1       0.016   9.775  20.414  0.00  0.00    +0.000 A 
ATOM     10  C   UNL     1      -0.860  10.719  19.727  0.00  0.00    +0.000 A 
ATOM     11  N   UNL     1      -1.614  10.394  18.607  0.00  0.00    +0.000 NA
ATOM     12  C   UNL     1      -2.295  11.461  18.215  0.00  0.00    +0.000 A 
ATOM     13  S   UNL     1      -2.033  12.887  19.128  0.00  0.00    +0.000 S 
ATOM     14  C   UNL     1      -0.928  12.043  20.121  0.00  0.00    +0.000 A 
ENDROOT
BRANCH  12  15
ATOM     15  C   UNL     1      -3.216  11.478  17.081  0.00  0.00    +0.000 C 
ATOM     16  N   UNL     1      -2.616  11.464  15.845  0.00  0.00    +0.000 N 
ATOM     17  O   UNL     1      -4.443  11.504  17.143  0.00  0.00    +0.000 OA
ATOM     18  H   UNL     1      -1.610  11.416  15.765  0.00  0.00    +0.000 HD
ATOM     19  H   UNL     1      -3.204  11.460  15.024  0.00  0.00    +0.000 HD
ENDBRANCH  12  15
BRANCH   1  21
ATOM     20  C   UNL     1      -0.832  14.524  22.605  0.00  0.00    +0.000 C 
ATOM     21  O   UNL     1      -0.425  14.037  21.333  0.00  0.00    +0.000 OA
ENDBRANCH   1  21
BRANCH   7  22
ATOM     22  C   UNL     1       2.419   7.071  19.397  0.00  0.00    +0.000 C 
ATOM     23  C   UNL     1       3.070   6.275  18.767  0.00  0.00    +0.000 C 
BRANCH  23  24
ATOM     24  C   UNL     1       3.877   5.260  18.061  0.00  0.00    +0.000 C 
ATOM     25  C   UNL     1       2.998   4.177  17.419  0.00  0.00    +0.000 C 
ATOM     26  C   UNL     1       2.809   3.152  18.522  0.00  0.00    +0.000 C 
ATOM     27  N   UNL     1       4.057   3.203  19.236  0.00  0.00    +0.000 N 
ATOM     28  C   UNL     1       4.514   2.151  20.111  0.00  0.00    +0.000 C 
ATOM     29  C   UNL     1       4.720   4.415  19.050  0.00  0.00    +0.000 C 
ATOM     30  O   UNL     1       5.802   4.717  19.528  0.00  0.00    +0.000 OA
BRANCH  24  31
ATOM     31  O   UNL     1       4.628   5.903  17.043  0.00  0.00    +0.000 OA
ATOM     32  H   UNL     1       4.540   6.860  17.194  0.00  0.00    +0.000 HD
ENDBRANCH  24  31
ENDBRANCH  23  24
ENDBRANCH   7  22
TORSDOF 5
ENDMDL
MODEL 9
REMARK VINA RESULT:      -7.4      1.637      1.738
REMARK  Name = 
REMARK  7 active torsions:
REMARK  status: ('A' for Active; 'I' for Inactive)
REMARK    1  A    between atoms: C_1  and  O_2
REMARK    2  A    between atoms: O_2  and  C_3
REMARK    3  A    between atoms: C_9  and  C_10
REMARK    4  A    between atoms: C_11  and  C_12
REMARK    5  A    between atoms: C_12  and  O_13
REMARK    6  A    between atoms: N_16  and  C_17
REMARK    7  A    between atoms: C_24  and  C_25
REMARK                            x       y       z     vdW  Elec       q    Type
REMARK                         _______ _______ _______ _____ _____    ______ ____
ROOT
ATOM      1  C   UNL     1       1.437   3.929  18.697  0.00  0.00    +0.000 C 
ATOM      2  C   UNL     1       1.723   3.830  20.201  0.00  0.00    +0.000 C 
ATOM      3  O   UNL     1       1.749   5.044  20.954  0.00  0.00    +0.000 OA
ATOM      4  C   UNL     1       1.786   6.279  20.374  0.00  0.00    +0.000 A 
ATOM      5  C   UNL     1       1.067   7.224  21.120  0.00  0.00    +0.000 A 
ATOM      6  C   UNL     1       1.005   8.558  20.723  0.00  0.00    +0.000 A 
ATOM      7  C   UNL     1       1.692   8.974  19.584  0.00  0.00    +0.000 A 
ATOM      8  C   UNL     1       2.435   8.046  18.844  0.00  0.00    +0.000 A 
ATOM      9  C   UNL     1       2.477   6.686  19.215  0.00  0.00    +0.000 A 
ATOM     10  C   UNL     1       3.182   5.760  18.335  0.00  0.00    +0.000 A 
ATOM     11  N   UNL     1       4.347   6.084  17.651  0.00  0.00    +0.000 NA
ATOM     12  C   UNL     1       4.736   5.040  16.933  0.00  0.00    +0.000 A 
ATOM     13  S   UNL     1       3.718   3.664  17.010  0.00  0.00    +0.000 S 
ATOM     14  C   UNL     1       2.671   4.503  18.068  0.00  0.00    +0.000 A 
ENDROOT
BRANCH  12  15
ATOM     15  C   UNL     1       5.941   5.013  16.107  0.00  0.00    +0.000 C 
ATOM     16  N   UNL     1       6.362   3.760  15.735  0.00  0.00    +0.000 N 
ATOM     17  O   UNL     1       6.586   5.990  15.732  0.00  0.00    +0.000 OA
ATOM     18  H   UNL     1       5.836   2.941  16.007  0.00  0.00    +0.000 HD
ATOM     19  H   UNL     1       7.182   3.681  15.150  0.00  0.00    +0.000 HD
ENDBRANCH  12  15
BRANCH   1  21
ATOM     20  C   UNL     1       1.392   1.559  18.958  0.00  0.00    +0.000 C 
ATOM     21  O   UNL     1       1.151   2.663  18.094  0.00  0.00    +0.000 OA
ENDBRANCH   1  21
BRANCH   7  22
ATOM     22  C   UNL     1       1.612  10.343  19.173  0.00  0.00    +0.000 C 
ATOM     23  C   UNL     1       1.599  11.506  18.855  0.00  0.00    +0.000 C 
BRANCH  23  24
ATOM     24  C   UNL     1       1.656  12.936  18.495  0.00  0.00    +0.000 C 
ATOM     25  C   UNL     1       2.563  13.729  19.448  0.00  0.00    +0.000 C 
ATOM     26  C   UNL     1       1.645  14.129  20.587  0.00  0.00    +0.000 C 
ATOM     27  N   UNL     1       0.379  14.330  19.934  0.00  0.00    +0.000 N 
ATOM     28  C   UNL     1      -0.700  15.092  20.514  0.00  0.00    +0.000 C 
ATOM     29  C   UNL     1       0.293  13.637  18.728  0.00  0.00    +0.000 C 
ATOM     30  O   UNL     1      -0.662  13.644  17.967  0.00  0.00    +0.000 OA
BRANCH  24  31
ATOM     31  O   UNL     1       2.163  13.054  17.175  0.00  0.00    +0.000 OA
ATOM     32  H   UNL     1       3.123  12.900  17.230  0.00  0.00    +0.000 HD
ENDBRANCH  24  31
ENDBRANCH  23  24
ENDBRANCH   7  22
TORSDOF 5
ENDMDL
