MODEL 1
REMARK VINA RESULT:      -8.3      0.000      0.000
REMARK  Name = 
REMARK  5 active torsions:
REMARK  status: ('A' for Active; 'I' for Inactive)
REMARK    1  A    between atoms: C_1  and  O_2
REMARK    2  A    between atoms: O_2  and  C_3
REMARK    3  A    between atoms: C_6  and  C_7
REMARK    4  A    between atoms: N_12  and  C_13
REMARK    5  A    between atoms: C_23  and  C_24
REMARK                            x       y       z     vdW  Elec       q    Type
REMARK                         _______ _______ _______ _____ _____    ______ ____
ROOT
ATOM      1  C   UNL     1       1.247   8.832  19.659  0.00  0.00    +0.000 A 
ATOM      2  C   UNL     1       1.558   9.182  18.331  0.00  0.00    +0.000 A 
ATOM      3  C   UNL     1       2.492   8.417  17.553  0.00  0.00    +0.000 A 
ATOM      4  C   UNL     1       3.070   7.287  18.112  0.00  0.00    +0.000 A 
ATOM      5  C   UNL     1       2.552   6.891  19.358  0.00  0.00    +0.000 A 
ATOM      6  C   UNL     1       1.724   7.638  20.163  0.00  0.00    +0.000 A 
ATOM      7  N   UNL     1       3.184   5.757  19.872  0.00  0.00    +0.000 N 
ATOM      8  C   UNL     1       4.450   5.773  19.340  0.00  0.00    +0.000 C 
ATOM      9  O   UNL     1       5.430   5.242  19.836  0.00  0.00    +0.000 OA
ATOM     10  C   UNL     1       4.307   6.478  17.975  0.00  0.00    +0.000 C 
ATOM     11  C   UNL     1       5.253   5.905  17.200  0.00  0.00    +0.000 C 
ATOM     12  H   UNL     1       2.730   4.949  19.439  0.00  0.00    +0.000 HD
ENDROOT
BRANCH   1  18
ATOM     13  C   UNL     1      -0.794  11.599  22.045  0.00  0.00    +0.000 C 
ATOM     14  O   UNL     1      -0.101  12.040  21.153  0.00  0.00    +0.000 OA
ATOM     15  N   UNL     1      -0.940  10.238  22.278  0.00  0.00    +0.000 N 
ATOM     16  C   UNL     1      -0.339   9.211  21.557  0.00  0.00    +0.000 C 
ATOM     17  O   UNL     1      -0.617   8.048  21.849  0.00  0.00    +0.000 OA
ATOM     18  N   UNL     1       0.510   9.612  20.568  0.00  0.00    +0.000 N 
ATOM     19  H   UNL     1      -1.542   9.886  22.991  0.00  0.00    +0.000 HD
ATOM     20  H   UNL     1       0.485  10.617  20.383  0.00  0.00    +0.000 HD
BRANCH  13  24
ATOM     21  C   UNL     1      -2.755  14.518  24.545  0.00  0.00    +0.000 A 
ATOM     22  C   UNL     1      -1.473  14.724  24.043  0.00  0.00    +0.000 A 
ATOM     23  C   UNL     1      -0.877  13.759  23.229  0.00  0.00    +0.000 A 
ATOM     24  C   UNL     1      -1.534  12.561  22.930  0.00  0.00    +0.000 A 
ATOM     25  C   UNL     1      -2.810  12.337  23.468  0.00  0.00    +0.000 A 
ATOM     26  C   UNL     1      -3.414  13.319  24.270  0.00  0.00    +0.000 A 
BRANCH  21  28
ATOM     27  C   UNL     1      -4.293  16.300  24.712  0.00  0.00    +0.000 C 
ATOM     28  O   UNL     1      -3.248  15.539  25.308  0.00  0.00    +0.000 OA
ENDBRANCH  21  28
ENDBRANCH  13  24
ENDBRANCH   1  18
BRANCH  11  29
ATOM     29  C   UNL     1       5.569   5.531  15.815  0.00  0.00    +0.000 A 
ATOM     30  C   UNL     1       6.914   5.659  15.412  0.00  0.00    +0.000 A 
ATOM     31  C   UNL     1       7.396   4.847  14.396  0.00  0.00    +0.000 A 
ATOM     32  N   UNL     1       6.643   3.934  13.755  0.00  0.00    +0.000 NA
ATOM     33  C   UNL     1       5.351   3.838  14.149  0.00  0.00    +0.000 A 
ATOM     34  C   UNL     1       4.772   4.609  15.150  0.00  0.00    +0.000 A 
ENDBRANCH  11  29
TORSDOF 4
ENDMDL
MODEL 2
REMARK VINA RESULT:      -8.3      1.196      1.598
REMARK  Name = 
REMARK  5 active torsions:
REMARK  status: ('A' for Active; 'I' for Inactive)
REMARK    1  A    between atoms: C_1  and  O_2
REMARK    2  A    between atoms: O_2  and  C_3
REMARK    3  A    between atoms: C_6  and  C_7
REMARK    4  A    between atoms: N_12  and  C_13
REMARK    5  A    between atoms: C_23  and  C_24
REMARK                            x       y       z     vdW  Elec       q    Type
REMARK                         _______ _______ _______ _____ _____    ______ ____
ROOT
ATOM      1  C   UNL     1       1.833   8.453  18.964  0.00  0.00    +0.000 A 
ATOM      2  C   UNL     1       2.300   8.606  17.645  0.00  0.00    +0.000 A 
ATOM      3  C   UNL     1       3.284   7.720  17.090  0.00  0.00    +0.000 A 
ATOM      4  C   UNL     1       3.756   6.668  17.861  0.00  0.00    +0.000 A 
ATOM      5  C   UNL     1       3.091   6.463  19.082  0.00  0.00    +0.000 A 
ATOM      6  C   UNL     1       2.208   7.332  19.678  0.00  0.00    +0.000 A 
ATOM      7  N   UNL     1       3.621   5.399  19.817  0.00  0.00    +0.000 N 
ATOM      8  C   UNL     1       4.938   5.313  19.435  0.00  0.00    +0.000 C 
ATOM      9  O   UNL     1       5.838   4.838  20.106  0.00  0.00    +0.000 OA
ATOM     10  C   UNL     1       4.971   5.822  17.978  0.00  0.00    +0.000 C 
ATOM     11  C   UNL     1       5.974   5.126  17.402  0.00  0.00    +0.000 C 
ATOM     12  H   UNL     1       3.188   4.548  19.450  0.00  0.00    +0.000 HD
ENDROOT
BRANCH   1  18
ATOM     13  C   UNL     1      -0.165  11.147  21.468  0.00  0.00    +0.000 C 
ATOM     14  O   UNL     1       0.812  10.590  21.920  0.00  0.00    +0.000 OA
ATOM     15  N   UNL     1      -0.616  10.936  20.172  0.00  0.00    +0.000 N 
ATOM     16  C   UNL     1      -0.043  10.088  19.229  0.00  0.00    +0.000 C 
ATOM     17  O   UNL     1      -0.525  10.056  18.097  0.00  0.00    +0.000 OA
ATOM     18  N   UNL     1       1.031   9.369  19.667  0.00  0.00    +0.000 N 
ATOM     19  H   UNL     1      -1.399  11.428  19.798  0.00  0.00    +0.000 HD
ATOM     20  H   UNL     1       1.370   9.653  20.588  0.00  0.00    +0.000 HD
BRANCH  13  24
ATOM     21  C   UNL     1      -2.180  14.090  23.896  0.00  0.00    +0.000 A 
ATOM     22  C   UNL     1      -0.987  14.374  23.237  0.00  0.00    +0.000 A 
ATOM     23  C   UNL     1      -0.371  13.397  22.453  0.00  0.00    +0.000 A 
ATOM     24  C   UNL     1      -0.916  12.113  22.339  0.00  0.00    +0.000 A 
ATOM     25  C   UNL     1      -2.097  11.816  23.034  0.00  0.00    +0.000 A 
ATOM     26  C   UNL     1      -2.724  12.808  23.807  0.00  0.00    +0.000 A 
BRANCH  21  28
ATOM     27  C   UNL     1      -2.790  16.369  23.923  0.00  0.00    +0.000 C 
ATOM     28  O   UNL     1      -2.705  15.128  24.613  0.00  0.00    +0.000 OA
ENDBRANCH  21  28
ENDBRANCH  13  24
ENDBRANCH   1  18
BRANCH  11  29
ATOM     29  C   UNL     1       6.425   4.554  16.126  0.00  0.00    +0.000 A 
ATOM     30  C   UNL     1       5.513   3.724  15.442  0.00  0.00    +0.000 A 
ATOM     31  C   UNL     1       5.600   3.615  14.062  0.00  0.00    +0.000 A 
ATOM     32  N   UNL     1       6.524   4.258  13.324  0.00  0.00    +0.000 NA
ATOM     33  C   UNL     1       7.399   5.038  14.003  0.00  0.00    +0.000 A 
ATOM     34  C   UNL     1       7.398   5.208  15.382  0.00  0.00    +0.000 A 
ENDBRANCH  11  29
TORSDOF 4
ENDMDL
MODEL 3
REMARK VINA RESULT:      -8.1      1.179      1.740
REMARK  Name = 
REMARK  5 active torsions:
REMARK  status: ('A' for Active; 'I' for Inactive)
REMARK    1  A    between atoms: C_1  and  O_2
REMARK    2  A    between atoms: O_2  and  C_3
REMARK    3  A    between atoms: C_6  and  C_7
REMARK    4  A    between atoms: N_12  and  C_13
REMARK    5  A    between atoms: C_23  and  C_24
REMARK                            x       y       z     vdW  Elec       q    Type
REMARK                         _______ _______ _______ _____ _____    ______ ____
ROOT
ATOM      1  C   UNL     1       1.570   8.644  19.096  0.00  0.00    +0.000 A 
ATOM      2  C   UNL     1       2.398   8.941  17.997  0.00  0.00    +0.000 A 
ATOM      3  C   UNL     1       3.327   7.977  17.475  0.00  0.00    +0.000 A 
ATOM      4  C   UNL     1       3.379   6.714  18.045  0.00  0.00    +0.000 A 
ATOM      5  C   UNL     1       2.381   6.433  18.993  0.00  0.00    +0.000 A 
ATOM      6  C   UNL     1       1.535   7.348  19.573  0.00  0.00    +0.000 A 
ATOM      7  N   UNL     1       2.497   5.151  19.539  0.00  0.00    +0.000 N 
ATOM      8  C   UNL     1       3.832   4.839  19.454  0.00  0.00    +0.000 C 
ATOM      9  O   UNL     1       4.418   4.045  20.171  0.00  0.00    +0.000 OA
ATOM     10  C   UNL     1       4.350   5.603  18.217  0.00  0.00    +0.000 C 
ATOM     11  C   UNL     1       5.335   4.821  17.727  0.00  0.00    +0.000 C 
ATOM     12  H   UNL     1       2.039   4.514  18.883  0.00  0.00    +0.000 HD
ENDROOT
BRANCH   1  18
ATOM     13  C   UNL     1      -0.366  11.391  21.591  0.00  0.00    +0.000 C 
ATOM     14  O   UNL     1       0.667  10.903  21.998  0.00  0.00    +0.000 OA
ATOM     15  N   UNL     1      -0.899  11.086  20.345  0.00  0.00    +0.000 N 
ATOM     16  C   UNL     1      -0.357  10.210  19.410  0.00  0.00    +0.000 C 
ATOM     17  O   UNL     1      -0.917  10.092  18.321  0.00  0.00    +0.000 OA
ATOM     18  N   UNL     1       0.778   9.564  19.806  0.00  0.00    +0.000 N 
ATOM     19  H   UNL     1      -1.729  11.521  20.005  0.00  0.00    +0.000 HD
ATOM     20  H   UNL     1       1.170   9.915  20.682  0.00  0.00    +0.000 HD
BRANCH  13  24
ATOM     21  C   UNL     1      -2.615  14.045  24.142  0.00  0.00    +0.000 A 
ATOM     22  C   UNL     1      -3.089  12.782  23.797  0.00  0.00    +0.000 A 
ATOM     23  C   UNL     1      -2.326  11.949  22.976  0.00  0.00    +0.000 A 
ATOM     24  C   UNL     1      -1.096  12.373  22.461  0.00  0.00    +0.000 A 
ATOM     25  C   UNL     1      -0.638  13.660  22.778  0.00  0.00    +0.000 A 
ATOM     26  C   UNL     1      -1.399  14.487  23.620  0.00  0.00    +0.000 A 
BRANCH  21  28
ATOM     27  C   UNL     1      -3.686  16.104  24.569  0.00  0.00    +0.000 C 
ATOM     28  O   UNL     1      -3.433  14.762  24.970  0.00  0.00    +0.000 OA
ENDBRANCH  21  28
ENDBRANCH  13  24
ENDBRANCH   1  18
BRANCH  11  29
ATOM     29  C   UNL     1       6.010   4.423  16.484  0.00  0.00    +0.000 A 
ATOM     30  C   UNL     1       5.199   3.892  15.461  0.00  0.00    +0.000 A 
ATOM     31  C   UNL     1       5.604   4.022  14.140  0.00  0.00    +0.000 A 
ATOM     32  N   UNL     1       6.748   4.627  13.771  0.00  0.00    +0.000 NA
ATOM     33  C   UNL     1       7.519   5.116  14.771  0.00  0.00    +0.000 A 
ATOM     34  C   UNL     1       7.204   5.032  16.122  0.00  0.00    +0.000 A 
ENDBRANCH  11  29
TORSDOF 4
ENDMDL
MODEL 4
REMARK VINA RESULT:      -8.1      2.335     11.772
REMARK  Name = 
REMARK  5 active torsions:
REMARK  status: ('A' for Active; 'I' for Inactive)
REMARK    1  A    between atoms: C_1  and  O_2
REMARK    2  A    between atoms: O_2  and  C_3
REMARK    3  A    between atoms: C_6  and  C_7
REMARK    4  A    between atoms: N_12  and  C_13
REMARK    5  A    between atoms: C_23  and  C_24
REMARK                            x       y       z     vdW  Elec       q    Type
REMARK                         _______ _______ _______ _____ _____    ______ ____
ROOT
ATOM      1  C   UNL     1       1.090   8.948  20.419  0.00  0.00    +0.000 A 
ATOM      2  C   UNL     1       1.071   9.049  21.823  0.00  0.00    +0.000 A 
ATOM      3  C   UNL     1       0.452  10.162  22.487  0.00  0.00    +0.000 A 
ATOM      4  C   UNL     1      -0.173  11.138  21.726  0.00  0.00    +0.000 A 
ATOM      5  C   UNL     1      -0.291  10.858  20.354  0.00  0.00    +0.000 A 
ATOM      6  C   UNL     1       0.356   9.852  19.676  0.00  0.00    +0.000 A 
ATOM      7  N   UNL     1      -0.917  11.885  19.642  0.00  0.00    +0.000 N 
ATOM      8  C   UNL     1      -0.654  13.032  20.350  0.00  0.00    +0.000 C 
ATOM      9  O   UNL     1      -0.635  14.159  19.886  0.00  0.00    +0.000 OA
ATOM     10  C   UNL     1      -0.521  12.579  21.820  0.00  0.00    +0.000 C 
ATOM     11  C   UNL     1      -0.965  13.633  22.537  0.00  0.00    +0.000 C 
ATOM     12  H   UNL     1      -1.924  11.739  19.747  0.00  0.00    +0.000 HD
ENDROOT
BRANCH   1  18
ATOM     13  C   UNL     1       3.478   6.626  17.885  0.00  0.00    +0.000 C 
ATOM     14  O   UNL     1       3.374   7.806  17.623  0.00  0.00    +0.000 OA
ATOM     15  N   UNL     1       2.858   6.045  18.983  0.00  0.00    +0.000 N 
ATOM     16  C   UNL     1       2.055   6.695  19.915  0.00  0.00    +0.000 C 
ATOM     17  O   UNL     1       1.627   6.052  20.872  0.00  0.00    +0.000 OA
ATOM     18  N   UNL     1       1.830   8.018  19.668  0.00  0.00    +0.000 N 
ATOM     19  H   UNL     1       2.981   5.081  19.209  0.00  0.00    +0.000 HD
ATOM     20  H   UNL     1       2.400   8.401  18.911  0.00  0.00    +0.000 HD
BRANCH  13  24
ATOM     21  C   UNL     1       5.983   4.323  15.232  0.00  0.00    +0.000 A 
ATOM     22  C   UNL     1       5.863   5.705  15.113  0.00  0.00    +0.000 A 
ATOM     23  C   UNL     1       5.049   6.416  15.998  0.00  0.00    +0.000 A 
ATOM     24  C   UNL     1       4.318   5.758  16.993  0.00  0.00    +0.000 A 
ATOM     25  C   UNL     1       4.408   4.361  17.087  0.00  0.00    +0.000 A 
ATOM     26  C   UNL     1       5.243   3.652  16.208  0.00  0.00    +0.000 A 
BRANCH  21  28
ATOM     27  C   UNL     1       6.341   3.671  12.992  0.00  0.00    +0.000 C 
ATOM     28  O   UNL     1       6.824   3.736  14.329  0.00  0.00    +0.000 OA
ENDBRANCH  21  28
ENDBRANCH  13  24
ENDBRANCH   1  18
BRANCH  11  29
ATOM     29  C   UNL     1      -1.641  14.001  23.789  0.00  0.00    +0.000 A 
ATOM     30  C   UNL     1      -1.053  15.031  24.551  0.00  0.00    +0.000 A 
ATOM     31  C   UNL     1      -1.854  15.802  25.380  0.00  0.00    +0.000 A 
ATOM     32  N   UNL     1      -3.181  15.619  25.509  0.00  0.00    +0.000 NA
ATOM     33  C   UNL     1      -3.723  14.616  24.778  0.00  0.00    +0.000 A 
ATOM     34  C   UNL     1      -3.006  13.786  23.926  0.00  0.00    +0.000 A 
ENDBRANCH  11  29
TORSDOF 4
ENDMDL
MODEL 5
REMARK VINA RESULT:      -7.9      2.523     11.854
REMARK  Name = 
REMARK  5 active torsions:
REMARK  status: ('A' for Active; 'I' for Inactive)
REMARK    1  A    between atoms: C_1  and  O_2
REMARK    2  A    between atoms: O_2  and  C_3
REMARK    3  A    between atoms: C_6  and  C_7
REMARK    4  A    between atoms: N_12  and  C_13
REMARK    5  A    between atoms: C_23  and  C_24
REMARK                            x       y       z     vdW  Elec       q    Type
REMARK                         _______ _______ _______ _____ _____    ______ ____
ROOT
ATOM      1  C   UNL     1       0.639  10.315  20.060  0.00  0.00    +0.000 A 
ATOM      2  C   UNL     1      -0.408   9.979  20.939  0.00  0.00    +0.000 A 
ATOM      3  C   UNL     1      -1.012  10.961  21.796  0.00  0.00    +0.000 A 
ATOM      4  C   UNL     1      -0.578  12.276  21.726  0.00  0.00    +0.000 A 
ATOM      5  C   UNL     1       0.318  12.566  20.683  0.00  0.00    +0.000 A 
ATOM      6  C   UNL     1       0.975  11.645  19.902  0.00  0.00    +0.000 A 
ATOM      7  N   UNL     1       0.726  13.902  20.675  0.00  0.00    +0.000 N 
ATOM      8  C   UNL     1       0.633  14.319  21.980  0.00  0.00    +0.000 C 
ATOM      9  O   UNL     1       1.272  15.231  22.477  0.00  0.00    +0.000 OA
ATOM     10  C   UNL     1      -0.507  13.479  22.594  0.00  0.00    +0.000 C 
ATOM     11  C   UNL     1      -1.060  14.289  23.522  0.00  0.00    +0.000 C 
ATOM     12  H   UNL     1      -0.001  14.426  20.182  0.00  0.00    +0.000 HD
ENDROOT
BRANCH   1  18
ATOM     13  C   UNL     1       2.829   7.229  18.273  0.00  0.00    +0.000 C 
ATOM     14  O   UNL     1       2.297   6.988  19.336  0.00  0.00    +0.000 OA
ATOM     15  N   UNL     1       2.718   8.460  17.640  0.00  0.00    +0.000 N 
ATOM     16  C   UNL     1       2.011   9.564  18.106  0.00  0.00    +0.000 C 
ATOM     17  O   UNL     1       1.957  10.568  17.398  0.00  0.00    +0.000 OA
ATOM     18  N   UNL     1       1.428   9.408  19.330  0.00  0.00    +0.000 N 
ATOM     19  H   UNL     1       3.128   8.634  16.748  0.00  0.00    +0.000 HD
ATOM     20  H   UNL     1       1.458   8.450  19.684  0.00  0.00    +0.000 HD
BRANCH  13  24
ATOM     21  C   UNL     1       5.272   4.295  16.263  0.00  0.00    +0.000 A 
ATOM     22  C   UNL     1       5.402   5.658  16.008  0.00  0.00    +0.000 A 
ATOM     23  C   UNL     1       4.599   6.576  16.687  0.00  0.00    +0.000 A 
ATOM     24  C   UNL     1       3.632   6.150  17.605  0.00  0.00    +0.000 A 
ATOM     25  C   UNL     1       3.476   4.775  17.832  0.00  0.00    +0.000 A 
ATOM     26  C   UNL     1       4.299   3.855  17.162  0.00  0.00    +0.000 A 
BRANCH  21  28
ATOM     27  C   UNL     1       6.272   3.810  14.181  0.00  0.00    +0.000 C 
ATOM     28  O   UNL     1       6.126   3.492  15.561  0.00  0.00    +0.000 OA
ENDBRANCH  21  28
ENDBRANCH  13  24
ENDBRANCH   1  18
BRANCH  11  29
ATOM     29  C   UNL     1      -2.325  14.613  24.194  0.00  0.00    +0.000 A 
ATOM     30  C   UNL     1      -2.385  15.844  24.879  0.00  0.00    +0.000 A 
ATOM     31  C   UNL     1      -3.612  16.471  25.038  0.00  0.00    +0.000 A 
ATOM     32  N   UNL     1      -4.770  15.964  24.577  0.00  0.00    +0.000 NA
ATOM     33  C   UNL     1      -4.691  14.774  23.934  0.00  0.00    +0.000 A 
ATOM     34  C   UNL     1      -3.514  14.065  23.730  0.00  0.00    +0.000 A 
ENDBRANCH  11  29
TORSDOF 4
ENDMDL
MODEL 6
REMARK VINA RESULT:      -7.9      1.294      1.729
REMARK  Name = 
REMARK  5 active torsions:
REMARK  status: ('A' for Active; 'I' for Inactive)
REMARK    1  A    between atoms: C_1  and  O_2
REMARK    2  A    between atoms: O_2  and  C_3
REMARK    3  A    between atoms: C_6  and  C_7
REMARK    4  A    between atoms: N_12  and  C_13
REMARK    5  A    between atoms: C_23  and  C_24
REMARK                            x       y       z     vdW  Elec       q    Type
REMARK                         _______ _______ _______ _____ _____    ______ ____
ROOT
ATOM      1  C   UNL     1       1.797   8.350  19.092  0.00  0.00    +0.000 A 
ATOM      2  C   UNL     1       2.174   8.509  17.744  0.00  0.00    +0.000 A 
ATOM      3  C   UNL     1       3.146   7.647  17.131  0.00  0.00    +0.000 A 
ATOM      4  C   UNL     1       3.695   6.613  17.874  0.00  0.00    +0.000 A 
ATOM      5  C   UNL     1       3.115   6.395  19.136  0.00  0.00    +0.000 A 
ATOM      6  C   UNL     1       2.248   7.243  19.784  0.00  0.00    +0.000 A 
ATOM      7  N   UNL     1       3.720   5.350  19.838  0.00  0.00    +0.000 N 
ATOM      8  C   UNL     1       5.012   5.299  19.374  0.00  0.00    +0.000 C 
ATOM      9  O   UNL     1       5.965   4.852  19.988  0.00  0.00    +0.000 OA
ATOM     10  C   UNL     1       4.938   5.802  17.916  0.00  0.00    +0.000 C 
ATOM     11  C   UNL     1       5.922   5.131  17.279  0.00  0.00    +0.000 C 
ATOM     12  H   UNL     1       3.288   4.486  19.502  0.00  0.00    +0.000 HD
ENDROOT
BRANCH   1  18
ATOM     13  C   UNL     1      -0.796  11.134  20.835  0.00  0.00    +0.000 C 
ATOM     14  O   UNL     1      -0.830  11.024  19.628  0.00  0.00    +0.000 OA
ATOM     15  N   UNL     1       0.043  10.369  21.634  0.00  0.00    +0.000 N 
ATOM     16  C   UNL     1       0.939   9.399  21.195  0.00  0.00    +0.000 C 
ATOM     17  O   UNL     1       1.571   8.761  22.035  0.00  0.00    +0.000 OA
ATOM     18  N   UNL     1       1.015   9.246  19.841  0.00  0.00    +0.000 N 
ATOM     19  H   UNL     1       0.036  10.443  22.629  0.00  0.00    +0.000 HD
ATOM     20  H   UNL     1       0.297   9.760  19.326  0.00  0.00    +0.000 HD
BRANCH  13  24
ATOM     21  C   UNL     1      -3.371  13.884  22.938  0.00  0.00    +0.000 A 
ATOM     22  C   UNL     1      -2.897  12.720  23.535  0.00  0.00    +0.000 A 
ATOM     23  C   UNL     1      -2.058  11.860  22.824  0.00  0.00    +0.000 A 
ATOM     24  C   UNL     1      -1.704  12.131  21.497  0.00  0.00    +0.000 A 
ATOM     25  C   UNL     1      -2.213  13.284  20.884  0.00  0.00    +0.000 A 
ATOM     26  C   UNL     1      -3.041  14.157  21.609  0.00  0.00    +0.000 A 
BRANCH  21  28
ATOM     27  C   UNL     1      -5.565  14.485  23.565  0.00  0.00    +0.000 C 
ATOM     28  O   UNL     1      -4.163  14.662  23.735  0.00  0.00    +0.000 OA
ENDBRANCH  21  28
ENDBRANCH  13  24
ENDBRANCH   1  18
BRANCH  11  29
ATOM     29  C   UNL     1       6.307   4.565  15.979  0.00  0.00    +0.000 A 
ATOM     30  C   UNL     1       5.290   3.939  15.231  0.00  0.00    +0.000 A 
ATOM     31  C   UNL     1       5.395   3.895  13.849  0.00  0.00    +0.000 A 
ATOM     32  N   UNL     1       6.431   4.417  13.167  0.00  0.00    +0.000 NA
ATOM     33  C   UNL     1       7.404   5.001  13.906  0.00  0.00    +0.000 A 
ATOM     34  C   UNL     1       7.394   5.090  15.293  0.00  0.00    +0.000 A 
ENDBRANCH  11  29
TORSDOF 4
ENDMDL
MODEL 7
REMARK VINA RESULT:      -7.9      2.583     11.788
REMARK  Name = 
REMARK  5 active torsions:
REMARK  status: ('A' for Active; 'I' for Inactive)
REMARK    1  A    between atoms: C_1  and  O_2
REMARK    2  A    between atoms: O_2  and  C_3
REMARK    3  A    between atoms: C_6  and  C_7
REMARK    4  A    between atoms: N_12  and  C_13
REMARK    5  A    between atoms: C_23  and  C_24
REMARK                            x       y       z     vdW  Elec       q    Type
REMARK                         _______ _______ _______ _____ _____    ______ ____
ROOT
ATOM      1  C   UNL     1       0.508  10.589  20.091  0.00  0.00    +0.000 A 
ATOM      2  C   UNL     1      -0.801  10.595  20.610  0.00  0.00    +0.000 A 
ATOM      3  C   UNL     1      -1.347  11.757  21.254  0.00  0.00    +0.000 A 
ATOM      4  C   UNL     1      -0.579  12.909  21.333  0.00  0.00    +0.000 A 
ATOM      5  C   UNL     1       0.628  12.886  20.611  0.00  0.00    +0.000 A 
ATOM      6  C   UNL     1       1.217  11.774  20.056  0.00  0.00    +0.000 A 
ATOM      7  N   UNL     1       1.360  14.068  20.742  0.00  0.00    +0.000 N 
ATOM      8  C   UNL     1       1.002  14.586  21.962  0.00  0.00    +0.000 C 
ATOM      9  O   UNL     1       1.685  15.337  22.638  0.00  0.00    +0.000 OA
ATOM     10  C   UNL     1      -0.449  14.112  22.194  0.00  0.00    +0.000 C 
ATOM     11  C   UNL     1      -1.014  15.100  22.919  0.00  0.00    +0.000 C 
ATOM     12  H   UNL     1       0.976  14.724  20.057  0.00  0.00    +0.000 HD
ENDROOT
BRANCH   1  18
ATOM     13  C   UNL     1       2.678   7.532  18.231  0.00  0.00    +0.000 C 
ATOM     14  O   UNL     1       2.426   8.516  17.569  0.00  0.00    +0.000 OA
ATOM     15  N   UNL     1       2.294   7.404  19.559  0.00  0.00    +0.000 N 
ATOM     16  C   UNL     1       1.589   8.342  20.306  0.00  0.00    +0.000 C 
ATOM     17  O   UNL     1       1.376   8.107  21.495  0.00  0.00    +0.000 OA
ATOM     18  N   UNL     1       1.206   9.461  19.625  0.00  0.00    +0.000 N 
ATOM     19  H   UNL     1       2.540   6.606  20.105  0.00  0.00    +0.000 HD
ATOM     20  H   UNL     1       1.614   9.537  18.691  0.00  0.00    +0.000 HD
BRANCH  13  24
ATOM     21  C   UNL     1       5.041   4.460  16.335  0.00  0.00    +0.000 A 
ATOM     22  C   UNL     1       5.312   5.813  16.151  0.00  0.00    +0.000 A 
ATOM     23  C   UNL     1       4.530   6.777  16.790  0.00  0.00    +0.000 A 
ATOM     24  C   UNL     1       3.446   6.409  17.596  0.00  0.00    +0.000 A 
ATOM     25  C   UNL     1       3.150   5.047  17.749  0.00  0.00    +0.000 A 
ATOM     26  C   UNL     1       3.952   4.080  17.120  0.00  0.00    +0.000 A 
BRANCH  21  28
ATOM     27  C   UNL     1       6.227   3.981  14.352  0.00  0.00    +0.000 C 
ATOM     28  O   UNL     1       5.886   3.608  15.682  0.00  0.00    +0.000 OA
ENDBRANCH  21  28
ENDBRANCH  13  24
ENDBRANCH   1  18
BRANCH  11  29
ATOM     29  C   UNL     1      -2.287  15.785  23.181  0.00  0.00    +0.000 A 
ATOM     30  C   UNL     1      -3.460  15.135  22.745  0.00  0.00    +0.000 A 
ATOM     31  C   UNL     1      -4.655  15.380  23.405  0.00  0.00    +0.000 A 
ATOM     32  N   UNL     1      -4.767  16.222  24.449  0.00  0.00    +0.000 NA
ATOM     33  C   UNL     1      -3.631  16.846  24.842  0.00  0.00    +0.000 A 
ATOM     34  C   UNL     1      -2.389  16.672  24.244  0.00  0.00    +0.000 A 
ENDBRANCH  11  29
TORSDOF 4
ENDMDL
MODEL 8
REMARK VINA RESULT:      -7.8      2.851     12.147
REMARK  Name = 
REMARK  5 active torsions:
REMARK  status: ('A' for Active; 'I' for Inactive)
REMARK    1  A    between atoms: C_1  and  O_2
REMARK    2  A    between atoms: O_2  and  C_3
REMARK    3  A    between atoms: C_6  and  C_7
REMARK    4  A    between atoms: N_12  and  C_13
REMARK    5  A    between atoms: C_23  and  C_24
REMARK                            x       y       z     vdW  Elec       q    Type
REMARK                         _______ _______ _______ _____ _____    ______ ____
ROOT
ATOM      1  C   UNL     1      -0.113  11.362  21.532  0.00  0.00    +0.000 A 
ATOM      2  C   UNL     1       0.170  12.728  21.340  0.00  0.00    +0.000 A 
ATOM      3  C   UNL     1      -0.683  13.752  21.876  0.00  0.00    +0.000 A 
ATOM      4  C   UNL     1      -1.787  13.385  22.629  0.00  0.00    +0.000 A 
ATOM      5  C   UNL     1      -1.880  12.019  22.947  0.00  0.00    +0.000 A 
ATOM      6  C   UNL     1      -1.136  11.007  22.389  0.00  0.00    +0.000 A 
ATOM      7  N   UNL     1      -3.020  11.713  23.695  0.00  0.00    +0.000 N 
ATOM      8  C   UNL     1      -3.948  12.666  23.353  0.00  0.00    +0.000 C 
ATOM      9  O   UNL     1      -5.157  12.533  23.429  0.00  0.00    +0.000 OA
ATOM     10  C   UNL     1      -3.124  13.921  22.990  0.00  0.00    +0.000 C 
ATOM     11  C   UNL     1      -3.917  14.956  23.343  0.00  0.00    +0.000 C 
ATOM     12  H   UNL     1      -2.789  11.913  24.671  0.00  0.00    +0.000 HD
ENDROOT
BRANCH   1  18
ATOM     13  C   UNL     1       1.732   7.882  20.118  0.00  0.00    +0.000 C 
ATOM     14  O   UNL     1       1.422   7.908  21.290  0.00  0.00    +0.000 OA
ATOM     15  N   UNL     1       1.482   8.938  19.252  0.00  0.00    +0.000 N 
ATOM     16  C   UNL     1       0.863  10.141  19.578  0.00  0.00    +0.000 C 
ATOM     17  O   UNL     1       0.657  10.957  18.681  0.00  0.00    +0.000 OA
ATOM     18  N   UNL     1       0.532  10.288  20.894  0.00  0.00    +0.000 N 
ATOM     19  H   UNL     1       1.708   8.890  18.282  0.00  0.00    +0.000 HD
ATOM     20  H   UNL     1       0.645   9.436  21.447  0.00  0.00    +0.000 HD
BRANCH  13  24
ATOM     21  C   UNL     1       3.558   4.231  18.720  0.00  0.00    +0.000 A 
ATOM     22  C   UNL     1       2.823   4.279  19.901  0.00  0.00    +0.000 A 
ATOM     23  C   UNL     1       2.239   5.478  20.315  0.00  0.00    +0.000 A 
ATOM     24  C   UNL     1       2.407   6.654  19.575  0.00  0.00    +0.000 A 
ATOM     25  C   UNL     1       3.180   6.614  18.407  0.00  0.00    +0.000 A 
ATOM     26  C   UNL     1       3.749   5.402  17.984  0.00  0.00    +0.000 A 
BRANCH  21  28
ATOM     27  C   UNL     1       3.111   1.942  18.364  0.00  0.00    +0.000 C 
ATOM     28  O   UNL     1       4.061   3.001  18.401  0.00  0.00    +0.000 OA
ENDBRANCH  21  28
ENDBRANCH  13  24
ENDBRANCH   1  18
BRANCH  11  29
ATOM     29  C   UNL     1      -3.891  16.342  23.830  0.00  0.00    +0.000 A 
ATOM     30  C   UNL     1      -5.118  16.889  24.258  0.00  0.00    +0.000 A 
ATOM     31  C   UNL     1      -5.113  17.898  25.209  0.00  0.00    +0.000 A 
ATOM     32  N   UNL     1      -3.989  18.402  25.751  0.00  0.00    +0.000 NA
ATOM     33  C   UNL     1      -2.822  17.872  25.315  0.00  0.00    +0.000 A 
ATOM     34  C   UNL     1      -2.721  16.864  24.364  0.00  0.00    +0.000 A 
ENDBRANCH  11  29
TORSDOF 4
ENDMDL
MODEL 9
REMARK VINA RESULT:      -7.8      2.428     11.897
REMARK  Name = 
REMARK  5 active torsions:
REMARK  status: ('A' for Active; 'I' for Inactive)
REMARK    1  A    between atoms: C_1  and  O_2
REMARK    2  A    between atoms: O_2  and  C_3
REMARK    3  A    between atoms: C_6  and  C_7
REMARK    4  A    between atoms: N_12  and  C_13
REMARK    5  A    between atoms: C_23  and  C_24
REMARK                            x       y       z     vdW  Elec       q    Type
REMARK                         _______ _______ _______ _____ _____    ______ ____
ROOT
ATOM      1  C   UNL     1       0.273  10.356  20.862  0.00  0.00    +0.000 A 
ATOM      2  C   UNL     1      -0.776  10.158  21.781  0.00  0.00    +0.000 A 
ATOM      3  C   UNL     1      -1.350  11.254  22.509  0.00  0.00    +0.000 A 
ATOM      4  C   UNL     1      -0.886  12.539  22.272  0.00  0.00    +0.000 A 
ATOM      5  C   UNL     1       0.009  12.674  21.197  0.00  0.00    +0.000 A 
ATOM      6  C   UNL     1       0.639  11.646  20.536  0.00  0.00    +0.000 A 
ATOM      7  N   UNL     1       0.449  13.988  21.019  0.00  0.00    +0.000 N 
ATOM      8  C   UNL     1       0.374  14.568  22.262  0.00  0.00    +0.000 C 
ATOM      9  O   UNL     1       1.038  15.520  22.637  0.00  0.00    +0.000 OA
ATOM     10  C   UNL     1      -0.781  13.840  22.981  0.00  0.00    +0.000 C 
ATOM     11  C   UNL     1      -1.308  14.774  23.801  0.00  0.00    +0.000 C 
ATOM     12  H   UNL     1      -0.270  14.463  20.467  0.00  0.00    +0.000 HD
ENDROOT
BRANCH   1  18
ATOM     13  C   UNL     1       2.610   7.713  18.609  0.00  0.00    +0.000 C 
ATOM     14  O   UNL     1       2.287   8.755  18.082  0.00  0.00    +0.000 OA
ATOM     15  N   UNL     1       2.252   7.389  19.911  0.00  0.00    +0.000 N 
ATOM     16  C   UNL     1       1.498   8.175  20.777  0.00  0.00    +0.000 C 
ATOM     17  O   UNL     1       1.316   7.774  21.926  0.00  0.00    +0.000 OA
ATOM     18  N   UNL     1       1.035   9.345  20.249  0.00  0.00    +0.000 N 
ATOM     19  H   UNL     1       2.555   6.545  20.348  0.00  0.00    +0.000 HD
ATOM     20  H   UNL     1       1.425   9.567  19.331  0.00  0.00    +0.000 HD
BRANCH  13  24
ATOM     21  C   UNL     1       4.842   4.733  16.429  0.00  0.00    +0.000 A 
ATOM     22  C   UNL     1       3.787   4.391  17.269  0.00  0.00    +0.000 A 
ATOM     23  C   UNL     1       3.083   5.385  17.950  0.00  0.00    +0.000 A 
ATOM     24  C   UNL     1       3.440   6.733  17.830  0.00  0.00    +0.000 A 
ATOM     25  C   UNL     1       4.528   7.074  17.014  0.00  0.00    +0.000 A 
ATOM     26  C   UNL     1       5.221   6.072  16.315  0.00  0.00    +0.000 A 
BRANCH  21  28
ATOM     27  C   UNL     1       6.125   4.001  14.588  0.00  0.00    +0.000 C 
ATOM     28  O   UNL     1       5.442   3.681  15.796  0.00  0.00    +0.000 OA
ENDBRANCH  21  28
ENDBRANCH  13  24
ENDBRANCH   1  18
BRANCH  11  29
ATOM     29  C   UNL     1      -2.561  15.210  24.432  0.00  0.00    +0.000 A 
ATOM     30  C   UNL     1      -2.558  16.482  25.040  0.00  0.00    +0.000 A 
ATOM     31  C   UNL     1      -3.748  17.187  25.140  0.00  0.00    +0.000 A 
ATOM     32  N   UNL     1      -4.928  16.719  24.693  0.00  0.00    +0.000 NA
ATOM     33  C   UNL     1      -4.910  15.490  24.125  0.00  0.00    +0.000 A 
ATOM     34  C   UNL     1      -3.773  14.704  23.983  0.00  0.00    +0.000 A 
ENDBRANCH  11  29
TORSDOF 4
ENDMDL
