MODEL 1
REMARK VINA RESULT:      -6.8      0.000      0.000
REMARK  Name = 
REMARK  8 active torsions:
REMARK  status: ('A' for Active; 'I' for Inactive)
REMARK    1  A    between atoms: C_1  and  O_2
REMARK    2  A    between atoms: O_2  and  C_3
REMARK    3  A    between atoms: C_5  and  O_6
REMARK    4  A    between atoms: O_6  and  C_7
REMARK    5  A    between atoms: C_9  and  O_10
REMARK    6  A    between atoms: O_10  and  S_11
REMARK    7  A    between atoms: S_11  and  C_14
REMARK    8  A    between atoms: C_17  and  C_18
REMARK                            x       y       z     vdW  Elec       q    Type
REMARK                         _______ _______ _______ _____ _____    ______ ____
ROOT
ATOM      1  C   UNL     1       0.714   8.647  21.031  0.00  0.00    +0.000 A 
ATOM      2  C   UNL     1       0.863   7.331  21.439  0.00  0.00    +0.000 A 
ATOM      3  C   UNL     1       1.664   6.426  20.710  0.00  0.00    +0.000 A 
ATOM      4  C   UNL     1       2.327   6.848  19.497  0.00  0.00    +0.000 A 
ATOM      5  C   UNL     1       3.177   6.106  18.600  0.00  0.00    +0.000 A 
ATOM      6  C   UNL     1       3.620   6.712  17.407  0.00  0.00    +0.000 A 
ATOM      7  C   UNL     1       3.343   8.030  17.175  0.00  0.00    +0.000 A 
ATOM      8  N   UNL     1       2.612   8.771  18.013  0.00  0.00    +0.000 NA
ATOM      9  C   UNL     1       2.110   8.198  19.106  0.00  0.00    +0.000 A 
ATOM     10  C   UNL     1       1.345   9.056  19.875  0.00  0.00    +0.000 A 
ENDROOT
BRANCH   1  12
ATOM     11  C   UNL     1      -0.275   9.423  23.053  0.00  0.00    +0.000 C 
ATOM     12  O   UNL     1      -0.020   9.613  21.670  0.00  0.00    +0.000 OA
ENDBRANCH   1  12
BRANCH   3  13
ATOM     13  O   UNL     1       1.819   5.116  21.119  0.00  0.00    +0.000 OA
ATOM     14  C   UNL     1       0.917   4.156  20.550  0.00  0.00    +0.000 C 
ENDBRANCH   3  13
BRANCH   5  15
ATOM     15  O   UNL     1       3.620   4.817  18.907  0.00  0.00    +0.000 OA
BRANCH  15  16
ATOM     16  S   UNL     1       5.246   4.529  18.965  0.00  0.00    +0.000 S 
ATOM     17  O   UNL     1       5.898   5.663  19.595  0.00  0.00    +0.000 OA
ATOM     18  O   UNL     1       5.441   3.184  19.490  0.00  0.00    +0.000 OA
BRANCH  16  19
ATOM     19  C   UNL     1       5.880   4.470  17.326  0.00  0.00    +0.000 A 
ATOM     20  C   UNL     1       7.049   5.135  16.977  0.00  0.00    +0.000 A 
ATOM     21  C   UNL     1       7.440   5.139  15.640  0.00  0.00    +0.000 A 
ATOM     22  C   UNL     1       6.677   4.482  14.659  0.00  0.00    +0.000 A 
ATOM     23  C   UNL     1       7.083   4.520  13.218  0.00  0.00    +0.000 C 
ATOM     24  C   UNL     1       5.516   3.791  15.033  0.00  0.00    +0.000 A 
ATOM     25  C   UNL     1       5.121   3.780  16.365  0.00  0.00    +0.000 A 
ENDBRANCH  16  19
ENDBRANCH  15  16
ENDBRANCH   5  15
TORSDOF 5
ENDMDL
MODEL 2
REMARK VINA RESULT:      -6.5      4.350      6.977
REMARK  Name = 
REMARK  8 active torsions:
REMARK  status: ('A' for Active; 'I' for Inactive)
REMARK    1  A    between atoms: C_1  and  O_2
REMARK    2  A    between atoms: O_2  and  C_3
REMARK    3  A    between atoms: C_5  and  O_6
REMARK    4  A    between atoms: O_6  and  C_7
REMARK    5  A    between atoms: C_9  and  O_10
REMARK    6  A    between atoms: O_10  and  S_11
REMARK    7  A    between atoms: S_11  and  C_14
REMARK    8  A    between atoms: C_17  and  C_18
REMARK                            x       y       z     vdW  Elec       q    Type
REMARK                         _______ _______ _______ _____ _____    ______ ____
ROOT
ATOM      1  C   UNL     1      -4.396  12.409  19.293  0.00  0.00    +0.000 A 
ATOM      2  C   UNL     1      -3.543  11.611  18.546  0.00  0.00    +0.000 A 
ATOM      3  C   UNL     1      -2.221  11.357  18.974  0.00  0.00    +0.000 A 
ATOM      4  C   UNL     1      -1.718  11.951  20.191  0.00  0.00    +0.000 A 
ATOM      5  C   UNL     1      -0.421  11.839  20.809  0.00  0.00    +0.000 A 
ATOM      6  C   UNL     1      -0.128  12.613  21.950  0.00  0.00    +0.000 A 
ATOM      7  C   UNL     1      -1.113  13.363  22.528  0.00  0.00    +0.000 A 
ATOM      8  N   UNL     1      -2.348  13.445  22.023  0.00  0.00    +0.000 NA
ATOM      9  C   UNL     1      -2.625  12.790  20.896  0.00  0.00    +0.000 A 
ATOM     10  C   UNL     1      -3.922  12.978  20.455  0.00  0.00    +0.000 A 
ENDROOT
BRANCH   1  12
ATOM     11  C   UNL     1      -6.502  11.649  18.482  0.00  0.00    +0.000 C 
ATOM     12  O   UNL     1      -5.699  12.706  18.985  0.00  0.00    +0.000 OA
ENDBRANCH   1  12
BRANCH   3  13
ATOM     13  O   UNL     1      -1.371  10.556  18.236  0.00  0.00    +0.000 OA
ATOM     14  C   UNL     1      -1.896  10.026  17.010  0.00  0.00    +0.000 C 
ENDBRANCH   3  13
BRANCH   5  15
ATOM     15  O   UNL     1       0.540  10.940  20.339  0.00  0.00    +0.000 OA
BRANCH  15  16
ATOM     16  S   UNL     1       0.727   9.495  21.120  0.00  0.00    +0.000 S 
ATOM     17  O   UNL     1       1.635   9.684  22.237  0.00  0.00    +0.000 OA
ATOM     18  O   UNL     1      -0.598   8.932  21.336  0.00  0.00    +0.000 OA
BRANCH  16  19
ATOM     19  C   UNL     1       1.532   8.359  20.045  0.00  0.00    +0.000 A 
ATOM     20  C   UNL     1       1.890   7.087  20.473  0.00  0.00    +0.000 A 
ATOM     21  C   UNL     1       2.621   6.276  19.608  0.00  0.00    +0.000 A 
ATOM     22  C   UNL     1       2.986   6.723  18.326  0.00  0.00    +0.000 A 
ATOM     23  C   UNL     1       3.801   5.859  17.415  0.00  0.00    +0.000 C 
ATOM     24  C   UNL     1       2.590   7.999  17.900  0.00  0.00    +0.000 A 
ATOM     25  C   UNL     1       1.859   8.813  18.756  0.00  0.00    +0.000 A 
ENDBRANCH  16  19
ENDBRANCH  15  16
ENDBRANCH   5  15
TORSDOF 5
ENDMDL
MODEL 3
REMARK VINA RESULT:      -6.5      4.360      6.986
REMARK  Name = 
REMARK  8 active torsions:
REMARK  status: ('A' for Active; 'I' for Inactive)
REMARK    1  A    between atoms: C_1  and  O_2
REMARK    2  A    between atoms: O_2  and  C_3
REMARK    3  A    between atoms: C_5  and  O_6
REMARK    4  A    between atoms: O_6  and  C_7
REMARK    5  A    between atoms: C_9  and  O_10
REMARK    6  A    between atoms: O_10  and  S_11
REMARK    7  A    between atoms: S_11  and  C_14
REMARK    8  A    between atoms: C_17  and  C_18
REMARK                            x       y       z     vdW  Elec       q    Type
REMARK                         _______ _______ _______ _____ _____    ______ ____
ROOT
ATOM      1  C   UNL     1      -4.677  13.099  20.595  0.00  0.00    +0.000 A 
ATOM      2  C   UNL     1      -3.566  13.070  21.424  0.00  0.00    +0.000 A 
ATOM      3  C   UNL     1      -2.369  12.442  21.019  0.00  0.00    +0.000 A 
ATOM      4  C   UNL     1      -2.284  11.786  19.734  0.00  0.00    +0.000 A 
ATOM      5  C   UNL     1      -1.184  11.086  19.122  0.00  0.00    +0.000 A 
ATOM      6  C   UNL     1      -1.381  10.425  17.892  0.00  0.00    +0.000 A 
ATOM      7  C   UNL     1      -2.572  10.560  17.237  0.00  0.00    +0.000 A 
ATOM      8  N   UNL     1      -3.598  11.254  17.740  0.00  0.00    +0.000 NA
ATOM      9  C   UNL     1      -3.465  11.816  18.940  0.00  0.00    +0.000 A 
ATOM     10  C   UNL     1      -4.602  12.477  19.367  0.00  0.00    +0.000 A 
ENDROOT
BRANCH   1  12
ATOM     11  C   UNL     1      -6.733  13.028  21.794  0.00  0.00    +0.000 C 
ATOM     12  O   UNL     1      -5.880  13.695  20.876  0.00  0.00    +0.000 OA
ENDBRANCH   1  12
BRANCH   3  13
ATOM     13  O   UNL     1      -1.259  12.418  21.840  0.00  0.00    +0.000 OA
ATOM     14  C   UNL     1      -0.816  13.682  22.354  0.00  0.00    +0.000 C 
ENDBRANCH   3  13
BRANCH   5  15
ATOM     15  O   UNL     1       0.093  11.089  19.688  0.00  0.00    +0.000 OA
BRANCH  15  16
ATOM     16  S   UNL     1       0.533   9.832  20.667  0.00  0.00    +0.000 S 
ATOM     17  O   UNL     1       1.384  10.343  21.726  0.00  0.00    +0.000 OA
ATOM     18  O   UNL     1      -0.671   9.079  20.990  0.00  0.00    +0.000 OA
BRANCH  16  19
ATOM     19  C   UNL     1       1.535   8.713  19.753  0.00  0.00    +0.000 A 
ATOM     20  C   UNL     1       1.950   9.003  18.459  0.00  0.00    +0.000 A 
ATOM     21  C   UNL     1       2.651   8.029  17.751  0.00  0.00    +0.000 A 
ATOM     22  C   UNL     1       2.943   6.781  18.327  0.00  0.00    +0.000 A 
ATOM     23  C   UNL     1       3.665   5.726  17.548  0.00  0.00    +0.000 C 
ATOM     24  C   UNL     1       2.542   6.516  19.645  0.00  0.00    +0.000 A 
ATOM     25  C   UNL     1       1.845   7.483  20.359  0.00  0.00    +0.000 A 
ENDBRANCH  16  19
ENDBRANCH  15  16
ENDBRANCH   5  15
TORSDOF 5
ENDMDL
MODEL 4
REMARK VINA RESULT:      -6.5      5.190      9.372
REMARK  Name = 
REMARK  8 active torsions:
REMARK  status: ('A' for Active; 'I' for Inactive)
REMARK    1  A    between atoms: C_1  and  O_2
REMARK    2  A    between atoms: O_2  and  C_3
REMARK    3  A    between atoms: C_5  and  O_6
REMARK    4  A    between atoms: O_6  and  C_7
REMARK    5  A    between atoms: C_9  and  O_10
REMARK    6  A    between atoms: O_10  and  S_11
REMARK    7  A    between atoms: S_11  and  C_14
REMARK    8  A    between atoms: C_17  and  C_18
REMARK                            x       y       z     vdW  Elec       q    Type
REMARK                         _______ _______ _______ _____ _____    ______ ____
ROOT
ATOM      1  C   UNL     1       1.711   8.050  19.942  0.00  0.00    +0.000 A 
ATOM      2  C   UNL     1       1.611   9.113  19.058  0.00  0.00    +0.000 A 
ATOM      3  C   UNL     1       0.941  10.302  19.419  0.00  0.00    +0.000 A 
ATOM      4  C   UNL     1       0.316  10.426  20.716  0.00  0.00    +0.000 A 
ATOM      5  C   UNL     1      -0.417  11.526  21.290  0.00  0.00    +0.000 A 
ATOM      6  C   UNL     1      -1.037  11.366  22.546  0.00  0.00    +0.000 A 
ATOM      7  C   UNL     1      -0.832  10.217  23.257  0.00  0.00    +0.000 A 
ATOM      8  N   UNL     1      -0.107   9.197  22.789  0.00  0.00    +0.000 NA
ATOM      9  C   UNL     1       0.419   9.291  21.567  0.00  0.00    +0.000 A 
ATOM     10  C   UNL     1       1.117   8.162  21.181  0.00  0.00    +0.000 A 
ENDROOT
BRANCH   1  12
ATOM     11  C   UNL     1       2.794   6.617  18.379  0.00  0.00    +0.000 C 
ATOM     12  O   UNL     1       2.352   6.861  19.706  0.00  0.00    +0.000 OA
ENDBRANCH   1  12
BRANCH   3  13
ATOM     13  O   UNL     1       0.846  11.365  18.542  0.00  0.00    +0.000 OA
ATOM     14  C   UNL     1       2.059  12.083  18.273  0.00  0.00    +0.000 C 
ENDBRANCH   3  13
BRANCH   5  15
ATOM     15  O   UNL     1      -0.485  12.771  20.659  0.00  0.00    +0.000 OA
BRANCH  15  16
ATOM     16  S   UNL     1       0.465  14.000  21.221  0.00  0.00    +0.000 S 
ATOM     17  O   UNL     1      -0.252  14.699  22.271  0.00  0.00    +0.000 OA
ATOM     18  O   UNL     1       1.793  13.457  21.472  0.00  0.00    +0.000 OA
BRANCH  16  19
ATOM     19  C   UNL     1       0.695  15.183  19.939  0.00  0.00    +0.000 A 
ATOM     20  C   UNL     1       1.958  15.656  19.609  0.00  0.00    +0.000 A 
ATOM     21  C   UNL     1       2.062  16.671  18.660  0.00  0.00    +0.000 A 
ATOM     22  C   UNL     1       0.919  17.205  18.039  0.00  0.00    +0.000 A 
ATOM     23  C   UNL     1       1.034  18.319  17.046  0.00  0.00    +0.000 C 
ATOM     24  C   UNL     1      -0.346  16.694  18.363  0.00  0.00    +0.000 A 
ATOM     25  C   UNL     1      -0.458  15.680  19.307  0.00  0.00    +0.000 A 
ENDBRANCH  16  19
ENDBRANCH  15  16
ENDBRANCH   5  15
TORSDOF 5
ENDMDL
MODEL 5
REMARK VINA RESULT:      -6.5      5.599      8.161
REMARK  Name = 
REMARK  8 active torsions:
REMARK  status: ('A' for Active; 'I' for Inactive)
REMARK    1  A    between atoms: C_1  and  O_2
REMARK    2  A    between atoms: O_2  and  C_3
REMARK    3  A    between atoms: C_5  and  O_6
REMARK    4  A    between atoms: O_6  and  C_7
REMARK    5  A    between atoms: C_9  and  O_10
REMARK    6  A    between atoms: O_10  and  S_11
REMARK    7  A    between atoms: S_11  and  C_14
REMARK    8  A    between atoms: C_17  and  C_18
REMARK                            x       y       z     vdW  Elec       q    Type
REMARK                         _______ _______ _______ _____ _____    ______ ____
ROOT
ATOM      1  C   UNL     1      -6.094  13.044  18.242  0.00  0.00    +0.000 A 
ATOM      2  C   UNL     1      -5.474  13.109  19.480  0.00  0.00    +0.000 A 
ATOM      3  C   UNL     1      -4.254  12.440  19.720  0.00  0.00    +0.000 A 
ATOM      4  C   UNL     1      -3.636  11.646  18.683  0.00  0.00    +0.000 A 
ATOM      5  C   UNL     1      -2.415  10.883  18.704  0.00  0.00    +0.000 A 
ATOM      6  C   UNL     1      -2.074  10.089  17.590  0.00  0.00    +0.000 A 
ATOM      7  C   UNL     1      -2.840  10.149  16.460  0.00  0.00    +0.000 A 
ATOM      8  N   UNL     1      -3.947  10.893  16.376  0.00  0.00    +0.000 NA
ATOM      9  C   UNL     1      -4.336  11.586  17.445  0.00  0.00    +0.000 A 
ATOM     10  C   UNL     1      -5.511  12.289  17.248  0.00  0.00    +0.000 A 
ENDROOT
BRANCH   1  12
ATOM     11  C   UNL     1      -7.366  14.157  16.565  0.00  0.00    +0.000 C 
ATOM     12  O   UNL     1      -7.265  13.666  17.893  0.00  0.00    +0.000 OA
ENDBRANCH   1  12
BRANCH   3  13
ATOM     13  O   UNL     1      -3.630  12.509  20.951  0.00  0.00    +0.000 OA
ATOM     14  C   UNL     1      -2.995  13.754  21.278  0.00  0.00    +0.000 C 
ENDBRANCH   3  13
BRANCH   5  15
ATOM     15  O   UNL     1      -1.526  10.951  19.780  0.00  0.00    +0.000 OA
BRANCH  15  16
ATOM     16  S   UNL     1       0.026  11.445  19.500  0.00  0.00    +0.000 S 
ATOM     17  O   UNL     1       0.052  12.229  18.279  0.00  0.00    +0.000 OA
ATOM     18  O   UNL     1       0.547  12.000  20.741  0.00  0.00    +0.000 OA
BRANCH  16  19
ATOM     19  C   UNL     1       1.030  10.037  19.177  0.00  0.00    +0.000 A 
ATOM     20  C   UNL     1       1.602   9.827  17.929  0.00  0.00    +0.000 A 
ATOM     21  C   UNL     1       2.296   8.639  17.706  0.00  0.00    +0.000 A 
ATOM     22  C   UNL     1       2.425   7.673  18.718  0.00  0.00    +0.000 A 
ATOM     23  C   UNL     1       3.142   6.383  18.462  0.00  0.00    +0.000 C 
ATOM     24  C   UNL     1       1.867   7.915  19.982  0.00  0.00    +0.000 A 
ATOM     25  C   UNL     1       1.175   9.098  20.212  0.00  0.00    +0.000 A 
ENDBRANCH  16  19
ENDBRANCH  15  16
ENDBRANCH   5  15
TORSDOF 5
ENDMDL
MODEL 6
REMARK VINA RESULT:      -6.4      4.620      7.225
REMARK  Name = 
REMARK  8 active torsions:
REMARK  status: ('A' for Active; 'I' for Inactive)
REMARK    1  A    between atoms: C_1  and  O_2
REMARK    2  A    between atoms: O_2  and  C_3
REMARK    3  A    between atoms: C_5  and  O_6
REMARK    4  A    between atoms: O_6  and  C_7
REMARK    5  A    between atoms: C_9  and  O_10
REMARK    6  A    between atoms: O_10  and  S_11
REMARK    7  A    between atoms: S_11  and  C_14
REMARK    8  A    between atoms: C_17  and  C_18
REMARK                            x       y       z     vdW  Elec       q    Type
REMARK                         _______ _______ _______ _____ _____    ______ ____
ROOT
ATOM      1  C   UNL     1      -4.845  12.323  19.109  0.00  0.00    +0.000 A 
ATOM      2  C   UNL     1      -3.974  11.542  18.366  0.00  0.00    +0.000 A 
ATOM      3  C   UNL     1      -2.624  11.387  18.750  0.00  0.00    +0.000 A 
ATOM      4  C   UNL     1      -2.112  12.067  19.918  0.00  0.00    +0.000 A 
ATOM      5  C   UNL     1      -0.789  12.061  20.487  0.00  0.00    +0.000 A 
ATOM      6  C   UNL     1      -0.500  12.905  21.579  0.00  0.00    +0.000 A 
ATOM      7  C   UNL     1      -1.507  13.622  22.162  0.00  0.00    +0.000 A 
ATOM      8  N   UNL     1      -2.762  13.607  21.704  0.00  0.00    +0.000 NA
ATOM      9  C   UNL     1      -3.042  12.883  20.620  0.00  0.00    +0.000 A 
ATOM     10  C   UNL     1      -4.363  12.974  20.224  0.00  0.00    +0.000 A 
ENDROOT
BRANCH   1  12
ATOM     11  C   UNL     1      -6.963  11.379  18.564  0.00  0.00    +0.000 C 
ATOM     12  O   UNL     1      -6.175  12.527  18.841  0.00  0.00    +0.000 OA
ENDBRANCH   1  12
BRANCH   3  13
ATOM     13  O   UNL     1      -1.755  10.603  18.015  0.00  0.00    +0.000 OA
ATOM     14  C   UNL     1      -2.168  10.269  16.682  0.00  0.00    +0.000 C 
ENDBRANCH   3  13
BRANCH   5  15
ATOM     15  O   UNL     1       0.207  11.200  20.020  0.00  0.00    +0.000 OA
BRANCH  15  16
ATOM     16  S   UNL     1       0.538   9.827  20.878  0.00  0.00    +0.000 S 
ATOM     17  O   UNL     1       1.394  10.173  21.998  0.00  0.00    +0.000 OA
ATOM     18  O   UNL     1      -0.721   9.129  21.103  0.00  0.00    +0.000 OA
BRANCH  16  19
ATOM     19  C   UNL     1       1.487   8.736  19.877  0.00  0.00    +0.000 A 
ATOM     20  C   UNL     1       1.827   9.063  18.570  0.00  0.00    +0.000 A 
ATOM     21  C   UNL     1       2.486   8.111  17.796  0.00  0.00    +0.000 A 
ATOM     22  C   UNL     1       2.811   6.847  18.319  0.00  0.00    +0.000 A 
ATOM     23  C   UNL     1       3.488   5.816  17.470  0.00  0.00    +0.000 C 
ATOM     24  C   UNL     1       2.487   6.545  19.649  0.00  0.00    +0.000 A 
ATOM     25  C   UNL     1       1.832   7.490  20.429  0.00  0.00    +0.000 A 
ENDBRANCH  16  19
ENDBRANCH  15  16
ENDBRANCH   5  15
TORSDOF 5
ENDMDL
MODEL 7
REMARK VINA RESULT:      -6.4      9.086     10.466
REMARK  Name = 
REMARK  8 active torsions:
REMARK  status: ('A' for Active; 'I' for Inactive)
REMARK    1  A    between atoms: C_1  and  O_2
REMARK    2  A    between atoms: O_2  and  C_3
REMARK    3  A    between atoms: C_5  and  O_6
REMARK    4  A    between atoms: O_6  and  C_7
REMARK    5  A    between atoms: C_9  and  O_10
REMARK    6  A    between atoms: O_10  and  S_11
REMARK    7  A    between atoms: S_11  and  C_14
REMARK    8  A    between atoms: C_17  and  C_18
REMARK                            x       y       z     vdW  Elec       q    Type
REMARK                         _______ _______ _______ _____ _____    ______ ____
ROOT
ATOM      1  C   UNL     1       8.306  12.073  23.001  0.00  0.00    +0.000 A 
ATOM      2  C   UNL     1       8.792  11.392  21.895  0.00  0.00    +0.000 A 
ATOM      3  C   UNL     1       9.690  12.007  20.997  0.00  0.00    +0.000 A 
ATOM      4  C   UNL     1      10.103  13.377  21.195  0.00  0.00    +0.000 A 
ATOM      5  C   UNL     1      10.992  14.199  20.415  0.00  0.00    +0.000 A 
ATOM      6  C   UNL     1      11.152  15.559  20.750  0.00  0.00    +0.000 A 
ATOM      7  C   UNL     1      10.562  16.050  21.880  0.00  0.00    +0.000 A 
ATOM      8  N   UNL     1       9.779  15.304  22.667  0.00  0.00    +0.000 NA
ATOM      9  C   UNL     1       9.544  14.038  22.324  0.00  0.00    +0.000 A 
ATOM     10  C   UNL     1       8.696  13.381  23.196  0.00  0.00    +0.000 A 
ENDROOT
BRANCH   1  12
ATOM     11  C   UNL     1       6.062  11.812  23.755  0.00  0.00    +0.000 C 
ATOM     12  O   UNL     1       7.448  11.571  23.946  0.00  0.00    +0.000 OA
ENDBRANCH   1  12
BRANCH   3  13
ATOM     13  O   UNL     1      10.182  11.328  19.898  0.00  0.00    +0.000 OA
ATOM     14  C   UNL     1       9.367  10.262  19.388  0.00  0.00    +0.000 C 
ENDBRANCH   3  13
BRANCH   5  15
ATOM     15  O   UNL     1      11.746  13.671  19.364  0.00  0.00    +0.000 OA
BRANCH  15  16
ATOM     16  S   UNL     1      11.337  14.069  17.813  0.00  0.00    +0.000 S 
ATOM     17  O   UNL     1      11.952  15.341  17.481  0.00  0.00    +0.000 OA
ATOM     18  O   UNL     1      11.570  12.899  16.977  0.00  0.00    +0.000 OA
BRANCH  16  19
ATOM     19  C   UNL     1       9.602  14.348  17.728  0.00  0.00    +0.000 A 
ATOM     20  C   UNL     1       9.060  15.608  17.942  0.00  0.00    +0.000 A 
ATOM     21  C   UNL     1       7.673  15.741  17.968  0.00  0.00    +0.000 A 
ATOM     22  C   UNL     1       6.833  14.630  17.776  0.00  0.00    +0.000 A 
ATOM     23  C   UNL     1       5.344  14.773  17.841  0.00  0.00    +0.000 C 
ATOM     24  C   UNL     1       7.398  13.370  17.532  0.00  0.00    +0.000 A 
ATOM     25  C   UNL     1       8.780  13.230  17.502  0.00  0.00    +0.000 A 
ENDBRANCH  16  19
ENDBRANCH  15  16
ENDBRANCH   5  15
TORSDOF 5
ENDMDL
MODEL 8
REMARK VINA RESULT:      -6.4      9.219     11.576
REMARK  Name = 
REMARK  8 active torsions:
REMARK  status: ('A' for Active; 'I' for Inactive)
REMARK    1  A    between atoms: C_1  and  O_2
REMARK    2  A    between atoms: O_2  and  C_3
REMARK    3  A    between atoms: C_5  and  O_6
REMARK    4  A    between atoms: O_6  and  C_7
REMARK    5  A    between atoms: C_9  and  O_10
REMARK    6  A    between atoms: O_10  and  S_11
REMARK    7  A    between atoms: S_11  and  C_14
REMARK    8  A    between atoms: C_17  and  C_18
REMARK                            x       y       z     vdW  Elec       q    Type
REMARK                         _______ _______ _______ _____ _____    ______ ____
ROOT
ATOM      1  C   UNL     1       9.427  10.594  19.078  0.00  0.00    +0.000 A 
ATOM      2  C   UNL     1       9.851  11.374  18.013  0.00  0.00    +0.000 A 
ATOM      3  C   UNL     1      10.183  12.734  18.192  0.00  0.00    +0.000 A 
ATOM      4  C   UNL     1      10.060  13.354  19.491  0.00  0.00    +0.000 A 
ATOM      5  C   UNL     1      10.333  14.708  19.902  0.00  0.00    +0.000 A 
ATOM      6  C   UNL     1      10.023  15.109  21.217  0.00  0.00    +0.000 A 
ATOM      7  C   UNL     1       9.587  14.181  22.121  0.00  0.00    +0.000 A 
ATOM      8  N   UNL     1       9.382  12.900  21.798  0.00  0.00    +0.000 NA
ATOM      9  C   UNL     1       9.585  12.515  20.538  0.00  0.00    +0.000 A 
ATOM     10  C   UNL     1       9.307  11.179  20.320  0.00  0.00    +0.000 A 
ENDROOT
BRANCH   1  12
ATOM     11  C   UNL     1       8.192   8.862  18.006  0.00  0.00    +0.000 C 
ATOM     12  O   UNL     1       9.098   9.264  19.023  0.00  0.00    +0.000 OA
ENDBRANCH   1  12
BRANCH   3  13
ATOM     13  O   UNL     1      10.614  13.512  17.134  0.00  0.00    +0.000 OA
ATOM     14  C   UNL     1      11.958  13.290  16.683  0.00  0.00    +0.000 C 
ENDBRANCH   3  13
BRANCH   5  15
ATOM     15  O   UNL     1      10.948  15.624  19.045  0.00  0.00    +0.000 OA
BRANCH  15  16
ATOM     16  S   UNL     1      10.025  16.807  18.351  0.00  0.00    +0.000 S 
ATOM     17  O   UNL     1      10.181  18.029  19.118  0.00  0.00    +0.000 OA
ATOM     18  O   UNL     1      10.294  16.798  16.920  0.00  0.00    +0.000 OA
BRANCH  16  19
ATOM     19  C   UNL     1       8.327  16.373  18.496  0.00  0.00    +0.000 A 
ATOM     20  C   UNL     1       7.774  15.348  17.738  0.00  0.00    +0.000 A 
ATOM     21  C   UNL     1       6.402  15.126  17.820  0.00  0.00    +0.000 A 
ATOM     22  C   UNL     1       5.586  15.912  18.653  0.00  0.00    +0.000 A 
ATOM     23  C   UNL     1       4.107  15.691  18.710  0.00  0.00    +0.000 C 
ATOM     24  C   UNL     1       6.166  16.922  19.433  0.00  0.00    +0.000 A 
ATOM     25  C   UNL     1       7.535  17.149  19.359  0.00  0.00    +0.000 A 
ENDBRANCH  16  19
ENDBRANCH  15  16
ENDBRANCH   5  15
TORSDOF 5
ENDMDL
MODEL 9
REMARK VINA RESULT:      -6.4      9.098     11.176
REMARK  Name = 
REMARK  8 active torsions:
REMARK  status: ('A' for Active; 'I' for Inactive)
REMARK    1  A    between atoms: C_1  and  O_2
REMARK    2  A    between atoms: O_2  and  C_3
REMARK    3  A    between atoms: C_5  and  O_6
REMARK    4  A    between atoms: O_6  and  C_7
REMARK    5  A    between atoms: C_9  and  O_10
REMARK    6  A    between atoms: O_10  and  S_11
REMARK    7  A    between atoms: S_11  and  C_14
REMARK    8  A    between atoms: C_17  and  C_18
REMARK                            x       y       z     vdW  Elec       q    Type
REMARK                         _______ _______ _______ _____ _____    ______ ____
ROOT
ATOM      1  C   UNL     1       9.430  10.416  19.313  0.00  0.00    +0.000 A 
ATOM      2  C   UNL     1       9.331  11.071  20.531  0.00  0.00    +0.000 A 
ATOM      3  C   UNL     1       9.931  12.333  20.733  0.00  0.00    +0.000 A 
ATOM      4  C   UNL     1      10.690  12.960  19.676  0.00  0.00    +0.000 A 
ATOM      5  C   UNL     1      11.384  14.223  19.658  0.00  0.00    +0.000 A 
ATOM      6  C   UNL     1      12.159  14.571  18.532  0.00  0.00    +0.000 A 
ATOM      7  C   UNL     1      12.142  13.769  17.426  0.00  0.00    +0.000 A 
ATOM      8  N   UNL     1      11.460  12.621  17.378  0.00  0.00    +0.000 NA
ATOM      9  C   UNL     1      10.789  12.227  18.460  0.00  0.00    +0.000 A 
ATOM     10  C   UNL     1      10.152  11.010  18.300  0.00  0.00    +0.000 A 
ENDROOT
BRANCH   1  12
ATOM     11  C   UNL     1       8.038   9.149  17.855  0.00  0.00    +0.000 C 
ATOM     12  O   UNL     1       8.874   9.202  19.001  0.00  0.00    +0.000 OA
ENDBRANCH   1  12
BRANCH   3  13
ATOM     13  O   UNL     1       9.827  12.990  21.943  0.00  0.00    +0.000 OA
ATOM     14  C   UNL     1       8.684  12.670  22.750  0.00  0.00    +0.000 C 
ENDBRANCH   3  13
BRANCH   5  15
ATOM     15  O   UNL     1      11.267  15.139  20.705  0.00  0.00    +0.000 OA
BRANCH  15  16
ATOM     16  S   UNL     1      10.187  16.382  20.559  0.00  0.00    +0.000 S 
ATOM     17  O   UNL     1       9.742  16.770  21.884  0.00  0.00    +0.000 OA
ATOM     18  O   UNL     1      10.765  17.369  19.658  0.00  0.00    +0.000 OA
BRANCH  16  19
ATOM     19  C   UNL     1       8.749  15.800  19.730  0.00  0.00    +0.000 A 
ATOM     20  C   UNL     1       8.665  15.794  18.343  0.00  0.00    +0.000 A 
ATOM     21  C   UNL     1       7.460  15.424  17.751  0.00  0.00    +0.000 A 
ATOM     22  C   UNL     1       6.350  15.055  18.531  0.00  0.00    +0.000 A 
ATOM     23  C   UNL     1       5.046  14.692  17.890  0.00  0.00    +0.000 C 
ATOM     24  C   UNL     1       6.462  15.038  19.929  0.00  0.00    +0.000 A 
ATOM     25  C   UNL     1       7.661  15.404  20.527  0.00  0.00    +0.000 A 
ENDBRANCH  16  19
ENDBRANCH  15  16
ENDBRANCH   5  15
TORSDOF 5
ENDMDL
