MODEL 1
REMARK VINA RESULT:      -7.8      0.000      0.000
REMARK  Name = 
REMARK  7 active torsions:
REMARK  status: ('A' for Active; 'I' for Inactive)
REMARK    1  A    between atoms: C_1  and  O_2
REMARK    2  A    between atoms: O_2  and  C_3
REMARK    3  A    between atoms: C_6  and  N_7
REMARK    4  A    between atoms: N_7  and  C_8
REMARK    5  A    between atoms: C_13  and  C_15
REMARK    6  A    between atoms: C_18  and  C_19
REMARK    7  A    between atoms: C_19  and  C_20
REMARK                            x       y       z     vdW  Elec       q    Type
REMARK                         _______ _______ _______ _____ _____    ______ ____
ROOT
ATOM      1  C   UNL     1       3.862   2.534  18.731  0.00  0.00    +0.000 C 
ATOM      2  C   UNL     1       2.500   1.849  18.609  0.00  0.00    +0.000 C 
ATOM      3  C   UNL     1       1.330   2.831  18.391  0.00  0.00    +0.000 C 
ATOM      4  C   UNL     1       1.333   4.106  19.269  0.00  0.00    +0.000 C 
ATOM      5  N   UNL     1       2.664   4.692  19.397  0.00  0.00    +0.000 N 
ATOM      6  C   UNL     1       3.040   6.051  19.505  0.00  0.00    +0.000 C 
ATOM      7  O   UNL     1       4.255   6.278  19.557  0.00  0.00    +0.000 OA
ATOM      8  C   UNL     1       3.724   3.712  19.724  0.00  0.00    +0.000 C 
ENDROOT
BRANCH   6   9
ATOM      9  C   UNL     1       2.175   7.258  19.552  0.00  0.00    +0.000 A 
ATOM     10  C   UNL     1       2.085   8.069  18.420  0.00  0.00    +0.000 A 
ATOM     11  C   UNL     1       1.459   9.314  18.644  0.00  0.00    +0.000 A 
ATOM     12  C   UNL     1       1.026   9.461  19.944  0.00  0.00    +0.000 A 
ATOM     13  S   UNL     1       1.394   8.038  20.862  0.00  0.00    +0.000 S 
BRANCH  12  14
ATOM     14  C   UNL     1       0.376  10.702  20.410  0.00  0.00    +0.000 C 
ATOM     15  C   UNL     1      -0.656  11.431  19.606  0.00  0.00    +0.000 C 
ATOM     16  O   UNL     1       0.657  11.186  21.518  0.00  0.00    +0.000 OA
ENDBRANCH  12  14
ENDBRANCH   6   9
BRANCH   1  17
ATOM     17  N   UNL     1       4.339   2.948  17.392  0.00  0.00    +0.000 N 
ATOM     18  H   UNL     1       3.568   3.001  16.728  0.00  0.00    +0.000 HD
BRANCH  17  22
ATOM     19  C   UNL     1       6.929   6.273  16.867  0.00  0.00    +0.000 A 
ATOM     20  C   UNL     1       7.341   5.208  17.656  0.00  0.00    +0.000 A 
ATOM     21  C   UNL     1       6.497   4.092  17.831  0.00  0.00    +0.000 A 
ATOM     22  C   UNL     1       5.225   4.031  17.244  0.00  0.00    +0.000 A 
ATOM     23  C   UNL     1       4.897   5.069  16.354  0.00  0.00    +0.000 A 
ATOM     24  C   UNL     1       5.730   6.186  16.173  0.00  0.00    +0.000 A 
BRANCH  19  26
ATOM     25  C   UNL     1       7.894   8.152  17.818  0.00  0.00    +0.000 C 
ATOM     26  O   UNL     1       7.764   7.339  16.649  0.00  0.00    +0.000 OA
ENDBRANCH  19  26
ENDBRANCH  17  22
ENDBRANCH   1  17
TORSDOF 5
ENDMDL
MODEL 2
REMARK VINA RESULT:      -7.3      1.034      1.513
REMARK  Name = 
REMARK  7 active torsions:
REMARK  status: ('A' for Active; 'I' for Inactive)
REMARK    1  A    between atoms: C_1  and  O_2
REMARK    2  A    between atoms: O_2  and  C_3
REMARK    3  A    between atoms: C_6  and  N_7
REMARK    4  A    between atoms: N_7  and  C_8
REMARK    5  A    between atoms: C_13  and  C_15
REMARK    6  A    between atoms: C_18  and  C_19
REMARK    7  A    between atoms: C_19  and  C_20
REMARK                            x       y       z     vdW  Elec       q    Type
REMARK                         _______ _______ _______ _____ _____    ______ ____
ROOT
ATOM      1  C   UNL     1       3.681   2.577  18.884  0.00  0.00    +0.000 C 
ATOM      2  C   UNL     1       2.267   1.994  18.886  0.00  0.00    +0.000 C 
ATOM      3  C   UNL     1       1.163   3.044  18.648  0.00  0.00    +0.000 C 
ATOM      4  C   UNL     1       1.308   4.377  19.420  0.00  0.00    +0.000 C 
ATOM      5  N   UNL     1       2.684   4.866  19.434  0.00  0.00    +0.000 N 
ATOM      6  C   UNL     1       3.164   6.197  19.415  0.00  0.00    +0.000 C 
ATOM      7  O   UNL     1       4.393   6.332  19.388  0.00  0.00    +0.000 OA
ATOM      8  C   UNL     1       3.685   3.835  19.786  0.00  0.00    +0.000 C 
ENDROOT
BRANCH   6   9
ATOM      9  C   UNL     1       2.395   7.467  19.407  0.00  0.00    +0.000 A 
ATOM     10  C   UNL     1       1.679   7.831  20.548  0.00  0.00    +0.000 A 
ATOM     11  C   UNL     1       0.781   8.902  20.355  0.00  0.00    +0.000 A 
ATOM     12  C   UNL     1       0.823   9.403  19.072  0.00  0.00    +0.000 A 
ATOM     13  S   UNL     1       1.993   8.536  18.130  0.00  0.00    +0.000 S 
BRANCH  12  14
ATOM     14  C   UNL     1      -0.060  10.503  18.639  0.00  0.00    +0.000 C 
ATOM     15  C   UNL     1      -1.424  10.273  18.067  0.00  0.00    +0.000 C 
ATOM     16  O   UNL     1       0.299  11.686  18.753  0.00  0.00    +0.000 OA
ENDBRANCH  12  14
ENDBRANCH   6   9
BRANCH   1  17
ATOM     17  N   UNL     1       4.112   2.851  17.494  0.00  0.00    +0.000 N 
ATOM     18  H   UNL     1       3.319   2.843  16.856  0.00  0.00    +0.000 HD
BRANCH  17  22
ATOM     19  C   UNL     1       6.872   5.982  16.713  0.00  0.00    +0.000 A 
ATOM     20  C   UNL     1       5.628   6.004  16.098  0.00  0.00    +0.000 A 
ATOM     21  C   UNL     1       4.696   4.977  16.356  0.00  0.00    +0.000 A 
ATOM     22  C   UNL     1       4.998   3.905  17.208  0.00  0.00    +0.000 A 
ATOM     23  C   UNL     1       6.216   3.986  17.906  0.00  0.00    +0.000 A 
ATOM     24  C   UNL     1       7.152   5.004  17.657  0.00  0.00    +0.000 A 
BRANCH  19  26
ATOM     25  C   UNL     1       7.757   7.932  17.597  0.00  0.00    +0.000 C 
ATOM     26  O   UNL     1       7.765   7.004  16.509  0.00  0.00    +0.000 OA
ENDBRANCH  19  26
ENDBRANCH  17  22
ENDBRANCH   1  17
TORSDOF 5
ENDMDL
MODEL 3
REMARK VINA RESULT:      -7.3      1.087      1.212
REMARK  Name = 
REMARK  7 active torsions:
REMARK  status: ('A' for Active; 'I' for Inactive)
REMARK    1  A    between atoms: C_1  and  O_2
REMARK    2  A    between atoms: O_2  and  C_3
REMARK    3  A    between atoms: C_6  and  N_7
REMARK    4  A    between atoms: N_7  and  C_8
REMARK    5  A    between atoms: C_13  and  C_15
REMARK    6  A    between atoms: C_18  and  C_19
REMARK    7  A    between atoms: C_19  and  C_20
REMARK                            x       y       z     vdW  Elec       q    Type
REMARK                         _______ _______ _______ _____ _____    ______ ____
ROOT
ATOM      1  C   UNL     1       3.621   2.606  18.753  0.00  0.00    +0.000 C 
ATOM      2  C   UNL     1       2.204   2.040  18.644  0.00  0.00    +0.000 C 
ATOM      3  C   UNL     1       1.122   3.116  18.415  0.00  0.00    +0.000 C 
ATOM      4  C   UNL     1       1.237   4.397  19.275  0.00  0.00    +0.000 C 
ATOM      5  N   UNL     1       2.614   4.869  19.392  0.00  0.00    +0.000 N 
ATOM      6  C   UNL     1       3.106   6.192  19.481  0.00  0.00    +0.000 C 
ATOM      7  O   UNL     1       4.336   6.314  19.527  0.00  0.00    +0.000 OA
ATOM      8  C   UNL     1       3.587   3.806  19.730  0.00  0.00    +0.000 C 
ENDROOT
BRANCH   6   9
ATOM      9  C   UNL     1       2.348   7.469  19.513  0.00  0.00    +0.000 A 
ATOM     10  C   UNL     1       1.613   7.791  20.654  0.00  0.00    +0.000 A 
ATOM     11  C   UNL     1       0.729   8.879  20.489  0.00  0.00    +0.000 A 
ATOM     12  C   UNL     1       0.801   9.433  19.230  0.00  0.00    +0.000 A 
ATOM     13  S   UNL     1       1.982   8.596  18.275  0.00  0.00    +0.000 S 
BRANCH  12  14
ATOM     14  C   UNL     1      -0.063  10.560  18.827  0.00  0.00    +0.000 C 
ATOM     15  C   UNL     1       0.386  11.987  18.877  0.00  0.00    +0.000 C 
ATOM     16  O   UNL     1      -1.212  10.356  18.405  0.00  0.00    +0.000 OA
ENDBRANCH  12  14
ENDBRANCH   6   9
BRANCH   1  17
ATOM     17  N   UNL     1       4.126   2.961  17.407  0.00  0.00    +0.000 N 
ATOM     18  H   UNL     1       3.364   3.035  16.736  0.00  0.00    +0.000 HD
BRANCH  17  22
ATOM     19  C   UNL     1       6.885   6.136  16.818  0.00  0.00    +0.000 A 
ATOM     20  C   UNL     1       7.244   5.064  17.623  0.00  0.00    +0.000 A 
ATOM     21  C   UNL     1       6.344   3.997  17.820  0.00  0.00    +0.000 A 
ATOM     22  C   UNL     1       5.067   3.993  17.239  0.00  0.00    +0.000 A 
ATOM     23  C   UNL     1       4.790   5.032  16.332  0.00  0.00    +0.000 A 
ATOM     24  C   UNL     1       5.680   6.100  16.129  0.00  0.00    +0.000 A 
BRANCH  19  26
ATOM     25  C   UNL     1       7.713   8.154  17.598  0.00  0.00    +0.000 C 
ATOM     26  O   UNL     1       7.774   7.153  16.579  0.00  0.00    +0.000 OA
ENDBRANCH  19  26
ENDBRANCH  17  22
ENDBRANCH   1  17
TORSDOF 5
ENDMDL
MODEL 4
REMARK VINA RESULT:      -7.0      1.079      1.488
REMARK  Name = 
REMARK  7 active torsions:
REMARK  status: ('A' for Active; 'I' for Inactive)
REMARK    1  A    between atoms: C_1  and  O_2
REMARK    2  A    between atoms: O_2  and  C_3
REMARK    3  A    between atoms: C_6  and  N_7
REMARK    4  A    between atoms: N_7  and  C_8
REMARK    5  A    between atoms: C_13  and  C_15
REMARK    6  A    between atoms: C_18  and  C_19
REMARK    7  A    between atoms: C_19  and  C_20
REMARK                            x       y       z     vdW  Elec       q    Type
REMARK                         _______ _______ _______ _____ _____    ______ ____
ROOT
ATOM      1  C   UNL     1       4.219   2.876  18.441  0.00  0.00    +0.000 C 
ATOM      2  C   UNL     1       2.980   2.196  17.857  0.00  0.00    +0.000 C 
ATOM      3  C   UNL     1       1.895   3.186  17.387  0.00  0.00    +0.000 C 
ATOM      4  C   UNL     1       1.590   4.371  18.333  0.00  0.00    +0.000 C 
ATOM      5  N   UNL     1       2.802   4.952  18.906  0.00  0.00    +0.000 N 
ATOM      6  C   UNL     1       3.080   6.298  19.242  0.00  0.00    +0.000 C 
ATOM      7  O   UNL     1       4.215   6.528  19.675  0.00  0.00    +0.000 OA
ATOM      8  C   UNL     1       3.750   3.954  19.447  0.00  0.00    +0.000 C 
ENDROOT
BRANCH   6   9
ATOM      9  C   UNL     1       2.198   7.489  19.133  0.00  0.00    +0.000 A 
ATOM     10  C   UNL     1       2.123   8.166  17.916  0.00  0.00    +0.000 A 
ATOM     11  C   UNL     1       1.476   9.418  17.985  0.00  0.00    +0.000 A 
ATOM     12  C   UNL     1       1.011   9.704  19.250  0.00  0.00    +0.000 A 
ATOM     13  S   UNL     1       1.377   8.398  20.330  0.00  0.00    +0.000 S 
BRANCH  12  14
ATOM     14  C   UNL     1       0.334  10.979  19.559  0.00  0.00    +0.000 C 
ATOM     15  C   UNL     1       0.790  11.897  20.650  0.00  0.00    +0.000 C 
ATOM     16  O   UNL     1      -0.648  11.351  18.897  0.00  0.00    +0.000 OA
ENDBRANCH  12  14
ENDBRANCH   6   9
BRANCH   1  17
ATOM     17  N   UNL     1       5.058   3.419  17.349  0.00  0.00    +0.000 N 
ATOM     18  H   UNL     1       4.524   3.509  16.486  0.00  0.00    +0.000 HD
BRANCH  17  22
ATOM     19  C   UNL     1       7.620   6.723  18.094  0.00  0.00    +0.000 A 
ATOM     20  C   UNL     1       6.670   6.814  17.087  0.00  0.00    +0.000 A 
ATOM     21  C   UNL     1       5.804   5.730  16.834  0.00  0.00    +0.000 A 
ATOM     22  C   UNL     1       5.888   4.534  17.563  0.00  0.00    +0.000 A 
ATOM     23  C   UNL     1       6.776   4.529  18.654  0.00  0.00    +0.000 A 
ATOM     24  C   UNL     1       7.644   5.603  18.914  0.00  0.00    +0.000 A 
BRANCH  19  26
ATOM     25  C   UNL     1       7.918   9.005  17.825  0.00  0.00    +0.000 C 
ATOM     26  O   UNL     1       8.431   7.792  18.382  0.00  0.00    +0.000 OA
ENDBRANCH  19  26
ENDBRANCH  17  22
ENDBRANCH   1  17
TORSDOF 5
ENDMDL
MODEL 5
REMARK VINA RESULT:      -7.0      1.450      1.682
REMARK  Name = 
REMARK  7 active torsions:
REMARK  status: ('A' for Active; 'I' for Inactive)
REMARK    1  A    between atoms: C_1  and  O_2
REMARK    2  A    between atoms: O_2  and  C_3
REMARK    3  A    between atoms: C_6  and  N_7
REMARK    4  A    between atoms: N_7  and  C_8
REMARK    5  A    between atoms: C_13  and  C_15
REMARK    6  A    between atoms: C_18  and  C_19
REMARK    7  A    between atoms: C_19  and  C_20
REMARK                            x       y       z     vdW  Elec       q    Type
REMARK                         _______ _______ _______ _____ _____    ______ ____
ROOT
ATOM      1  C   UNL     1       4.071   3.059  18.746  0.00  0.00    +0.000 C 
ATOM      2  C   UNL     1       2.849   2.302  19.268  0.00  0.00    +0.000 C 
ATOM      3  C   UNL     1       1.551   3.135  19.256  0.00  0.00    +0.000 C 
ATOM      4  C   UNL     1       1.667   4.592  19.763  0.00  0.00    +0.000 C 
ATOM      5  N   UNL     1       2.875   5.256  19.280  0.00  0.00    +0.000 N 
ATOM      6  C   UNL     1       3.079   6.613  18.938  0.00  0.00    +0.000 C 
ATOM      7  O   UNL     1       4.201   6.904  18.509  0.00  0.00    +0.000 OA
ATOM      8  C   UNL     1       4.106   4.447  19.430  0.00  0.00    +0.000 C 
ENDROOT
BRANCH   6   9
ATOM      9  C   UNL     1       2.122   7.747  19.009  0.00  0.00    +0.000 A 
ATOM     10  C   UNL     1       1.903   8.519  17.867  0.00  0.00    +0.000 A 
ATOM     11  C   UNL     1       1.191   9.715  18.101  0.00  0.00    +0.000 A 
ATOM     12  C   UNL     1       0.818   9.859  19.419  0.00  0.00    +0.000 A 
ATOM     13  S   UNL     1       1.352   8.494  20.345  0.00  0.00    +0.000 S 
BRANCH  12  14
ATOM     14  C   UNL     1       0.095  11.055  19.896  0.00  0.00    +0.000 C 
ATOM     15  C   UNL     1      -1.327  11.344  19.530  0.00  0.00    +0.000 C 
ATOM     16  O   UNL     1       0.650  11.872  20.648  0.00  0.00    +0.000 OA
ENDBRANCH  12  14
ENDBRANCH   6   9
BRANCH   1  17
ATOM     17  N   UNL     1       4.023   3.134  17.268  0.00  0.00    +0.000 N 
ATOM     18  H   UNL     1       3.103   3.426  16.945  0.00  0.00    +0.000 HD
BRANCH  17  22
ATOM     19  C   UNL     1       7.059   5.021  14.975  0.00  0.00    +0.000 A 
ATOM     20  C   UNL     1       7.229   4.883  16.345  0.00  0.00    +0.000 A 
ATOM     21  C   UNL     1       6.236   4.249  17.119  0.00  0.00    +0.000 A 
ATOM     22  C   UNL     1       5.051   3.766  16.545  0.00  0.00    +0.000 A 
ATOM     23  C   UNL     1       4.973   3.812  15.142  0.00  0.00    +0.000 A 
ATOM     24  C   UNL     1       5.956   4.442  14.361  0.00  0.00    +0.000 A 
BRANCH  19  26
ATOM     25  C   UNL     1       7.883   5.265  12.823  0.00  0.00    +0.000 C 
ATOM     26  O   UNL     1       8.044   5.589  14.207  0.00  0.00    +0.000 OA
ENDBRANCH  19  26
ENDBRANCH  17  22
ENDBRANCH   1  17
TORSDOF 5
ENDMDL
MODEL 6
REMARK VINA RESULT:      -6.9      1.881      4.464
REMARK  Name = 
REMARK  7 active torsions:
REMARK  status: ('A' for Active; 'I' for Inactive)
REMARK    1  A    between atoms: C_1  and  O_2
REMARK    2  A    between atoms: O_2  and  C_3
REMARK    3  A    between atoms: C_6  and  N_7
REMARK    4  A    between atoms: N_7  and  C_8
REMARK    5  A    between atoms: C_13  and  C_15
REMARK    6  A    between atoms: C_18  and  C_19
REMARK    7  A    between atoms: C_19  and  C_20
REMARK                            x       y       z     vdW  Elec       q    Type
REMARK                         _______ _______ _______ _____ _____    ______ ____
ROOT
ATOM      1  C   UNL     1       5.951   4.467  16.616  0.00  0.00    +0.000 C 
ATOM      2  C   UNL     1       7.136   5.434  16.594  0.00  0.00    +0.000 C 
ATOM      3  C   UNL     1       6.920   6.698  17.451  0.00  0.00    +0.000 C 
ATOM      4  C   UNL     1       5.535   7.377  17.336  0.00  0.00    +0.000 C 
ATOM      5  N   UNL     1       4.441   6.410  17.308  0.00  0.00    +0.000 N 
ATOM      6  C   UNL     1       3.131   6.521  17.832  0.00  0.00    +0.000 C 
ATOM      7  O   UNL     1       2.410   5.524  17.710  0.00  0.00    +0.000 OA
ATOM      8  C   UNL     1       4.658   5.282  16.375  0.00  0.00    +0.000 C 
ENDROOT
BRANCH   6   9
ATOM      9  C   UNL     1       2.498   7.670  18.528  0.00  0.00    +0.000 A 
ATOM     10  C   UNL     1       2.136   7.533  19.869  0.00  0.00    +0.000 A 
ATOM     11  C   UNL     1       1.315   8.570  20.359  0.00  0.00    +0.000 A 
ATOM     12  C   UNL     1       1.066   9.540  19.413  0.00  0.00    +0.000 A 
ATOM     13  S   UNL     1       1.872   9.148  17.929  0.00  0.00    +0.000 S 
BRANCH  12  14
ATOM     14  C   UNL     1       0.199  10.700  19.699  0.00  0.00    +0.000 C 
ATOM     15  C   UNL     1      -1.082  10.957  18.967  0.00  0.00    +0.000 C 
ATOM     16  O   UNL     1       0.500  11.511  20.589  0.00  0.00    +0.000 OA
ENDBRANCH  12  14
ENDBRANCH   6   9
BRANCH   1  17
ATOM     17  N   UNL     1       5.940   3.712  17.890  0.00  0.00    +0.000 N 
ATOM     18  H   UNL     1       6.583   4.123  18.565  0.00  0.00    +0.000 HD
BRANCH  17  22
ATOM     19  C   UNL     1       2.305   2.645  19.809  0.00  0.00    +0.000 A 
ATOM     20  C   UNL     1       2.655   2.020  18.620  0.00  0.00    +0.000 A 
ATOM     21  C   UNL     1       3.864   2.355  17.977  0.00  0.00    +0.000 A 
ATOM     22  C   UNL     1       4.728   3.332  18.493  0.00  0.00    +0.000 A 
ATOM     23  C   UNL     1       4.400   3.850  19.759  0.00  0.00    +0.000 A 
ATOM     24  C   UNL     1       3.198   3.523  20.409  0.00  0.00    +0.000 A 
BRANCH  19  26
ATOM     25  C   UNL     1       1.278   2.490  21.880  0.00  0.00    +0.000 C 
ATOM     26  O   UNL     1       1.157   2.288  20.469  0.00  0.00    +0.000 OA
ENDBRANCH  19  26
ENDBRANCH  17  22
ENDBRANCH   1  17
TORSDOF 5
ENDMDL
MODEL 7
REMARK VINA RESULT:      -6.9      1.522      1.939
REMARK  Name = 
REMARK  7 active torsions:
REMARK  status: ('A' for Active; 'I' for Inactive)
REMARK    1  A    between atoms: C_1  and  O_2
REMARK    2  A    between atoms: O_2  and  C_3
REMARK    3  A    between atoms: C_6  and  N_7
REMARK    4  A    between atoms: N_7  and  C_8
REMARK    5  A    between atoms: C_13  and  C_15
REMARK    6  A    between atoms: C_18  and  C_19
REMARK    7  A    between atoms: C_19  and  C_20
REMARK                            x       y       z     vdW  Elec       q    Type
REMARK                         _______ _______ _______ _____ _____    ______ ____
ROOT
ATOM      1  C   UNL     1       3.452   3.191  18.781  0.00  0.00    +0.000 C 
ATOM      2  C   UNL     1       2.249   2.374  19.258  0.00  0.00    +0.000 C 
ATOM      3  C   UNL     1       0.986   3.222  19.511  0.00  0.00    +0.000 C 
ATOM      4  C   UNL     1       1.196   4.557  20.266  0.00  0.00    +0.000 C 
ATOM      5  N   UNL     1       2.384   5.273  19.811  0.00  0.00    +0.000 N 
ATOM      6  C   UNL     1       2.608   6.666  19.708  0.00  0.00    +0.000 C 
ATOM      7  O   UNL     1       3.702   7.009  19.245  0.00  0.00    +0.000 OA
ATOM      8  C   UNL     1       3.592   4.426  19.703  0.00  0.00    +0.000 C 
ENDROOT
BRANCH   6   9
ATOM      9  C   UNL     1       1.702   7.787  20.068  0.00  0.00    +0.000 A 
ATOM     10  C   UNL     1       1.512   8.823  19.153  0.00  0.00    +0.000 A 
ATOM     11  C   UNL     1       0.853   9.953  19.683  0.00  0.00    +0.000 A 
ATOM     12  C   UNL     1       0.494   9.786  21.002  0.00  0.00    +0.000 A 
ATOM     13  S   UNL     1       0.972   8.215  21.558  0.00  0.00    +0.000 S 
BRANCH  12  14
ATOM     14  C   UNL     1      -0.174  10.858  21.767  0.00  0.00    +0.000 C 
ATOM     15  C   UNL     1      -0.811  12.046  21.115  0.00  0.00    +0.000 C 
ATOM     16  O   UNL     1      -0.247  10.800  23.005  0.00  0.00    +0.000 OA
ENDBRANCH  12  14
ENDBRANCH   6   9
BRANCH   1  17
ATOM     17  N   UNL     1       3.288   3.541  17.352  0.00  0.00    +0.000 N 
ATOM     18  H   UNL     1       2.422   4.054  17.196  0.00  0.00    +0.000 HD
BRANCH  17  22
ATOM     19  C   UNL     1       6.552   5.079  15.111  0.00  0.00    +0.000 A 
ATOM     20  C   UNL     1       5.659   5.961  15.705  0.00  0.00    +0.000 A 
ATOM     21  C   UNL     1       4.577   5.466  16.462  0.00  0.00    +0.000 A 
ATOM     22  C   UNL     1       4.354   4.090  16.617  0.00  0.00    +0.000 A 
ATOM     23  C   UNL     1       5.348   3.235  16.108  0.00  0.00    +0.000 A 
ATOM     24  C   UNL     1       6.430   3.717  15.352  0.00  0.00    +0.000 A 
BRANCH  19  26
ATOM     25  C   UNL     1       7.627   5.106  13.060  0.00  0.00    +0.000 C 
ATOM     26  O   UNL     1       7.637   5.552  14.418  0.00  0.00    +0.000 OA
ENDBRANCH  19  26
ENDBRANCH  17  22
ENDBRANCH   1  17
TORSDOF 5
ENDMDL
MODEL 8
REMARK VINA RESULT:      -6.8      1.548      1.996
REMARK  Name = 
REMARK  7 active torsions:
REMARK  status: ('A' for Active; 'I' for Inactive)
REMARK    1  A    between atoms: C_1  and  O_2
REMARK    2  A    between atoms: O_2  and  C_3
REMARK    3  A    between atoms: C_6  and  N_7
REMARK    4  A    between atoms: N_7  and  C_8
REMARK    5  A    between atoms: C_13  and  C_15
REMARK    6  A    between atoms: C_18  and  C_19
REMARK    7  A    between atoms: C_19  and  C_20
REMARK                            x       y       z     vdW  Elec       q    Type
REMARK                         _______ _______ _______ _____ _____    ______ ____
ROOT
ATOM      1  C   UNL     1       4.079   3.219  18.928  0.00  0.00    +0.000 C 
ATOM      2  C   UNL     1       2.913   2.459  19.562  0.00  0.00    +0.000 C 
ATOM      3  C   UNL     1       1.594   3.257  19.590  0.00  0.00    +0.000 C 
ATOM      4  C   UNL     1       1.700   4.742  20.015  0.00  0.00    +0.000 C 
ATOM      5  N   UNL     1       2.857   5.409  19.426  0.00  0.00    +0.000 N 
ATOM      6  C   UNL     1       3.001   6.752  19.005  0.00  0.00    +0.000 C 
ATOM      7  O   UNL     1       4.087   7.048  18.492  0.00  0.00    +0.000 OA
ATOM      8  C   UNL     1       4.117   4.640  19.538  0.00  0.00    +0.000 C 
ENDROOT
BRANCH   6   9
ATOM      9  C   UNL     1       2.019   7.864  19.078  0.00  0.00    +0.000 A 
ATOM     10  C   UNL     1       1.766   8.620  17.933  0.00  0.00    +0.000 A 
ATOM     11  C   UNL     1       1.029   9.800  18.165  0.00  0.00    +0.000 A 
ATOM     12  C   UNL     1       0.672   9.949  19.488  0.00  0.00    +0.000 A 
ATOM     13  S   UNL     1       1.251   8.605  20.418  0.00  0.00    +0.000 S 
BRANCH  12  14
ATOM     14  C   UNL     1      -0.072  11.132  19.963  0.00  0.00    +0.000 C 
ATOM     15  C   UNL     1       0.519  12.142  20.898  0.00  0.00    +0.000 C 
ATOM     16  O   UNL     1      -1.233  11.345  19.581  0.00  0.00    +0.000 OA
ENDBRANCH  12  14
ENDBRANCH   6   9
BRANCH   1  17
ATOM     17  N   UNL     1       3.939   3.217  17.454  0.00  0.00    +0.000 N 
ATOM     18  H   UNL     1       3.009   3.522  17.173  0.00  0.00    +0.000 HD
BRANCH  17  22
ATOM     19  C   UNL     1       7.031   4.905  15.082  0.00  0.00    +0.000 A 
ATOM     20  C   UNL     1       5.808   4.609  14.495  0.00  0.00    +0.000 A 
ATOM     21  C   UNL     1       4.768   4.059  15.271  0.00  0.00    +0.000 A 
ATOM     22  C   UNL     1       4.938   3.773  16.634  0.00  0.00    +0.000 A 
ATOM     23  C   UNL     1       6.143   4.202  17.217  0.00  0.00    +0.000 A 
ATOM     24  C   UNL     1       7.187   4.750  16.453  0.00  0.00    +0.000 A 
BRANCH  19  26
ATOM     25  C   UNL     1       7.846   5.273  12.945  0.00  0.00    +0.000 C 
ATOM     26  O   UNL     1       8.031   5.489  14.346  0.00  0.00    +0.000 OA
ENDBRANCH  19  26
ENDBRANCH  17  22
ENDBRANCH   1  17
TORSDOF 5
ENDMDL
MODEL 9
REMARK VINA RESULT:      -6.7      1.517      1.715
REMARK  Name = 
REMARK  7 active torsions:
REMARK  status: ('A' for Active; 'I' for Inactive)
REMARK    1  A    between atoms: C_1  and  O_2
REMARK    2  A    between atoms: O_2  and  C_3
REMARK    3  A    between atoms: C_6  and  N_7
REMARK    4  A    between atoms: N_7  and  C_8
REMARK    5  A    between atoms: C_13  and  C_15
REMARK    6  A    between atoms: C_18  and  C_19
REMARK    7  A    between atoms: C_19  and  C_20
REMARK                            x       y       z     vdW  Elec       q    Type
REMARK                         _______ _______ _______ _____ _____    ______ ____
ROOT
ATOM      1  C   UNL     1       3.393   3.045  19.760  0.00  0.00    +0.000 C 
ATOM      2  C   UNL     1       2.060   2.479  20.251  0.00  0.00    +0.000 C 
ATOM      3  C   UNL     1       0.862   3.422  20.016  0.00  0.00    +0.000 C 
ATOM      4  C   UNL     1       1.088   4.915  20.352  0.00  0.00    +0.000 C 
ATOM      5  N   UNL     1       2.395   5.394  19.910  0.00  0.00    +0.000 N 
ATOM      6  C   UNL     1       2.767   6.671  19.428  0.00  0.00    +0.000 C 
ATOM      7  O   UNL     1       3.946   6.798  19.075  0.00  0.00    +0.000 OA
ATOM      8  C   UNL     1       3.517   4.500  20.272  0.00  0.00    +0.000 C 
ENDROOT
BRANCH   6   9
ATOM      9  C   UNL     1       1.932   7.889  19.270  0.00  0.00    +0.000 A 
ATOM     10  C   UNL     1       1.939   8.560  18.046  0.00  0.00    +0.000 A 
ATOM     11  C   UNL     1       1.331   9.833  18.076  0.00  0.00    +0.000 A 
ATOM     12  C   UNL     1       0.814  10.143  19.316  0.00  0.00    +0.000 A 
ATOM     13  S   UNL     1       1.084   8.834  20.420  0.00  0.00    +0.000 S 
BRANCH  12  14
ATOM     14  C   UNL     1       0.166  11.441  19.584  0.00  0.00    +0.000 C 
ATOM     15  C   UNL     1      -0.131  11.931  20.967  0.00  0.00    +0.000 C 
ATOM     16  O   UNL     1      -0.145  12.198  18.651  0.00  0.00    +0.000 OA
ENDBRANCH  12  14
ENDBRANCH   6   9
BRANCH   1  17
ATOM     17  N   UNL     1       3.476   2.932  18.287  0.00  0.00    +0.000 N 
ATOM     18  H   UNL     1       2.568   3.089  17.855  0.00  0.00    +0.000 HD
BRANCH  17  22
ATOM     19  C   UNL     1       6.516   4.845  16.019  0.00  0.00    +0.000 A 
ATOM     20  C   UNL     1       6.727   4.601  17.369  0.00  0.00    +0.000 A 
ATOM     21  C   UNL     1       5.732   3.956  18.133  0.00  0.00    +0.000 A 
ATOM     22  C   UNL     1       4.507   3.570  17.571  0.00  0.00    +0.000 A 
ATOM     23  C   UNL     1       4.382   3.720  16.179  0.00  0.00    +0.000 A 
ATOM     24  C   UNL     1       5.367   4.362  15.408  0.00  0.00    +0.000 A 
BRANCH  19  26
ATOM     25  C   UNL     1       7.342   5.107  13.871  0.00  0.00    +0.000 C 
ATOM     26  O   UNL     1       7.499   5.423  15.257  0.00  0.00    +0.000 OA
ENDBRANCH  19  26
ENDBRANCH  17  22
ENDBRANCH   1  17
TORSDOF 5
ENDMDL
