MODEL 1
REMARK VINA RESULT:      -7.2      0.000      0.000
REMARK  Name = 
REMARK  6 active torsions:
REMARK  status: ('A' for Active; 'I' for Inactive)
REMARK    1  A    between atoms: C_1  and  O_2
REMARK    2  A    between atoms: O_2  and  C_3
REMARK    3  A    between atoms: C_3  and  C_4
REMARK    4  A    between atoms: C_9  and  C_11
REMARK    5  A    between atoms: C_13  and  C_14
REMARK    6  A    between atoms: C_16  and  C_17
REMARK                            x       y       z     vdW  Elec       q    Type
REMARK                         _______ _______ _______ _____ _____    ______ ____
ROOT
ATOM      1  C   UNL     1      -0.369  10.487  20.124  0.00  0.00    +0.000 A 
ATOM      2  N   UNL     1       0.058   9.992  21.268  0.00  0.00    +0.000 NA
ATOM      3  N   UNL     1       1.015   9.004  21.082  0.00  0.00    +0.000 NA
ATOM      4  C   UNL     1       1.301   8.821  19.810  0.00  0.00    +0.000 A 
ATOM      5  N   UNL     1       2.239   7.918  19.366  0.00  0.00    +0.000 N 
ATOM      6  C   UNL     1       2.713   7.834  18.076  0.00  0.00    +0.000 C 
ATOM      7  O   UNL     1       2.314   8.480  17.115  0.00  0.00    +0.000 OA
ATOM      8  S   UNL     1       0.406   9.814  18.752  0.00  0.00    +0.000 S 
ATOM      9  H   UNL     1       2.674   7.342  20.075  0.00  0.00    +0.000 HD
ENDROOT
BRANCH   6  10
ATOM     10  C   UNL     1       3.828   6.891  17.931  0.00  0.00    +0.000 A 
ATOM     11  N   UNL     1       5.030   7.299  17.347  0.00  0.00    +0.000 NA
ATOM     12  C   UNL     1       5.934   6.356  17.496  0.00  0.00    +0.000 A 
ATOM     13  C   UNL     1       7.374   6.500  17.144  0.00  0.00    +0.000 C 
ATOM     14  S   UNL     1       5.368   4.884  18.165  0.00  0.00    +0.000 S 
ATOM     15  C   UNL     1       3.795   5.565  18.364  0.00  0.00    +0.000 A 
BRANCH  15  16
ATOM     16  C   UNL     1       2.686   4.751  18.905  0.00  0.00    +0.000 A 
ATOM     17  C   UNL     1       1.857   3.970  18.084  0.00  0.00    +0.000 A 
ATOM     18  C   UNL     1       0.846   3.171  18.631  0.00  0.00    +0.000 A 
ATOM     19  C   UNL     1       0.652   3.130  20.010  0.00  0.00    +0.000 A 
ATOM     20  C   UNL     1       1.451   3.907  20.840  0.00  0.00    +0.000 A 
ATOM     21  C   UNL     1       2.442   4.725  20.290  0.00  0.00    +0.000 A 
ENDBRANCH  15  16
ENDBRANCH   6  10
BRANCH   1  22
ATOM     22  C   UNL     1      -1.394  11.560  19.958  0.00  0.00    +0.000 C 
BRANCH  22  24
ATOM     23  C   UNL     1      -3.248  11.625  18.497  0.00  0.00    +0.000 C 
ATOM     24  O   UNL     1      -1.834  11.538  18.597  0.00  0.00    +0.000 OA
ENDBRANCH  22  24
ENDBRANCH   1  22
TORSDOF 4
ENDMDL
MODEL 2
REMARK VINA RESULT:      -7.2      1.922      3.851
REMARK  Name = 
REMARK  6 active torsions:
REMARK  status: ('A' for Active; 'I' for Inactive)
REMARK    1  A    between atoms: C_1  and  O_2
REMARK    2  A    between atoms: O_2  and  C_3
REMARK    3  A    between atoms: C_3  and  C_4
REMARK    4  A    between atoms: C_9  and  C_11
REMARK    5  A    between atoms: C_13  and  C_14
REMARK    6  A    between atoms: C_16  and  C_17
REMARK                            x       y       z     vdW  Elec       q    Type
REMARK                         _______ _______ _______ _____ _____    ______ ____
ROOT
ATOM      1  C   UNL     1       0.901  10.991  20.306  0.00  0.00    +0.000 A 
ATOM      2  N   UNL     1       0.854  10.724  21.596  0.00  0.00    +0.000 NA
ATOM      3  N   UNL     1       1.119   9.388  21.861  0.00  0.00    +0.000 NA
ATOM      4  C   UNL     1       1.395   8.709  20.767  0.00  0.00    +0.000 A 
ATOM      5  N   UNL     1       1.720   7.373  20.766  0.00  0.00    +0.000 N 
ATOM      6  C   UNL     1       2.208   6.675  19.685  0.00  0.00    +0.000 C 
ATOM      7  O   UNL     1       2.342   7.105  18.546  0.00  0.00    +0.000 OA
ATOM      8  S   UNL     1       1.321   9.640  19.341  0.00  0.00    +0.000 S 
ATOM      9  H   UNL     1       1.682   6.904  21.663  0.00  0.00    +0.000 HD
ENDROOT
BRANCH   6  10
ATOM     10  C   UNL     1       2.624   5.308  20.020  0.00  0.00    +0.000 A 
ATOM     11  N   UNL     1       1.968   4.594  21.026  0.00  0.00    +0.000 NA
ATOM     12  C   UNL     1       2.379   3.344  21.018  0.00  0.00    +0.000 A 
ATOM     13  C   UNL     1       1.787   2.253  21.841  0.00  0.00    +0.000 C 
ATOM     14  S   UNL     1       3.677   2.996  19.957  0.00  0.00    +0.000 S 
ATOM     15  C   UNL     1       3.655   4.621  19.377  0.00  0.00    +0.000 A 
BRANCH  15  16
ATOM     16  C   UNL     1       4.638   5.075  18.370  0.00  0.00    +0.000 A 
ATOM     17  C   UNL     1       4.393   4.994  16.990  0.00  0.00    +0.000 A 
ATOM     18  C   UNL     1       5.324   5.478  16.063  0.00  0.00    +0.000 A 
ATOM     19  C   UNL     1       6.510   6.063  16.498  0.00  0.00    +0.000 A 
ATOM     20  C   UNL     1       6.781   6.138  17.860  0.00  0.00    +0.000 A 
ATOM     21  C   UNL     1       5.863   5.630  18.784  0.00  0.00    +0.000 A 
ENDBRANCH  15  16
ENDBRANCH   6  10
BRANCH   1  22
ATOM     22  C   UNL     1       0.666  12.324  19.674  0.00  0.00    +0.000 C 
BRANCH  22  24
ATOM     23  C   UNL     1      -1.546  12.413  18.850  0.00  0.00    +0.000 C 
ATOM     24  O   UNL     1      -0.189  12.126  18.544  0.00  0.00    +0.000 OA
ENDBRANCH  22  24
ENDBRANCH   1  22
TORSDOF 4
ENDMDL
MODEL 3
REMARK VINA RESULT:      -7.1      1.891      3.985
REMARK  Name = 
REMARK  6 active torsions:
REMARK  status: ('A' for Active; 'I' for Inactive)
REMARK    1  A    between atoms: C_1  and  O_2
REMARK    2  A    between atoms: O_2  and  C_3
REMARK    3  A    between atoms: C_3  and  C_4
REMARK    4  A    between atoms: C_9  and  C_11
REMARK    5  A    between atoms: C_13  and  C_14
REMARK    6  A    between atoms: C_16  and  C_17
REMARK                            x       y       z     vdW  Elec       q    Type
REMARK                         _______ _______ _______ _____ _____    ______ ____
ROOT
ATOM      1  C   UNL     1       0.859  11.010  20.282  0.00  0.00    +0.000 A 
ATOM      2  N   UNL     1       0.861  10.767  21.578  0.00  0.00    +0.000 NA
ATOM      3  N   UNL     1       1.149   9.439  21.857  0.00  0.00    +0.000 NA
ATOM      4  C   UNL     1       1.391   8.742  20.767  0.00  0.00    +0.000 A 
ATOM      5  N   UNL     1       1.728   7.408  20.778  0.00  0.00    +0.000 N 
ATOM      6  C   UNL     1       2.183   6.695  19.693  0.00  0.00    +0.000 C 
ATOM      7  O   UNL     1       2.271   7.104  18.542  0.00  0.00    +0.000 OA
ATOM      8  S   UNL     1       1.256   9.645  19.327  0.00  0.00    +0.000 S 
ATOM      9  H   UNL     1       1.728   6.957  21.684  0.00  0.00    +0.000 HD
ENDROOT
BRANCH   6  10
ATOM     10  C   UNL     1       2.624   5.339  20.038  0.00  0.00    +0.000 A 
ATOM     11  N   UNL     1       1.917   4.579  20.972  0.00  0.00    +0.000 NA
ATOM     12  C   UNL     1       2.377   3.347  20.978  0.00  0.00    +0.000 A 
ATOM     13  C   UNL     1       1.763   2.216  21.728  0.00  0.00    +0.000 C 
ATOM     14  S   UNL     1       3.771   3.071  20.022  0.00  0.00    +0.000 S 
ATOM     15  C   UNL     1       3.732   4.705  19.471  0.00  0.00    +0.000 A 
BRANCH  15  16
ATOM     16  C   UNL     1       4.777   5.218  18.558  0.00  0.00    +0.000 A 
ATOM     17  C   UNL     1       6.052   5.592  19.011  0.00  0.00    +0.000 A 
ATOM     18  C   UNL     1       7.036   6.027  18.115  0.00  0.00    +0.000 A 
ATOM     19  C   UNL     1       6.767   6.083  16.750  0.00  0.00    +0.000 A 
ATOM     20  C   UNL     1       5.507   5.732  16.281  0.00  0.00    +0.000 A 
ATOM     21  C   UNL     1       4.517   5.324  17.180  0.00  0.00    +0.000 A 
ENDBRANCH  15  16
ENDBRANCH   6  10
BRANCH   1  22
ATOM     22  C   UNL     1       0.587  12.329  19.634  0.00  0.00    +0.000 C 
BRANCH  22  24
ATOM     23  C   UNL     1      -1.740  12.066  19.330  0.00  0.00    +0.000 C 
ATOM     24  O   UNL     1      -0.473  12.142  18.692  0.00  0.00    +0.000 OA
ENDBRANCH  22  24
ENDBRANCH   1  22
TORSDOF 4
ENDMDL
MODEL 4
REMARK VINA RESULT:      -7.1      0.964      1.226
REMARK  Name = 
REMARK  6 active torsions:
REMARK  status: ('A' for Active; 'I' for Inactive)
REMARK    1  A    between atoms: C_1  and  O_2
REMARK    2  A    between atoms: O_2  and  C_3
REMARK    3  A    between atoms: C_3  and  C_4
REMARK    4  A    between atoms: C_9  and  C_11
REMARK    5  A    between atoms: C_13  and  C_14
REMARK    6  A    between atoms: C_16  and  C_17
REMARK                            x       y       z     vdW  Elec       q    Type
REMARK                         _______ _______ _______ _____ _____    ______ ____
ROOT
ATOM      1  C   UNL     1      -0.025  10.219  20.768  0.00  0.00    +0.000 A 
ATOM      2  N   UNL     1       0.403   9.534  21.810  0.00  0.00    +0.000 NA
ATOM      3  N   UNL     1       1.271   8.515  21.441  0.00  0.00    +0.000 NA
ATOM      4  C   UNL     1       1.494   8.496  20.144  0.00  0.00    +0.000 A 
ATOM      5  N   UNL     1       2.339   7.600  19.532  0.00  0.00    +0.000 N 
ATOM      6  C   UNL     1       2.757   7.669  18.222  0.00  0.00    +0.000 C 
ATOM      7  O   UNL     1       2.377   8.474  17.382  0.00  0.00    +0.000 OA
ATOM      8  S   UNL     1       0.643   9.695  19.280  0.00  0.00    +0.000 S 
ATOM      9  H   UNL     1       2.752   6.897  20.132  0.00  0.00    +0.000 HD
ENDROOT
BRANCH   6  10
ATOM     10  C   UNL     1       3.787   6.677  17.892  0.00  0.00    +0.000 A 
ATOM     11  N   UNL     1       4.940   7.055  17.200  0.00  0.00    +0.000 NA
ATOM     12  C   UNL     1       5.794   6.055  17.187  0.00  0.00    +0.000 A 
ATOM     13  C   UNL     1       7.192   6.141  16.681  0.00  0.00    +0.000 C 
ATOM     14  S   UNL     1       5.213   4.575  17.825  0.00  0.00    +0.000 S 
ATOM     15  C   UNL     1       3.718   5.327  18.244  0.00  0.00    +0.000 A 
BRANCH  15  16
ATOM     16  C   UNL     1       2.626   4.543  18.859  0.00  0.00    +0.000 A 
ATOM     17  C   UNL     1       1.699   3.819  18.093  0.00  0.00    +0.000 A 
ATOM     18  C   UNL     1       0.706   3.045  18.705  0.00  0.00    +0.000 A 
ATOM     19  C   UNL     1       0.630   2.971  20.094  0.00  0.00    +0.000 A 
ATOM     20  C   UNL     1       1.528   3.692  20.871  0.00  0.00    +0.000 A 
ATOM     21  C   UNL     1       2.502   4.486  20.259  0.00  0.00    +0.000 A 
ENDBRANCH  15  16
ENDBRANCH   6  10
BRANCH   1  22
ATOM     22  C   UNL     1      -0.966  11.378  20.805  0.00  0.00    +0.000 C 
BRANCH  22  24
ATOM     23  C   UNL     1       0.488  13.195  21.207  0.00  0.00    +0.000 C 
ATOM     24  O   UNL     1      -0.292  12.506  20.240  0.00  0.00    +0.000 OA
ENDBRANCH  22  24
ENDBRANCH   1  22
TORSDOF 4
ENDMDL
MODEL 5
REMARK VINA RESULT:      -7.1      1.208      1.711
REMARK  Name = 
REMARK  6 active torsions:
REMARK  status: ('A' for Active; 'I' for Inactive)
REMARK    1  A    between atoms: C_1  and  O_2
REMARK    2  A    between atoms: O_2  and  C_3
REMARK    3  A    between atoms: C_3  and  C_4
REMARK    4  A    between atoms: C_9  and  C_11
REMARK    5  A    between atoms: C_13  and  C_14
REMARK    6  A    between atoms: C_16  and  C_17
REMARK                            x       y       z     vdW  Elec       q    Type
REMARK                         _______ _______ _______ _____ _____    ______ ____
ROOT
ATOM      1  C   UNL     1       0.085  10.097  20.797  0.00  0.00    +0.000 A 
ATOM      2  N   UNL     1       0.487   9.361  21.815  0.00  0.00    +0.000 NA
ATOM      3  N   UNL     1       1.333   8.337  21.414  0.00  0.00    +0.000 NA
ATOM      4  C   UNL     1       1.567   8.363  20.119  0.00  0.00    +0.000 A 
ATOM      5  N   UNL     1       2.396   7.470  19.480  0.00  0.00    +0.000 N 
ATOM      6  C   UNL     1       2.827   7.579  18.177  0.00  0.00    +0.000 C 
ATOM      7  O   UNL     1       2.474   8.425  17.365  0.00  0.00    +0.000 OA
ATOM      8  S   UNL     1       0.753   9.614  19.295  0.00  0.00    +0.000 S 
ATOM      9  H   UNL     1       2.787   6.735  20.055  0.00  0.00    +0.000 HD
ENDROOT
BRANCH   6  10
ATOM     10  C   UNL     1       3.835   6.575  17.817  0.00  0.00    +0.000 A 
ATOM     11  N   UNL     1       4.926   6.921  17.015  0.00  0.00    +0.000 NA
ATOM     12  C   UNL     1       5.784   5.926  16.985  0.00  0.00    +0.000 A 
ATOM     13  C   UNL     1       7.136   5.991  16.363  0.00  0.00    +0.000 C 
ATOM     14  S   UNL     1       5.270   4.479  17.744  0.00  0.00    +0.000 S 
ATOM     15  C   UNL     1       3.807   5.246  18.244  0.00  0.00    +0.000 A 
BRANCH  15  16
ATOM     16  C   UNL     1       2.776   4.490  18.985  0.00  0.00    +0.000 A 
ATOM     17  C   UNL     1       2.759   4.417  20.387  0.00  0.00    +0.000 A 
ATOM     18  C   UNL     1       1.740   3.734  21.061  0.00  0.00    +0.000 A 
ATOM     19  C   UNL     1       0.712   3.123  20.348  0.00  0.00    +0.000 A 
ATOM     20  C   UNL     1       0.717   3.169  18.959  0.00  0.00    +0.000 A 
ATOM     21  C   UNL     1       1.750   3.827  18.285  0.00  0.00    +0.000 A 
ENDBRANCH  15  16
ENDBRANCH   6  10
BRANCH   1  22
ATOM     22  C   UNL     1      -0.828  11.276  20.871  0.00  0.00    +0.000 C 
BRANCH  22  24
ATOM     23  C   UNL     1      -1.689  11.853  22.993  0.00  0.00    +0.000 C 
ATOM     24  O   UNL     1      -0.580  11.944  22.111  0.00  0.00    +0.000 OA
ENDBRANCH  22  24
ENDBRANCH   1  22
TORSDOF 4
ENDMDL
MODEL 6
REMARK VINA RESULT:      -7.1      2.220      4.222
REMARK  Name = 
REMARK  6 active torsions:
REMARK  status: ('A' for Active; 'I' for Inactive)
REMARK    1  A    between atoms: C_1  and  O_2
REMARK    2  A    between atoms: O_2  and  C_3
REMARK    3  A    between atoms: C_3  and  C_4
REMARK    4  A    between atoms: C_9  and  C_11
REMARK    5  A    between atoms: C_13  and  C_14
REMARK    6  A    between atoms: C_16  and  C_17
REMARK                            x       y       z     vdW  Elec       q    Type
REMARK                         _______ _______ _______ _____ _____    ______ ____
ROOT
ATOM      1  C   UNL     1       0.921  11.156  20.128  0.00  0.00    +0.000 A 
ATOM      2  N   UNL     1       0.873  10.915  21.423  0.00  0.00    +0.000 NA
ATOM      3  N   UNL     1       1.130   9.583  21.713  0.00  0.00    +0.000 NA
ATOM      4  C   UNL     1       1.399   8.880  20.633  0.00  0.00    +0.000 A 
ATOM      5  N   UNL     1       1.714   7.541  20.658  0.00  0.00    +0.000 N 
ATOM      6  C   UNL     1       2.196   6.819  19.590  0.00  0.00    +0.000 C 
ATOM      7  O   UNL     1       2.332   7.225  18.442  0.00  0.00    +0.000 OA
ATOM      8  S   UNL     1       1.330   9.783  19.188  0.00  0.00    +0.000 S 
ATOM      9  H   UNL     1       1.674   7.091  21.563  0.00  0.00    +0.000 HD
ENDROOT
BRANCH   6  10
ATOM     10  C   UNL     1       2.603   5.456  19.951  0.00  0.00    +0.000 A 
ATOM     11  N   UNL     1       1.895   4.738  20.918  0.00  0.00    +0.000 NA
ATOM     12  C   UNL     1       2.316   3.492  20.937  0.00  0.00    +0.000 A 
ATOM     13  C   UNL     1       1.686   2.397  21.725  0.00  0.00    +0.000 C 
ATOM     14  S   UNL     1       3.677   3.153  19.954  0.00  0.00    +0.000 S 
ATOM     15  C   UNL     1       3.676   4.777  19.371  0.00  0.00    +0.000 A 
BRANCH  15  16
ATOM     16  C   UNL     1       4.713   5.238  18.423  0.00  0.00    +0.000 A 
ATOM     17  C   UNL     1       5.976   5.677  18.847  0.00  0.00    +0.000 A 
ATOM     18  C   UNL     1       6.955   6.060  17.922  0.00  0.00    +0.000 A 
ATOM     19  C   UNL     1       6.692   6.000  16.556  0.00  0.00    +0.000 A 
ATOM     20  C   UNL     1       5.442   5.583  16.114  0.00  0.00    +0.000 A 
ATOM     21  C   UNL     1       4.457   5.227  17.040  0.00  0.00    +0.000 A 
ENDBRANCH  15  16
ENDBRANCH   6  10
BRANCH   1  22
ATOM     22  C   UNL     1       0.694  12.477  19.470  0.00  0.00    +0.000 C 
BRANCH  22  24
ATOM     23  C   UNL     1       2.581  13.358  18.356  0.00  0.00    +0.000 C 
ATOM     24  O   UNL     1       1.897  13.241  19.596  0.00  0.00    +0.000 OA
ENDBRANCH  22  24
ENDBRANCH   1  22
TORSDOF 4
ENDMDL
MODEL 7
REMARK VINA RESULT:      -7.1      2.117      4.143
REMARK  Name = 
REMARK  6 active torsions:
REMARK  status: ('A' for Active; 'I' for Inactive)
REMARK    1  A    between atoms: C_1  and  O_2
REMARK    2  A    between atoms: O_2  and  C_3
REMARK    3  A    between atoms: C_3  and  C_4
REMARK    4  A    between atoms: C_9  and  C_11
REMARK    5  A    between atoms: C_13  and  C_14
REMARK    6  A    between atoms: C_16  and  C_17
REMARK                            x       y       z     vdW  Elec       q    Type
REMARK                         _______ _______ _______ _____ _____    ______ ____
ROOT
ATOM      1  C   UNL     1       1.059  10.689  20.727  0.00  0.00    +0.000 A 
ATOM      2  N   UNL     1       1.065  10.146  21.928  0.00  0.00    +0.000 NA
ATOM      3  N   UNL     1       1.344   8.788  21.883  0.00  0.00    +0.000 NA
ATOM      4  C   UNL     1       1.576   8.367  20.657  0.00  0.00    +0.000 A 
ATOM      5  N   UNL     1       1.904   7.067  20.350  0.00  0.00    +0.000 N 
ATOM      6  C   UNL     1       2.348   6.628  19.124  0.00  0.00    +0.000 C 
ATOM      7  O   UNL     1       2.434   7.298  18.102  0.00  0.00    +0.000 OA
ATOM      8  S   UNL     1       1.442   9.587  19.473  0.00  0.00    +0.000 S 
ATOM      9  H   UNL     1       1.904   6.413  21.123  0.00  0.00    +0.000 HD
ENDROOT
BRANCH   6  10
ATOM     10  C   UNL     1       2.781   5.226  19.135  0.00  0.00    +0.000 A 
ATOM     11  N   UNL     1       1.893   4.213  19.507  0.00  0.00    +0.000 NA
ATOM     12  C   UNL     1       2.434   3.040  19.260  0.00  0.00    +0.000 A 
ATOM     13  C   UNL     1       1.723   1.737  19.378  0.00  0.00    +0.000 C 
ATOM     14  S   UNL     1       4.070   3.070  18.751  0.00  0.00    +0.000 S 
ATOM     15  C   UNL     1       4.058   4.795  18.770  0.00  0.00    +0.000 A 
BRANCH  15  16
ATOM     16  C   UNL     1       5.279   5.561  18.443  0.00  0.00    +0.000 A 
ATOM     17  C   UNL     1       5.328   6.482  17.385  0.00  0.00    +0.000 A 
ATOM     18  C   UNL     1       6.486   7.229  17.132  0.00  0.00    +0.000 A 
ATOM     19  C   UNL     1       7.610   7.076  17.938  0.00  0.00    +0.000 A 
ATOM     20  C   UNL     1       7.590   6.158  18.981  0.00  0.00    +0.000 A 
ATOM     21  C   UNL     1       6.443   5.393  19.216  0.00  0.00    +0.000 A 
ENDBRANCH  15  16
ENDBRANCH   6  10
BRANCH   1  22
ATOM     22  C   UNL     1       0.795  12.125  20.412  0.00  0.00    +0.000 C 
BRANCH  22  24
ATOM     23  C   UNL     1      -0.152  13.611  21.984  0.00  0.00    +0.000 C 
ATOM     24  O   UNL     1       1.006  12.881  21.608  0.00  0.00    +0.000 OA
ENDBRANCH  22  24
ENDBRANCH   1  22
TORSDOF 4
ENDMDL
MODEL 8
REMARK VINA RESULT:      -7.1      2.244      4.158
REMARK  Name = 
REMARK  6 active torsions:
REMARK  status: ('A' for Active; 'I' for Inactive)
REMARK    1  A    between atoms: C_1  and  O_2
REMARK    2  A    between atoms: O_2  and  C_3
REMARK    3  A    between atoms: C_3  and  C_4
REMARK    4  A    between atoms: C_9  and  C_11
REMARK    5  A    between atoms: C_13  and  C_14
REMARK    6  A    between atoms: C_16  and  C_17
REMARK                            x       y       z     vdW  Elec       q    Type
REMARK                         _______ _______ _______ _____ _____    ______ ____
ROOT
ATOM      1  C   UNL     1       0.936  10.974  20.319  0.00  0.00    +0.000 A 
ATOM      2  N   UNL     1       0.910  10.711  21.611  0.00  0.00    +0.000 NA
ATOM      3  N   UNL     1       1.183   9.377  21.875  0.00  0.00    +0.000 NA
ATOM      4  C   UNL     1       1.443   8.695  20.780  0.00  0.00    +0.000 A 
ATOM      5  N   UNL     1       1.771   7.359  20.778  0.00  0.00    +0.000 N 
ATOM      6  C   UNL     1       2.244   6.659  19.692  0.00  0.00    +0.000 C 
ATOM      7  O   UNL     1       2.360   7.085  18.549  0.00  0.00    +0.000 OA
ATOM      8  S   UNL     1       1.345   9.620  19.352  0.00  0.00    +0.000 S 
ATOM      9  H   UNL     1       1.749   6.893  21.677  0.00  0.00    +0.000 HD
ENDROOT
BRANCH   6  10
ATOM     10  C   UNL     1       2.669   5.294  20.025  0.00  0.00    +0.000 A 
ATOM     11  N   UNL     1       1.969   4.545  20.974  0.00  0.00    +0.000 NA
ATOM     12  C   UNL     1       2.407   3.305  20.967  0.00  0.00    +0.000 A 
ATOM     13  C   UNL     1       1.789   2.184  21.729  0.00  0.00    +0.000 C 
ATOM     14  S   UNL     1       3.776   3.007  19.981  0.00  0.00    +0.000 S 
ATOM     15  C   UNL     1       3.753   4.643  19.434  0.00  0.00    +0.000 A 
BRANCH  15  16
ATOM     16  C   UNL     1       4.787   5.139  18.500  0.00  0.00    +0.000 A 
ATOM     17  C   UNL     1       4.575   5.210  17.114  0.00  0.00    +0.000 A 
ATOM     18  C   UNL     1       5.555   5.730  16.260  0.00  0.00    +0.000 A 
ATOM     19  C   UNL     1       6.759   6.201  16.778  0.00  0.00    +0.000 A 
ATOM     20  C   UNL     1       6.997   6.125  18.145  0.00  0.00    +0.000 A 
ATOM     21  C   UNL     1       6.028   5.580  18.993  0.00  0.00    +0.000 A 
ENDBRANCH  15  16
ENDBRANCH   6  10
BRANCH   1  22
ATOM     22  C   UNL     1       0.687  12.304  19.686  0.00  0.00    +0.000 C 
BRANCH  22  24
ATOM     23  C   UNL     1       2.466  13.744  20.268  0.00  0.00    +0.000 C 
ATOM     24  O   UNL     1       1.953  12.845  19.295  0.00  0.00    +0.000 OA
ENDBRANCH  22  24
ENDBRANCH   1  22
TORSDOF 4
ENDMDL
MODEL 9
REMARK VINA RESULT:      -7.1      2.105      4.237
REMARK  Name = 
REMARK  6 active torsions:
REMARK  status: ('A' for Active; 'I' for Inactive)
REMARK    1  A    between atoms: C_1  and  O_2
REMARK    2  A    between atoms: O_2  and  C_3
REMARK    3  A    between atoms: C_3  and  C_4
REMARK    4  A    between atoms: C_9  and  C_11
REMARK    5  A    between atoms: C_13  and  C_14
REMARK    6  A    between atoms: C_16  and  C_17
REMARK                            x       y       z     vdW  Elec       q    Type
REMARK                         _______ _______ _______ _____ _____    ______ ____
ROOT
ATOM      1  C   UNL     1       1.058  10.655  20.742  0.00  0.00    +0.000 A 
ATOM      2  N   UNL     1       1.093  10.101  21.937  0.00  0.00    +0.000 NA
ATOM      3  N   UNL     1       1.384   8.746  21.874  0.00  0.00    +0.000 NA
ATOM      4  C   UNL     1       1.595   8.339  20.641  0.00  0.00    +0.000 A 
ATOM      5  N   UNL     1       1.927   7.044  20.315  0.00  0.00    +0.000 N 
ATOM      6  C   UNL     1       2.352   6.620  19.076  0.00  0.00    +0.000 C 
ATOM      7  O   UNL     1       2.411   7.300  18.059  0.00  0.00    +0.000 OA
ATOM      8  S   UNL     1       1.426   9.567  19.470  0.00  0.00    +0.000 S 
ATOM      9  H   UNL     1       1.949   6.384  21.082  0.00  0.00    +0.000 HD
ENDROOT
BRANCH   6  10
ATOM     10  C   UNL     1       2.797   5.222  19.066  0.00  0.00    +0.000 A 
ATOM     11  N   UNL     1       1.904   4.192  19.372  0.00  0.00    +0.000 NA
ATOM     12  C   UNL     1       2.466   3.031  19.114  0.00  0.00    +0.000 A 
ATOM     13  C   UNL     1       1.763   1.719  19.165  0.00  0.00    +0.000 C 
ATOM     14  S   UNL     1       4.121   3.089  18.676  0.00  0.00    +0.000 S 
ATOM     15  C   UNL     1       4.092   4.813  18.743  0.00  0.00    +0.000 A 
BRANCH  15  16
ATOM     16  C   UNL     1       5.319   5.597  18.489  0.00  0.00    +0.000 A 
ATOM     17  C   UNL     1       6.472   5.463  19.278  0.00  0.00    +0.000 A 
ATOM     18  C   UNL     1       7.636   6.184  18.982  0.00  0.00    +0.000 A 
ATOM     19  C   UNL     1       7.671   7.043  17.887  0.00  0.00    +0.000 A 
ATOM     20  C   UNL     1       6.535   7.203  17.102  0.00  0.00    +0.000 A 
ATOM     21  C   UNL     1       5.366   6.503  17.414  0.00  0.00    +0.000 A 
ENDBRANCH  15  16
ENDBRANCH   6  10
BRANCH   1  22
ATOM     22  C   UNL     1       0.775  12.091  20.445  0.00  0.00    +0.000 C 
BRANCH  22  24
ATOM     23  C   UNL     1       1.808  13.475  18.834  0.00  0.00    +0.000 C 
ATOM     24  O   UNL     1       1.995  12.696  20.007  0.00  0.00    +0.000 OA
ENDBRANCH  22  24
ENDBRANCH   1  22
TORSDOF 4
ENDMDL
