MODEL 1
REMARK VINA RESULT:      -7.9      0.000      0.000
REMARK  Name = 
REMARK  3 active torsions:
REMARK  status: ('A' for Active; 'I' for Inactive)
REMARK    1  A    between atoms: C_1  and  N_2
REMARK    2  A    between atoms: C_8  and  O_9
REMARK    3  A    between atoms: C_20  and  C_21
REMARK                            x       y       z     vdW  Elec       q    Type
REMARK                         _______ _______ _______ _____ _____    ______ ____
ROOT
ATOM      1  C   UNL     1       6.582   4.910  19.130  0.00  0.00    +0.000 C 
ATOM      2  N   UNL     1       5.709   4.412  18.088  0.00  0.00    +0.000 N 
ATOM      3  C   UNL     1       4.517   3.727  18.224  0.00  0.00    +0.000 A 
ATOM      4  C   UNL     1       4.094   3.393  16.943  0.00  0.00    +0.000 A 
ATOM      5  C   UNL     1       5.022   3.918  16.008  0.00  0.00    +0.000 A 
ATOM      6  C   UNL     1       5.110   3.889  14.600  0.00  0.00    +0.000 A 
ATOM      7  C   UNL     1       6.186   4.505  13.961  0.00  0.00    +0.000 A 
ATOM      8  C   UNL     1       7.173   5.136  14.710  0.00  0.00    +0.000 A 
ATOM      9  C   UNL     1       7.117   5.172  16.103  0.00  0.00    +0.000 A 
ATOM     10  C   UNL     1       6.026   4.551  16.742  0.00  0.00    +0.000 A 
ATOM     11  C   UNL     1       2.863   2.600  16.664  0.00  0.00    +0.000 C 
ATOM     12  C   UNL     1       2.463   1.752  17.876  0.00  0.00    +0.000 C 
ATOM     13  C   UNL     1       2.474   2.548  19.166  0.00  0.00    +0.000 C 
ATOM     14  C   UNL     1       1.411   2.522  19.991  0.00  0.00    +0.000 C 
ATOM     15  C   UNL     1       1.512   3.345  21.204  0.00  0.00    +0.000 C 
ATOM     16  O   UNL     1       1.093   2.941  22.283  0.00  0.00    +0.000 OA
ATOM     17  C   UNL     1       2.125   4.698  20.990  0.00  0.00    +0.000 C 
ATOM     18  C   UNL     1       3.536   4.553  20.430  0.00  0.00    +0.000 C 
ATOM     19  C   UNL     1       3.791   3.311  19.507  0.00  0.00    +0.000 C 
ATOM     20  C   UNL     1       4.660   2.269  20.260  0.00  0.00    +0.000 C 
ENDROOT
BRANCH   8  21
ATOM     21  O   UNL     1       8.232   5.735  14.101  0.00  0.00    +0.000 OA
ATOM     22  H   UNL     1       8.191   6.688  14.258  0.00  0.00    +0.000 HD
ENDBRANCH   8  21
TORSDOF 1
ENDMDL
MODEL 2
REMARK VINA RESULT:      -6.8      1.459      6.479
REMARK  Name = 
REMARK  3 active torsions:
REMARK  status: ('A' for Active; 'I' for Inactive)
REMARK    1  A    between atoms: C_1  and  N_2
REMARK    2  A    between atoms: C_8  and  O_9
REMARK    3  A    between atoms: C_20  and  C_21
REMARK                            x       y       z     vdW  Elec       q    Type
REMARK                         _______ _______ _______ _____ _____    ______ ____
ROOT
ATOM      1  C   UNL     1       5.131   2.117  19.070  0.00  0.00    +0.000 C 
ATOM      2  N   UNL     1       4.338   3.320  18.931  0.00  0.00    +0.000 N 
ATOM      3  C   UNL     1       4.568   4.407  18.109  0.00  0.00    +0.000 A 
ATOM      4  C   UNL     1       3.578   5.342  18.389  0.00  0.00    +0.000 A 
ATOM      5  C   UNL     1       2.706   4.799  19.368  0.00  0.00    +0.000 A 
ATOM      6  C   UNL     1       1.555   5.284  20.023  0.00  0.00    +0.000 A 
ATOM      7  C   UNL     1       0.914   4.490  20.975  0.00  0.00    +0.000 A 
ATOM      8  C   UNL     1       1.417   3.230  21.283  0.00  0.00    +0.000 A 
ATOM      9  C   UNL     1       2.558   2.730  20.657  0.00  0.00    +0.000 A 
ATOM     10  C   UNL     1       3.198   3.535  19.695  0.00  0.00    +0.000 A 
ATOM     11  C   UNL     1       3.506   6.682  17.741  0.00  0.00    +0.000 C 
ATOM     12  C   UNL     1       4.876   7.115  17.209  0.00  0.00    +0.000 C 
ATOM     13  C   UNL     1       5.560   6.019  16.415  0.00  0.00    +0.000 C 
ATOM     14  C   UNL     1       6.059   6.274  15.193  0.00  0.00    +0.000 C 
ATOM     15  C   UNL     1       6.682   5.140  14.497  0.00  0.00    +0.000 C 
ATOM     16  O   UNL     1       7.712   5.280  13.847  0.00  0.00    +0.000 OA
ATOM     17  C   UNL     1       5.937   3.845  14.627  0.00  0.00    +0.000 C 
ATOM     18  C   UNL     1       5.813   3.454  16.096  0.00  0.00    +0.000 C 
ATOM     19  C   UNL     1       5.716   4.637  17.121  0.00  0.00    +0.000 C 
ATOM     20  C   UNL     1       7.044   4.753  17.914  0.00  0.00    +0.000 C 
ENDROOT
BRANCH   8  21
ATOM     21  O   UNL     1       0.807   2.447  22.214  0.00  0.00    +0.000 OA
ATOM     22  H   UNL     1       0.356   3.011  22.857  0.00  0.00    +0.000 HD
ENDBRANCH   8  21
TORSDOF 1
ENDMDL
MODEL 3
REMARK VINA RESULT:      -6.8      4.302      6.122
REMARK  Name = 
REMARK  3 active torsions:
REMARK  status: ('A' for Active; 'I' for Inactive)
REMARK    1  A    between atoms: C_1  and  N_2
REMARK    2  A    between atoms: C_8  and  O_9
REMARK    3  A    between atoms: C_20  and  C_21
REMARK                            x       y       z     vdW  Elec       q    Type
REMARK                         _______ _______ _______ _____ _____    ______ ____
ROOT
ATOM      1  C   UNL     1       1.296   6.619  21.195  0.00  0.00    +0.000 C 
ATOM      2  N   UNL     1       1.779   7.198  19.959  0.00  0.00    +0.000 N 
ATOM      3  C   UNL     1       2.524   6.595  18.964  0.00  0.00    +0.000 A 
ATOM      4  C   UNL     1       2.811   7.576  18.022  0.00  0.00    +0.000 A 
ATOM      5  C   UNL     1       2.196   8.788  18.429  0.00  0.00    +0.000 A 
ATOM      6  C   UNL     1       2.149  10.088  17.884  0.00  0.00    +0.000 A 
ATOM      7  C   UNL     1       1.452  11.094  18.552  0.00  0.00    +0.000 A 
ATOM      8  C   UNL     1       0.816  10.819  19.758  0.00  0.00    +0.000 A 
ATOM      9  C   UNL     1       0.854   9.545  20.325  0.00  0.00    +0.000 A 
ATOM     10  C   UNL     1       1.557   8.532  19.643  0.00  0.00    +0.000 A 
ATOM     11  C   UNL     1       3.643   7.334  16.810  0.00  0.00    +0.000 C 
ATOM     12  C   UNL     1       4.570   6.129  17.005  0.00  0.00    +0.000 C 
ATOM     13  C   UNL     1       3.842   4.927  17.573  0.00  0.00    +0.000 C 
ATOM     14  C   UNL     1       3.958   3.722  16.988  0.00  0.00    +0.000 C 
ATOM     15  C   UNL     1       3.195   2.626  17.602  0.00  0.00    +0.000 C 
ATOM     16  O   UNL     1       3.673   1.503  17.713  0.00  0.00    +0.000 OA
ATOM     17  C   UNL     1       1.807   2.999  18.031  0.00  0.00    +0.000 C 
ATOM     18  C   UNL     1       1.858   4.133  19.050  0.00  0.00    +0.000 C 
ATOM     19  C   UNL     1       3.038   5.153  18.891  0.00  0.00    +0.000 C 
ATOM     20  C   UNL     1       4.076   4.933  20.022  0.00  0.00    +0.000 C 
ENDROOT
BRANCH   8  21
ATOM     21  O   UNL     1       0.138  11.792  20.426  0.00  0.00    +0.000 OA
ATOM     22  H   UNL     1      -0.764  11.843  20.081  0.00  0.00    +0.000 HD
ENDBRANCH   8  21
TORSDOF 1
ENDMDL
MODEL 4
REMARK VINA RESULT:      -6.7      6.320      8.294
REMARK  Name = 
REMARK  3 active torsions:
REMARK  status: ('A' for Active; 'I' for Inactive)
REMARK    1  A    between atoms: C_1  and  N_2
REMARK    2  A    between atoms: C_8  and  O_9
REMARK    3  A    between atoms: C_20  and  C_21
REMARK                            x       y       z     vdW  Elec       q    Type
REMARK                         _______ _______ _______ _____ _____    ______ ____
ROOT
ATOM      1  C   UNL     1       1.949  10.130  17.938  0.00  0.00    +0.000 C 
ATOM      2  N   UNL     1       1.504   9.353  19.075  0.00  0.00    +0.000 N 
ATOM      3  C   UNL     1       0.707   9.757  20.129  0.00  0.00    +0.000 A 
ATOM      4  C   UNL     1       0.625   8.684  21.009  0.00  0.00    +0.000 A 
ATOM      5  C   UNL     1       1.350   7.594  20.462  0.00  0.00    +0.000 A 
ATOM      6  C   UNL     1       1.613   6.280  20.902  0.00  0.00    +0.000 A 
ATOM      7  C   UNL     1       2.395   5.431  20.120  0.00  0.00    +0.000 A 
ATOM      8  C   UNL     1       2.923   5.884  18.915  0.00  0.00    +0.000 A 
ATOM      9  C   UNL     1       2.687   7.181  18.460  0.00  0.00    +0.000 A 
ATOM     10  C   UNL     1       1.893   8.032  19.254  0.00  0.00    +0.000 A 
ATOM     11  C   UNL     1      -0.111   8.737  22.304  0.00  0.00    +0.000 C 
ATOM     12  C   UNL     1      -0.258  10.180  22.800  0.00  0.00    +0.000 C 
ATOM     13  C   UNL     1      -0.743  11.117  21.711  0.00  0.00    +0.000 C 
ATOM     14  C   UNL     1      -1.786  11.936  21.934  0.00  0.00    +0.000 C 
ATOM     15  C   UNL     1      -2.192  12.788  20.808  0.00  0.00    +0.000 C 
ATOM     16  O   UNL     1      -2.529  13.955  20.983  0.00  0.00    +0.000 OA
ATOM     17  C   UNL     1      -2.189  12.103  19.474  0.00  0.00    +0.000 C 
ATOM     18  C   UNL     1      -0.793  11.578  19.156  0.00  0.00    +0.000 C 
ATOM     19  C   UNL     1       0.075  11.130  20.383  0.00  0.00    +0.000 C 
ATOM     20  C   UNL     1       1.204  12.164  20.631  0.00  0.00    +0.000 C 
ENDROOT
BRANCH   8  21
ATOM     21  O   UNL     1       3.694   5.070  18.144  0.00  0.00    +0.000 OA
ATOM     22  H   UNL     1       4.414   4.712  18.681  0.00  0.00    +0.000 HD
ENDBRANCH   8  21
TORSDOF 1
ENDMDL
MODEL 5
REMARK VINA RESULT:      -6.7     10.228     11.143
REMARK  Name = 
REMARK  3 active torsions:
REMARK  status: ('A' for Active; 'I' for Inactive)
REMARK    1  A    between atoms: C_1  and  N_2
REMARK    2  A    between atoms: C_8  and  O_9
REMARK    3  A    between atoms: C_20  and  C_21
REMARK                            x       y       z     vdW  Elec       q    Type
REMARK                         _______ _______ _______ _____ _____    ______ ____
ROOT
ATOM      1  C   UNL     1       8.633  15.918  18.950  0.00  0.00    +0.000 C 
ATOM      2  N   UNL     1       8.937  14.569  19.376  0.00  0.00    +0.000 N 
ATOM      3  C   UNL     1       8.477  13.899  20.494  0.00  0.00    +0.000 A 
ATOM      4  C   UNL     1       9.110  12.662  20.514  0.00  0.00    +0.000 A 
ATOM      5  C   UNL     1       9.939  12.559  19.366  0.00  0.00    +0.000 A 
ATOM      6  C   UNL     1      10.801  11.557  18.874  0.00  0.00    +0.000 A 
ATOM      7  C   UNL     1      11.508  11.772  17.691  0.00  0.00    +0.000 A 
ATOM      8  C   UNL     1      11.370  12.975  17.006  0.00  0.00    +0.000 A 
ATOM      9  C   UNL     1      10.531  13.986  17.474  0.00  0.00    +0.000 A 
ATOM     10  C   UNL     1       9.818  13.761  18.668  0.00  0.00    +0.000 A 
ATOM     11  C   UNL     1       8.917  11.657  21.597  0.00  0.00    +0.000 C 
ATOM     12  C   UNL     1       8.439  12.322  22.892  0.00  0.00    +0.000 C 
ATOM     13  C   UNL     1       7.294  13.286  22.656  0.00  0.00    +0.000 C 
ATOM     14  C   UNL     1       6.175  13.209  23.399  0.00  0.00    +0.000 C 
ATOM     15  C   UNL     1       5.115  14.174  23.077  0.00  0.00    +0.000 C 
ATOM     16  O   UNL     1       4.461  14.718  23.960  0.00  0.00    +0.000 OA
ATOM     17  C   UNL     1       4.895  14.391  21.609  0.00  0.00    +0.000 C 
ATOM     18  C   UNL     1       6.176  14.900  20.955  0.00  0.00    +0.000 C 
ATOM     19  C   UNL     1       7.521  14.396  21.584  0.00  0.00    +0.000 C 
ATOM     20  C   UNL     1       8.203  15.553  22.360  0.00  0.00    +0.000 C 
ENDROOT
BRANCH   8  21
ATOM     21  O   UNL     1      12.058  13.202  15.853  0.00  0.00    +0.000 OA
ATOM     22  H   UNL     1      11.822  14.074  15.511  0.00  0.00    +0.000 HD
ENDBRANCH   8  21
TORSDOF 1
ENDMDL
MODEL 6
REMARK VINA RESULT:      -6.6      7.356      9.238
REMARK  Name = 
REMARK  3 active torsions:
REMARK  status: ('A' for Active; 'I' for Inactive)
REMARK    1  A    between atoms: C_1  and  N_2
REMARK    2  A    between atoms: C_8  and  O_9
REMARK    3  A    between atoms: C_20  and  C_21
REMARK                            x       y       z     vdW  Elec       q    Type
REMARK                         _______ _______ _______ _____ _____    ______ ____
ROOT
ATOM      1  C   UNL     1       0.683  12.014  18.498  0.00  0.00    +0.000 C 
ATOM      2  N   UNL     1       0.565  10.921  19.439  0.00  0.00    +0.000 N 
ATOM      3  C   UNL     1      -0.129  10.890  20.634  0.00  0.00    +0.000 A 
ATOM      4  C   UNL     1       0.124   9.654  21.217  0.00  0.00    +0.000 A 
ATOM      5  C   UNL     1       0.953   8.903  20.344  0.00  0.00    +0.000 A 
ATOM      6  C   UNL     1       1.521   7.613  20.409  0.00  0.00    +0.000 A 
ATOM      7  C   UNL     1       2.326   7.157  19.365  0.00  0.00    +0.000 A 
ATOM      8  C   UNL     1       2.575   7.977  18.269  0.00  0.00    +0.000 A 
ATOM      9  C   UNL     1       2.033   9.259  18.182  0.00  0.00    +0.000 A 
ATOM     10  C   UNL     1       1.219   9.711  19.239  0.00  0.00    +0.000 A 
ATOM     11  C   UNL     1      -0.408   9.248  22.548  0.00  0.00    +0.000 C 
ATOM     12  C   UNL     1      -0.750  10.472  23.405  0.00  0.00    +0.000 C 
ATOM     13  C   UNL     1      -1.559  11.502  22.642  0.00  0.00    +0.000 C 
ATOM     14  C   UNL     1      -2.694  12.000  23.165  0.00  0.00    +0.000 C 
ATOM     15  C   UNL     1      -3.416  12.976  22.337  0.00  0.00    +0.000 C 
ATOM     16  O   UNL     1      -3.936  13.969  22.833  0.00  0.00    +0.000 OA
ATOM     17  C   UNL     1      -3.480  12.629  20.879  0.00  0.00    +0.000 C 
ATOM     18  C   UNL     1      -2.073  12.510  20.304  0.00  0.00    +0.000 C 
ATOM     19  C   UNL     1      -0.964  11.996  21.287  0.00  0.00    +0.000 C 
ATOM     20  C   UNL     1      -0.027  13.168  21.678  0.00  0.00    +0.000 C 
ENDROOT
BRANCH   8  21
ATOM     21  O   UNL     1       3.363   7.549  17.245  0.00  0.00    +0.000 OA
ATOM     22  H   UNL     1       4.241   7.943  17.335  0.00  0.00    +0.000 HD
ENDBRANCH   8  21
TORSDOF 1
ENDMDL
MODEL 7
REMARK VINA RESULT:      -6.5      3.445      6.806
REMARK  Name = 
REMARK  3 active torsions:
REMARK  status: ('A' for Active; 'I' for Inactive)
REMARK    1  A    between atoms: C_1  and  N_2
REMARK    2  A    between atoms: C_8  and  O_9
REMARK    3  A    between atoms: C_20  and  C_21
REMARK                            x       y       z     vdW  Elec       q    Type
REMARK                         _______ _______ _______ _____ _____    ______ ____
ROOT
ATOM      1  C   UNL     1       2.316   4.978  21.147  0.00  0.00    +0.000 C 
ATOM      2  N   UNL     1       2.273   6.129  20.271  0.00  0.00    +0.000 N 
ATOM      3  C   UNL     1       2.976   6.342  19.101  0.00  0.00    +0.000 A 
ATOM      4  C   UNL     1       2.658   7.623  18.665  0.00  0.00    +0.000 A 
ATOM      5  C   UNL     1       1.714   8.185  19.562  0.00  0.00    +0.000 A 
ATOM      6  C   UNL     1       1.053   9.429  19.627  0.00  0.00    +0.000 A 
ATOM      7  C   UNL     1       0.169   9.690  20.674  0.00  0.00    +0.000 A 
ATOM      8  C   UNL     1      -0.049   8.730  21.656  0.00  0.00    +0.000 A 
ATOM      9  C   UNL     1       0.598   7.495  21.622  0.00  0.00    +0.000 A 
ATOM     10  C   UNL     1       1.486   7.238  20.560  0.00  0.00    +0.000 A 
ATOM     11  C   UNL     1       3.254   8.250  17.451  0.00  0.00    +0.000 C 
ATOM     12  C   UNL     1       4.598   7.603  17.096  0.00  0.00    +0.000 C 
ATOM     13  C   UNL     1       4.530   6.089  17.107  0.00  0.00    +0.000 C 
ATOM     14  C   UNL     1       4.987   5.380  16.060  0.00  0.00    +0.000 C 
ATOM     15  C   UNL     1       4.855   3.919  16.159  0.00  0.00    +0.000 C 
ATOM     16  O   UNL     1       5.747   3.173  15.770  0.00  0.00    +0.000 OA
ATOM     17  C   UNL     1       3.551   3.449  16.730  0.00  0.00    +0.000 C 
ATOM     18  C   UNL     1       3.359   4.011  18.135  0.00  0.00    +0.000 C 
ATOM     19  C   UNL     1       3.987   5.422  18.408  0.00  0.00    +0.000 C 
ATOM     20  C   UNL     1       5.234   5.272  19.318  0.00  0.00    +0.000 C 
ENDROOT
BRANCH   8  21
ATOM     21  O   UNL     1      -0.904   8.972  22.688  0.00  0.00    +0.000 OA
ATOM     22  H   UNL     1      -1.711   8.457  22.558  0.00  0.00    +0.000 HD
ENDBRANCH   8  21
TORSDOF 1
ENDMDL
MODEL 8
REMARK VINA RESULT:      -6.5      4.154      5.739
REMARK  Name = 
REMARK  3 active torsions:
REMARK  status: ('A' for Active; 'I' for Inactive)
REMARK    1  A    between atoms: C_1  and  N_2
REMARK    2  A    between atoms: C_8  and  O_9
REMARK    3  A    between atoms: C_20  and  C_21
REMARK                            x       y       z     vdW  Elec       q    Type
REMARK                         _______ _______ _______ _____ _____    ______ ____
ROOT
ATOM      1  C   UNL     1       3.577   7.380  16.736  0.00  0.00    +0.000 C 
ATOM      2  N   UNL     1       2.854   7.414  17.990  0.00  0.00    +0.000 N 
ATOM      3  C   UNL     1       2.608   6.373  18.865  0.00  0.00    +0.000 A 
ATOM      4  C   UNL     1       1.808   6.879  19.882  0.00  0.00    +0.000 A 
ATOM      5  C   UNL     1       1.597   8.262  19.646  0.00  0.00    +0.000 A 
ATOM      6  C   UNL     1       0.880   9.269  20.326  0.00  0.00    +0.000 A 
ATOM      7  C   UNL     1       0.854  10.566  19.815  0.00  0.00    +0.000 A 
ATOM      8  C   UNL     1       1.523  10.862  18.632  0.00  0.00    +0.000 A 
ATOM      9  C   UNL     1       2.232   9.885  17.934  0.00  0.00    +0.000 A 
ATOM     10  C   UNL     1       2.258   8.578  18.459  0.00  0.00    +0.000 A 
ATOM     11  C   UNL     1       1.281   6.051  21.004  0.00  0.00    +0.000 C 
ATOM     12  C   UNL     1       1.231   4.568  20.622  0.00  0.00    +0.000 C 
ATOM     13  C   UNL     1       2.520   4.093  19.982  0.00  0.00    +0.000 C 
ATOM     14  C   UNL     1       3.133   2.982  20.430  0.00  0.00    +0.000 C 
ATOM     15  C   UNL     1       4.388   2.619  19.758  0.00  0.00    +0.000 C 
ATOM     16  O   UNL     1       4.655   1.451  19.498  0.00  0.00    +0.000 OA
ATOM     17  C   UNL     1       5.295   3.777  19.464  0.00  0.00    +0.000 C 
ATOM     18  C   UNL     1       4.585   4.787  18.568  0.00  0.00    +0.000 C 
ATOM     19  C   UNL     1       3.032   4.904  18.753  0.00  0.00    +0.000 C 
ATOM     20  C   UNL     1       2.311   4.265  17.537  0.00  0.00    +0.000 C 
ENDROOT
BRANCH   8  21
ATOM     21  O   UNL     1       1.501  12.122  18.117  0.00  0.00    +0.000 OA
ATOM     22  H   UNL     1       1.040  12.708  18.732  0.00  0.00    +0.000 HD
ENDBRANCH   8  21
TORSDOF 1
ENDMDL
MODEL 9
REMARK VINA RESULT:      -6.5      9.573     12.332
REMARK  Name = 
REMARK  3 active torsions:
REMARK  status: ('A' for Active; 'I' for Inactive)
REMARK    1  A    between atoms: C_1  and  N_2
REMARK    2  A    between atoms: C_8  and  O_9
REMARK    3  A    between atoms: C_20  and  C_21
REMARK                            x       y       z     vdW  Elec       q    Type
REMARK                         _______ _______ _______ _____ _____    ______ ____
ROOT
ATOM      1  C   UNL     1       7.539  15.418  20.515  0.00  0.00    +0.000 C 
ATOM      2  N   UNL     1       7.974  14.120  20.985  0.00  0.00    +0.000 N 
ATOM      3  C   UNL     1       8.756  13.189  20.327  0.00  0.00    +0.000 A 
ATOM      4  C   UNL     1       8.833  12.072  21.150  0.00  0.00    +0.000 A 
ATOM      5  C   UNL     1       8.121  12.341  22.347  0.00  0.00    +0.000 A 
ATOM      6  C   UNL     1       7.859  11.594  23.515  0.00  0.00    +0.000 A 
ATOM      7  C   UNL     1       7.091  12.152  24.536  0.00  0.00    +0.000 A 
ATOM      8  C   UNL     1       6.576  13.437  24.398  0.00  0.00    +0.000 A 
ATOM      9  C   UNL     1       6.810  14.194  23.251  0.00  0.00    +0.000 A 
ATOM     10  C   UNL     1       7.590  13.626  22.225  0.00  0.00    +0.000 A 
ATOM     11  C   UNL     1       9.552  10.821  20.775  0.00  0.00    +0.000 C 
ATOM     12  C   UNL     1       9.685  10.694  19.253  0.00  0.00    +0.000 C 
ATOM     13  C   UNL     1      10.178  11.974  18.608  0.00  0.00    +0.000 C 
ATOM     14  C   UNL     1      11.215  11.949  17.751  0.00  0.00    +0.000 C 
ATOM     15  C   UNL     1      11.630  13.246  17.198  0.00  0.00    +0.000 C 
ATOM     16  O   UNL     1      11.958  13.360  16.022  0.00  0.00    +0.000 OA
ATOM     17  C   UNL     1      11.647  14.370  18.191  0.00  0.00    +0.000 C 
ATOM     18  C   UNL     1      10.258  14.564  18.790  0.00  0.00    +0.000 C 
ATOM     19  C   UNL     1       9.377  13.274  18.929  0.00  0.00    +0.000 C 
ATOM     20  C   UNL     1       8.240  13.300  17.875  0.00  0.00    +0.000 C 
ENDROOT
BRANCH   8  21
ATOM     21  O   UNL     1       5.818  13.992  25.383  0.00  0.00    +0.000 OA
ATOM     22  H   UNL     1       5.988  14.944  25.415  0.00  0.00    +0.000 HD
ENDBRANCH   8  21
TORSDOF 1
ENDMDL
