MODEL 1
REMARK VINA RESULT:      -8.0      0.000      0.000
REMARK  Name = 
REMARK  12 active torsions:
REMARK  status: ('A' for Active; 'I' for Inactive)
REMARK    1  A    between atoms: C_1  and  C_2
REMARK    2  A    between atoms: C_2  and  O_3
REMARK    3  A    between atoms: O_3  and  C_4
REMARK    4  A    between atoms: C_7  and  C_8
REMARK    5  A    between atoms: C_8  and  C_9
REMARK    6  A    between atoms: C_9  and  N_10
REMARK    7  A    between atoms: C_11  and  C_13
REMARK    8  A    between atoms: C_17  and  C_18
REMARK    9  A    between atoms: C_18  and  C_20
REMARK   10  A    between atoms: C_28  and  O_29
REMARK   11  A    between atoms: O_29  and  C_30
REMARK   12  A    between atoms: C_30  and  C_31
REMARK                            x       y       z     vdW  Elec       q    Type
REMARK                         _______ _______ _______ _____ _____    ______ ____
ROOT
ATOM      1  N   UNL     1       0.144   9.671  17.797  0.00  0.00    +0.000 N 
ATOM      2  C   UNL     1      -0.976  10.190  18.415  0.00  0.00    +0.000 C 
ATOM      3  O   UNL     1      -1.016  10.465  19.613  0.00  0.00    +0.000 OA
ATOM      4  H   UNL     1       0.204   9.660  16.789  0.00  0.00    +0.000 HD
ENDROOT
BRANCH   2   5
ATOM      5  C   UNL     1      -2.175  10.446  17.572  0.00  0.00    +0.000 A 
ATOM      6  C   UNL     1      -2.175   9.984  16.248  0.00  0.00    +0.000 A 
ATOM      7  C   UNL     1      -3.253  10.252  15.404  0.00  0.00    +0.000 A 
ATOM      8  C   UNL     1      -4.342  10.984  15.878  0.00  0.00    +0.000 A 
ATOM      9  C   UNL     1      -4.355  11.441  17.201  0.00  0.00    +0.000 A 
ATOM     10  C   UNL     1      -3.261  11.192  18.044  0.00  0.00    +0.000 A 
BRANCH   9  11
ATOM     11  C   UNL     1      -5.533  12.225  17.663  0.00  0.00    +0.000 C 
ATOM     12  O   UNL     1      -6.034  13.057  16.916  0.00  0.00    +0.000 OA
BRANCH  11  13
ATOM     13  C   UNL     1      -6.109  12.015  19.019  0.00  0.00    +0.000 A 
ATOM     14  C   UNL     1      -5.809  12.879  20.080  0.00  0.00    +0.000 A 
ATOM     15  C   UNL     1      -6.404  12.689  21.327  0.00  0.00    +0.000 A 
ATOM     16  C   UNL     1      -7.270  11.615  21.527  0.00  0.00    +0.000 A 
ATOM     17  C   UNL     1      -7.533  10.723  20.488  0.00  0.00    +0.000 A 
ATOM     18  C   UNL     1      -6.952  10.919  19.234  0.00  0.00    +0.000 A 
ENDBRANCH  11  13
ENDBRANCH   9  11
ENDBRANCH   2   5
BRANCH   1  19
ATOM     19  C   UNL     1       1.339   9.414  18.592  0.00  0.00    +0.000 C 
BRANCH  19  20
ATOM     20  C   UNL     1       2.481   8.797  17.788  0.00  0.00    +0.000 C 
BRANCH  20  24
ATOM     21  C   UNL     1       3.568   4.859  19.247  0.00  0.00    +0.000 A 
ATOM     22  C   UNL     1       2.633   5.651  19.929  0.00  0.00    +0.000 A 
ATOM     23  C   UNL     1       2.289   6.923  19.465  0.00  0.00    +0.000 A 
ATOM     24  C   UNL     1       2.891   7.443  18.319  0.00  0.00    +0.000 A 
ATOM     25  C   UNL     1       3.894   6.691  17.692  0.00  0.00    +0.000 A 
ATOM     26  C   UNL     1       4.262   5.416  18.160  0.00  0.00    +0.000 A 
BRANCH  21  27
ATOM     27  O   UNL     1       3.807   3.552  19.592  0.00  0.00    +0.000 OA
BRANCH  27  29
ATOM     28  C   UNL     1       2.331   2.246  18.217  0.00  0.00    +0.000 C 
ATOM     29  C   UNL     1       2.660   2.695  19.628  0.00  0.00    +0.000 C 
ENDBRANCH  27  29
ENDBRANCH  21  27
BRANCH  26  30
ATOM     30  O   UNL     1       5.269   4.843  17.422  0.00  0.00    +0.000 OA
BRANCH  30  31
ATOM     31  C   UNL     1       4.898   4.152  16.229  0.00  0.00    +0.000 C 
ATOM     32  C   UNL     1       5.798   4.625  15.095  0.00  0.00    +0.000 C 
ENDBRANCH  30  31
ENDBRANCH  26  30
ENDBRANCH  20  24
ENDBRANCH  19  20
ENDBRANCH   1  19
TORSDOF 10
ENDMDL
MODEL 2
REMARK VINA RESULT:      -8.0      7.513     11.100
REMARK  Name = 
REMARK  12 active torsions:
REMARK  status: ('A' for Active; 'I' for Inactive)
REMARK    1  A    between atoms: C_1  and  C_2
REMARK    2  A    between atoms: C_2  and  O_3
REMARK    3  A    between atoms: O_3  and  C_4
REMARK    4  A    between atoms: C_7  and  C_8
REMARK    5  A    between atoms: C_8  and  C_9
REMARK    6  A    between atoms: C_9  and  N_10
REMARK    7  A    between atoms: C_11  and  C_13
REMARK    8  A    between atoms: C_17  and  C_18
REMARK    9  A    between atoms: C_18  and  C_20
REMARK   10  A    between atoms: C_28  and  O_29
REMARK   11  A    between atoms: O_29  and  C_30
REMARK   12  A    between atoms: C_30  and  C_31
REMARK                            x       y       z     vdW  Elec       q    Type
REMARK                         _______ _______ _______ _____ _____    ______ ____
ROOT
ATOM      1  N   UNL     1       7.458   7.657  17.527  0.00  0.00    +0.000 N 
ATOM      2  C   UNL     1       7.342   6.393  18.069  0.00  0.00    +0.000 C 
ATOM      3  O   UNL     1       7.859   6.069  19.136  0.00  0.00    +0.000 OA
ATOM      4  H   UNL     1       6.851   7.939  16.770  0.00  0.00    +0.000 HD
ENDROOT
BRANCH   2   5
ATOM      5  C   UNL     1       6.526   5.394  17.326  0.00  0.00    +0.000 A 
ATOM      6  C   UNL     1       7.014   4.903  16.107  0.00  0.00    +0.000 A 
ATOM      7  C   UNL     1       6.256   4.010  15.349  0.00  0.00    +0.000 A 
ATOM      8  C   UNL     1       5.004   3.598  15.806  0.00  0.00    +0.000 A 
ATOM      9  C   UNL     1       4.513   4.076  17.027  0.00  0.00    +0.000 A 
ATOM     10  C   UNL     1       5.264   4.992  17.779  0.00  0.00    +0.000 A 
BRANCH   9  11
ATOM     11  C   UNL     1       3.169   3.617  17.473  0.00  0.00    +0.000 C 
ATOM     12  O   UNL     1       2.348   3.258  16.637  0.00  0.00    +0.000 OA
BRANCH  11  13
ATOM     13  C   UNL     1       2.808   3.590  18.915  0.00  0.00    +0.000 A 
ATOM     14  C   UNL     1       1.982   4.572  19.478  0.00  0.00    +0.000 A 
ATOM     15  C   UNL     1       1.617   4.493  20.822  0.00  0.00    +0.000 A 
ATOM     16  C   UNL     1       2.106   3.457  21.615  0.00  0.00    +0.000 A 
ATOM     17  C   UNL     1       2.970   2.506  21.073  0.00  0.00    +0.000 A 
ATOM     18  C   UNL     1       3.324   2.572  19.724  0.00  0.00    +0.000 A 
ENDBRANCH  11  13
ENDBRANCH   9  11
ENDBRANCH   2   5
BRANCH   1  19
ATOM     19  C   UNL     1       8.244   8.663  18.231  0.00  0.00    +0.000 C 
BRANCH  19  20
ATOM     20  C   UNL     1       8.403   9.965  17.450  0.00  0.00    +0.000 C 
BRANCH  20  24
ATOM     21  C   UNL     1      10.367  13.068  19.759  0.00  0.00    +0.000 A 
ATOM     22  C   UNL     1      10.323  11.743  20.217  0.00  0.00    +0.000 A 
ATOM     23  C   UNL     1       9.683  10.745  19.479  0.00  0.00    +0.000 A 
ATOM     24  C   UNL     1       9.050  11.053  18.274  0.00  0.00    +0.000 A 
ATOM     25  C   UNL     1       9.012  12.393  17.865  0.00  0.00    +0.000 A 
ATOM     26  C   UNL     1       9.637  13.411  18.609  0.00  0.00    +0.000 A 
BRANCH  21  27
ATOM     27  O   UNL     1      11.118  14.031  20.385  0.00  0.00    +0.000 OA
BRANCH  27  29
ATOM     28  C   UNL     1      10.936  16.202  21.400  0.00  0.00    +0.000 C 
ATOM     29  C   UNL     1      10.458  14.762  21.424  0.00  0.00    +0.000 C 
ENDBRANCH  27  29
ENDBRANCH  21  27
BRANCH  26  30
ATOM     30  O   UNL     1       9.480  14.657  18.053  0.00  0.00    +0.000 OA
BRANCH  30  31
ATOM     31  C   UNL     1       8.146  15.135  17.876  0.00  0.00    +0.000 C 
ATOM     32  C   UNL     1       7.756  15.945  19.105  0.00  0.00    +0.000 C 
ENDBRANCH  30  31
ENDBRANCH  26  30
ENDBRANCH  20  24
ENDBRANCH  19  20
ENDBRANCH   1  19
TORSDOF 10
ENDMDL
MODEL 3
REMARK VINA RESULT:      -7.9      2.636      5.005
REMARK  Name = 
REMARK  12 active torsions:
REMARK  status: ('A' for Active; 'I' for Inactive)
REMARK    1  A    between atoms: C_1  and  C_2
REMARK    2  A    between atoms: C_2  and  O_3
REMARK    3  A    between atoms: O_3  and  C_4
REMARK    4  A    between atoms: C_7  and  C_8
REMARK    5  A    between atoms: C_8  and  C_9
REMARK    6  A    between atoms: C_9  and  N_10
REMARK    7  A    between atoms: C_11  and  C_13
REMARK    8  A    between atoms: C_17  and  C_18
REMARK    9  A    between atoms: C_18  and  C_20
REMARK   10  A    between atoms: C_28  and  O_29
REMARK   11  A    between atoms: O_29  and  C_30
REMARK   12  A    between atoms: C_30  and  C_31
REMARK                            x       y       z     vdW  Elec       q    Type
REMARK                         _______ _______ _______ _____ _____    ______ ____
ROOT
ATOM      1  N   UNL     1       1.978   6.606  20.671  0.00  0.00    +0.000 N 
ATOM      2  C   UNL     1       1.858   7.836  20.056  0.00  0.00    +0.000 C 
ATOM      3  O   UNL     1       2.409   8.113  18.992  0.00  0.00    +0.000 OA
ATOM      4  H   UNL     1       1.348   6.353  21.419  0.00  0.00    +0.000 HD
ENDROOT
BRANCH   2   5
ATOM      5  C   UNL     1       0.995   8.856  20.711  0.00  0.00    +0.000 A 
ATOM      6  C   UNL     1       0.830   8.799  22.102  0.00  0.00    +0.000 A 
ATOM      7  C   UNL     1      -0.017   9.700  22.752  0.00  0.00    +0.000 A 
ATOM      8  C   UNL     1      -0.702  10.665  22.015  0.00  0.00    +0.000 A 
ATOM      9  C   UNL     1      -0.535  10.735  20.627  0.00  0.00    +0.000 A 
ATOM     10  C   UNL     1       0.297   9.816  19.970  0.00  0.00    +0.000 A 
BRANCH   9  11
ATOM     11  C   UNL     1      -1.292  11.776  19.879  0.00  0.00    +0.000 C 
ATOM     12  O   UNL     1      -1.207  12.948  20.227  0.00  0.00    +0.000 OA
BRANCH  11  13
ATOM     13  C   UNL     1      -2.150  11.414  18.719  0.00  0.00    +0.000 A 
ATOM     14  C   UNL     1      -1.649  10.663  17.648  0.00  0.00    +0.000 A 
ATOM     15  C   UNL     1      -2.490  10.293  16.599  0.00  0.00    +0.000 A 
ATOM     16  C   UNL     1      -3.821  10.703  16.598  0.00  0.00    +0.000 A 
ATOM     17  C   UNL     1      -4.313  11.494  17.637  0.00  0.00    +0.000 A 
ATOM     18  C   UNL     1      -3.478  11.853  18.697  0.00  0.00    +0.000 A 
ENDBRANCH  11  13
ENDBRANCH   9  11
ENDBRANCH   2   5
BRANCH   1  19
ATOM     19  C   UNL     1       2.810   5.581  20.052  0.00  0.00    +0.000 C 
BRANCH  19  20
ATOM     20  C   UNL     1       2.497   5.357  18.575  0.00  0.00    +0.000 C 
BRANCH  20  24
ATOM     21  C   UNL     1       5.997   4.554  16.141  0.00  0.00    +0.000 A 
ATOM     22  C   UNL     1       5.078   3.539  16.445  0.00  0.00    +0.000 A 
ATOM     23  C   UNL     1       3.956   3.794  17.236  0.00  0.00    +0.000 A 
ATOM     24  C   UNL     1       3.738   5.067  17.763  0.00  0.00    +0.000 A 
ATOM     25  C   UNL     1       4.705   6.057  17.538  0.00  0.00    +0.000 A 
ATOM     26  C   UNL     1       5.849   5.807  16.758  0.00  0.00    +0.000 A 
BRANCH  21  27
ATOM     27  O   UNL     1       7.019   4.368  15.244  0.00  0.00    +0.000 OA
BRANCH  27  29
ATOM     28  C   UNL     1       6.176   3.677  13.102  0.00  0.00    +0.000 C 
ATOM     29  C   UNL     1       6.768   4.818  13.908  0.00  0.00    +0.000 C 
ENDBRANCH  27  29
ENDBRANCH  21  27
BRANCH  26  30
ATOM     30  O   UNL     1       6.683   6.894  16.664  0.00  0.00    +0.000 OA
BRANCH  30  31
ATOM     31  C   UNL     1       7.594   7.120  17.740  0.00  0.00    +0.000 C 
ATOM     32  C   UNL     1       7.943   8.602  17.776  0.00  0.00    +0.000 C 
ENDBRANCH  30  31
ENDBRANCH  26  30
ENDBRANCH  20  24
ENDBRANCH  19  20
ENDBRANCH   1  19
TORSDOF 10
ENDMDL
MODEL 4
REMARK VINA RESULT:      -7.7      3.823      5.878
REMARK  Name = 
REMARK  12 active torsions:
REMARK  status: ('A' for Active; 'I' for Inactive)
REMARK    1  A    between atoms: C_1  and  C_2
REMARK    2  A    between atoms: C_2  and  O_3
REMARK    3  A    between atoms: O_3  and  C_4
REMARK    4  A    between atoms: C_7  and  C_8
REMARK    5  A    between atoms: C_8  and  C_9
REMARK    6  A    between atoms: C_9  and  N_10
REMARK    7  A    between atoms: C_11  and  C_13
REMARK    8  A    between atoms: C_17  and  C_18
REMARK    9  A    between atoms: C_18  and  C_20
REMARK   10  A    between atoms: C_28  and  O_29
REMARK   11  A    between atoms: O_29  and  C_30
REMARK   12  A    between atoms: C_30  and  C_31
REMARK                            x       y       z     vdW  Elec       q    Type
REMARK                         _______ _______ _______ _____ _____    ______ ____
ROOT
ATOM      1  N   UNL     1       2.224   4.654  18.735  0.00  0.00    +0.000 N 
ATOM      2  C   UNL     1       2.225   5.554  19.782  0.00  0.00    +0.000 C 
ATOM      3  O   UNL     1       2.462   5.232  20.944  0.00  0.00    +0.000 OA
ATOM      4  H   UNL     1       2.237   4.989  17.782  0.00  0.00    +0.000 HD
ENDROOT
BRANCH   2   5
ATOM      5  C   UNL     1       1.951   6.982  19.466  0.00  0.00    +0.000 A 
ATOM      6  C   UNL     1       2.215   7.445  18.170  0.00  0.00    +0.000 A 
ATOM      7  C   UNL     1       2.028   8.790  17.846  0.00  0.00    +0.000 A 
ATOM      8  C   UNL     1       1.573   9.682  18.816  0.00  0.00    +0.000 A 
ATOM      9  C   UNL     1       1.297   9.227  20.111  0.00  0.00    +0.000 A 
ATOM     10  C   UNL     1       1.507   7.879  20.444  0.00  0.00    +0.000 A 
BRANCH   9  11
ATOM     11  C   UNL     1       0.820  10.214  21.118  0.00  0.00    +0.000 C 
ATOM     12  O   UNL     1       0.948   9.966  22.311  0.00  0.00    +0.000 OA
BRANCH  11  13
ATOM     13  C   UNL     1       0.189  11.493  20.696  0.00  0.00    +0.000 A 
ATOM     14  C   UNL     1       0.935  12.673  20.589  0.00  0.00    +0.000 A 
ATOM     15  C   UNL     1       0.329  13.847  20.141  0.00  0.00    +0.000 A 
ATOM     16  C   UNL     1      -1.031  13.853  19.836  0.00  0.00    +0.000 A 
ATOM     17  C   UNL     1      -1.790  12.693  19.989  0.00  0.00    +0.000 A 
ATOM     18  C   UNL     1      -1.183  11.512  20.422  0.00  0.00    +0.000 A 
ENDBRANCH  11  13
ENDBRANCH   9  11
ENDBRANCH   2   5
BRANCH   1  19
ATOM     19  C   UNL     1       2.496   3.248  19.007  0.00  0.00    +0.000 C 
BRANCH  19  20
ATOM     20  C   UNL     1       3.753   2.728  18.312  0.00  0.00    +0.000 C 
BRANCH  20  24
ATOM     21  C   UNL     1       6.749   5.783  17.601  0.00  0.00    +0.000 A 
ATOM     22  C   UNL     1       6.408   5.394  18.904  0.00  0.00    +0.000 A 
ATOM     23  C   UNL     1       5.437   4.417  19.135  0.00  0.00    +0.000 A 
ATOM     24  C   UNL     1       4.766   3.822  18.066  0.00  0.00    +0.000 A 
ATOM     25  C   UNL     1       5.039   4.279  16.769  0.00  0.00    +0.000 A 
ATOM     26  C   UNL     1       6.002   5.275  16.525  0.00  0.00    +0.000 A 
BRANCH  21  27
ATOM     27  O   UNL     1       7.804   6.624  17.344  0.00  0.00    +0.000 OA
BRANCH  27  29
ATOM     28  C   UNL     1       8.448   8.725  18.315  0.00  0.00    +0.000 C 
ATOM     29  C   UNL     1       7.505   8.024  17.357  0.00  0.00    +0.000 C 
ENDBRANCH  27  29
ENDBRANCH  21  27
BRANCH  26  30
ATOM     30  O   UNL     1       6.118   5.596  15.195  0.00  0.00    +0.000 OA
BRANCH  30  31
ATOM     31  C   UNL     1       6.992   4.795  14.399  0.00  0.00    +0.000 C 
ATOM     32  C   UNL     1       6.145   3.887  13.516  0.00  0.00    +0.000 C 
ENDBRANCH  30  31
ENDBRANCH  26  30
ENDBRANCH  20  24
ENDBRANCH  19  20
ENDBRANCH   1  19
TORSDOF 10
ENDMDL
MODEL 5
REMARK VINA RESULT:      -7.6      7.403     11.069
REMARK  Name = 
REMARK  12 active torsions:
REMARK  status: ('A' for Active; 'I' for Inactive)
REMARK    1  A    between atoms: C_1  and  C_2
REMARK    2  A    between atoms: C_2  and  O_3
REMARK    3  A    between atoms: O_3  and  C_4
REMARK    4  A    between atoms: C_7  and  C_8
REMARK    5  A    between atoms: C_8  and  C_9
REMARK    6  A    between atoms: C_9  and  N_10
REMARK    7  A    between atoms: C_11  and  C_13
REMARK    8  A    between atoms: C_17  and  C_18
REMARK    9  A    between atoms: C_18  and  C_20
REMARK   10  A    between atoms: C_28  and  O_29
REMARK   11  A    between atoms: O_29  and  C_30
REMARK   12  A    between atoms: C_30  and  C_31
REMARK                            x       y       z     vdW  Elec       q    Type
REMARK                         _______ _______ _______ _____ _____    ______ ____
ROOT
ATOM      1  N   UNL     1       7.526   7.738  17.687  0.00  0.00    +0.000 N 
ATOM      2  C   UNL     1       7.456   6.433  18.131  0.00  0.00    +0.000 C 
ATOM      3  O   UNL     1       8.026   6.036  19.146  0.00  0.00    +0.000 OA
ATOM      4  H   UNL     1       6.880   8.066  16.982  0.00  0.00    +0.000 HD
ENDROOT
BRANCH   2   5
ATOM      5  C   UNL     1       6.625   5.479  17.347  0.00  0.00    +0.000 A 
ATOM      6  C   UNL     1       7.109   5.027  16.112  0.00  0.00    +0.000 A 
ATOM      7  C   UNL     1       6.338   4.178  15.316  0.00  0.00    +0.000 A 
ATOM      8  C   UNL     1       5.076   3.773  15.752  0.00  0.00    +0.000 A 
ATOM      9  C   UNL     1       4.589   4.211  16.989  0.00  0.00    +0.000 A 
ATOM     10  C   UNL     1       5.354   5.084  17.779  0.00  0.00    +0.000 A 
BRANCH   9  11
ATOM     11  C   UNL     1       3.235   3.761  17.412  0.00  0.00    +0.000 C 
ATOM     12  O   UNL     1       2.429   3.396  16.563  0.00  0.00    +0.000 OA
BRANCH  11  13
ATOM     13  C   UNL     1       2.845   3.749  18.847  0.00  0.00    +0.000 A 
ATOM     14  C   UNL     1       3.250   2.717  19.704  0.00  0.00    +0.000 A 
ATOM     15  C   UNL     1       2.914   2.759  21.057  0.00  0.00    +0.000 A 
ATOM     16  C   UNL     1       2.142   3.810  21.550  0.00  0.00    +0.000 A 
ATOM     17  C   UNL     1       1.694   4.813  20.691  0.00  0.00    +0.000 A 
ATOM     18  C   UNL     1       2.042   4.784  19.339  0.00  0.00    +0.000 A 
ENDBRANCH  11  13
ENDBRANCH   9  11
ENDBRANCH   2   5
BRANCH   1  19
ATOM     19  C   UNL     1       8.325   8.701  18.435  0.00  0.00    +0.000 C 
BRANCH  19  20
ATOM     20  C   UNL     1       8.854   9.847  17.576  0.00  0.00    +0.000 C 
BRANCH  20  24
ATOM     21  C   UNL     1       9.677  13.456  19.836  0.00  0.00    +0.000 A 
ATOM     22  C   UNL     1      10.010  12.193  20.345  0.00  0.00    +0.000 A 
ATOM     23  C   UNL     1       9.737  11.029  19.622  0.00  0.00    +0.000 A 
ATOM     24  C   UNL     1       9.102  11.101  18.381  0.00  0.00    +0.000 A 
ATOM     25  C   UNL     1       8.685  12.356  17.917  0.00  0.00    +0.000 A 
ATOM     26  C   UNL     1       8.938  13.534  18.644  0.00  0.00    +0.000 A 
BRANCH  21  27
ATOM     27  O   UNL     1      10.072  14.617  20.453  0.00  0.00    +0.000 OA
BRANCH  27  29
ATOM     28  C   UNL     1      11.774  16.257  20.890  0.00  0.00    +0.000 C 
ATOM     29  C   UNL     1      11.211  15.272  19.883  0.00  0.00    +0.000 C 
ENDBRANCH  27  29
ENDBRANCH  21  27
BRANCH  26  30
ATOM     30  O   UNL     1       8.443  14.659  18.033  0.00  0.00    +0.000 OA
BRANCH  30  31
ATOM     31  C   UNL     1       7.274  15.255  18.598  0.00  0.00    +0.000 C 
ATOM     32  C   UNL     1       6.058  14.758  17.828  0.00  0.00    +0.000 C 
ENDBRANCH  30  31
ENDBRANCH  26  30
ENDBRANCH  20  24
ENDBRANCH  19  20
ENDBRANCH   1  19
TORSDOF 10
ENDMDL
MODEL 6
REMARK VINA RESULT:      -7.6      7.429     10.878
REMARK  Name = 
REMARK  12 active torsions:
REMARK  status: ('A' for Active; 'I' for Inactive)
REMARK    1  A    between atoms: C_1  and  C_2
REMARK    2  A    between atoms: C_2  and  O_3
REMARK    3  A    between atoms: O_3  and  C_4
REMARK    4  A    between atoms: C_7  and  C_8
REMARK    5  A    between atoms: C_8  and  C_9
REMARK    6  A    between atoms: C_9  and  N_10
REMARK    7  A    between atoms: C_11  and  C_13
REMARK    8  A    between atoms: C_17  and  C_18
REMARK    9  A    between atoms: C_18  and  C_20
REMARK   10  A    between atoms: C_28  and  O_29
REMARK   11  A    between atoms: O_29  and  C_30
REMARK   12  A    between atoms: C_30  and  C_31
REMARK                            x       y       z     vdW  Elec       q    Type
REMARK                         _______ _______ _______ _____ _____    ______ ____
ROOT
ATOM      1  N   UNL     1       7.519   7.945  17.605  0.00  0.00    +0.000 N 
ATOM      2  C   UNL     1       7.458   6.681  18.158  0.00  0.00    +0.000 C 
ATOM      3  O   UNL     1       8.222   6.295  19.040  0.00  0.00    +0.000 OA
ATOM      4  H   UNL     1       6.750   8.288  17.046  0.00  0.00    +0.000 HD
ENDROOT
BRANCH   2   5
ATOM      5  C   UNL     1       6.393   5.763  17.669  0.00  0.00    +0.000 A 
ATOM      6  C   UNL     1       6.714   4.839  16.665  0.00  0.00    +0.000 A 
ATOM      7  C   UNL     1       5.732   3.999  16.135  0.00  0.00    +0.000 A 
ATOM      8  C   UNL     1       4.423   4.075  16.608  0.00  0.00    +0.000 A 
ATOM      9  C   UNL     1       4.095   4.989  17.618  0.00  0.00    +0.000 A 
ATOM     10  C   UNL     1       5.076   5.850  18.134  0.00  0.00    +0.000 A 
BRANCH   9  11
ATOM     11  C   UNL     1       2.684   5.043  18.087  0.00  0.00    +0.000 C 
ATOM     12  O   UNL     1       1.886   5.774  17.512  0.00  0.00    +0.000 OA
BRANCH  11  13
ATOM     13  C   UNL     1       2.230   4.226  19.245  0.00  0.00    +0.000 A 
ATOM     14  C   UNL     1       2.730   4.449  20.534  0.00  0.00    +0.000 A 
ATOM     15  C   UNL     1       2.248   3.704  21.610  0.00  0.00    +0.000 A 
ATOM     16  C   UNL     1       1.295   2.710  21.396  0.00  0.00    +0.000 A 
ATOM     17  C   UNL     1       0.831   2.450  20.107  0.00  0.00    +0.000 A 
ATOM     18  C   UNL     1       1.299   3.205  19.029  0.00  0.00    +0.000 A 
ENDBRANCH  11  13
ENDBRANCH   9  11
ENDBRANCH   2   5
BRANCH   1  19
ATOM     19  C   UNL     1       8.545   8.872  18.066  0.00  0.00    +0.000 C 
BRANCH  19  20
ATOM     20  C   UNL     1       8.376  10.285  17.513  0.00  0.00    +0.000 C 
BRANCH  20  24
ATOM     21  C   UNL     1      10.305  13.249  20.025  0.00  0.00    +0.000 A 
ATOM     22  C   UNL     1      10.096  11.940  20.481  0.00  0.00    +0.000 A 
ATOM     23  C   UNL     1       9.467  10.987  19.677  0.00  0.00    +0.000 A 
ATOM     24  C   UNL     1       9.010  11.329  18.403  0.00  0.00    +0.000 A 
ATOM     25  C   UNL     1       9.134  12.661  17.986  0.00  0.00    +0.000 A 
ATOM     26  C   UNL     1       9.749  13.634  18.794  0.00  0.00    +0.000 A 
BRANCH  21  27
ATOM     27  O   UNL     1      11.055  14.156  20.732  0.00  0.00    +0.000 OA
BRANCH  27  29
ATOM     28  C   UNL     1      10.903  16.318  21.772  0.00  0.00    +0.000 C 
ATOM     29  C   UNL     1      10.353  14.905  21.731  0.00  0.00    +0.000 C 
ENDBRANCH  27  29
ENDBRANCH  21  27
BRANCH  26  30
ATOM     30  O   UNL     1       9.765  14.881  18.217  0.00  0.00    +0.000 OA
BRANCH  30  31
ATOM     31  C   UNL     1       8.509  15.535  18.031  0.00  0.00    +0.000 C 
ATOM     32  C   UNL     1       8.440  16.728  18.976  0.00  0.00    +0.000 C 
ENDBRANCH  30  31
ENDBRANCH  26  30
ENDBRANCH  20  24
ENDBRANCH  19  20
ENDBRANCH   1  19
TORSDOF 10
ENDMDL
MODEL 7
REMARK VINA RESULT:      -7.6      8.006     10.470
REMARK  Name = 
REMARK  12 active torsions:
REMARK  status: ('A' for Active; 'I' for Inactive)
REMARK    1  A    between atoms: C_1  and  C_2
REMARK    2  A    between atoms: C_2  and  O_3
REMARK    3  A    between atoms: O_3  and  C_4
REMARK    4  A    between atoms: C_7  and  C_8
REMARK    5  A    between atoms: C_8  and  C_9
REMARK    6  A    between atoms: C_9  and  N_10
REMARK    7  A    between atoms: C_11  and  C_13
REMARK    8  A    between atoms: C_17  and  C_18
REMARK    9  A    between atoms: C_18  and  C_20
REMARK   10  A    between atoms: C_28  and  O_29
REMARK   11  A    between atoms: O_29  and  C_30
REMARK   12  A    between atoms: C_30  and  C_31
REMARK                            x       y       z     vdW  Elec       q    Type
REMARK                         _______ _______ _______ _____ _____    ______ ____
ROOT
ATOM      1  N   UNL     1       8.797   8.681  18.805  0.00  0.00    +0.000 N 
ATOM      2  C   UNL     1       8.721  10.007  18.429  0.00  0.00    +0.000 C 
ATOM      3  O   UNL     1       7.981  10.411  17.535  0.00  0.00    +0.000 OA
ATOM      4  H   UNL     1       9.250   8.428  19.672  0.00  0.00    +0.000 HD
ENDROOT
BRANCH   2   5
ATOM      5  C   UNL     1       9.563  10.986  19.170  0.00  0.00    +0.000 A 
ATOM      6  C   UNL     1      10.924  11.078  18.848  0.00  0.00    +0.000 A 
ATOM      7  C   UNL     1      11.763  11.940  19.557  0.00  0.00    +0.000 A 
ATOM      8  C   UNL     1      11.245  12.717  20.593  0.00  0.00    +0.000 A 
ATOM      9  C   UNL     1       9.885  12.638  20.916  0.00  0.00    +0.000 A 
ATOM     10  C   UNL     1       9.045  11.755  20.218  0.00  0.00    +0.000 A 
BRANCH   9  11
ATOM     11  C   UNL     1       9.376  13.480  22.033  0.00  0.00    +0.000 C 
ATOM     12  O   UNL     1       9.917  14.553  22.273  0.00  0.00    +0.000 OA
BRANCH  11  13
ATOM     13  C   UNL     1       8.225  13.036  22.863  0.00  0.00    +0.000 A 
ATOM     14  C   UNL     1       8.308  11.897  23.674  0.00  0.00    +0.000 A 
ATOM     15  C   UNL     1       7.231  11.534  24.483  0.00  0.00    +0.000 A 
ATOM     16  C   UNL     1       6.057  12.284  24.456  0.00  0.00    +0.000 A 
ATOM     17  C   UNL     1       5.951  13.390  23.612  0.00  0.00    +0.000 A 
ATOM     18  C   UNL     1       7.033  13.767  22.813  0.00  0.00    +0.000 A 
ENDBRANCH  11  13
ENDBRANCH   9  11
ENDBRANCH   2   5
BRANCH   1  19
ATOM     19  C   UNL     1       7.981   7.696  18.105  0.00  0.00    +0.000 C 
BRANCH  19  20
ATOM     20  C   UNL     1       7.957   6.332  18.789  0.00  0.00    +0.000 C 
BRANCH  20  24
ATOM     21  C   UNL     1       4.465   4.063  17.575  0.00  0.00    +0.000 A 
ATOM     22  C   UNL     1       4.539   4.653  18.845  0.00  0.00    +0.000 A 
ATOM     23  C   UNL     1       5.667   5.376  19.241  0.00  0.00    +0.000 A 
ATOM     24  C   UNL     1       6.759   5.506  18.382  0.00  0.00    +0.000 A 
ATOM     25  C   UNL     1       6.723   4.837  17.151  0.00  0.00    +0.000 A 
ATOM     26  C   UNL     1       5.601   4.091  16.748  0.00  0.00    +0.000 A 
BRANCH  21  27
ATOM     27  O   UNL     1       3.313   3.483  17.107  0.00  0.00    +0.000 OA
BRANCH  27  29
ATOM     28  C   UNL     1       1.534   2.538  18.418  0.00  0.00    +0.000 C 
ATOM     29  C   UNL     1       2.115   3.806  17.821  0.00  0.00    +0.000 C 
ENDBRANCH  27  29
ENDBRANCH  21  27
BRANCH  26  30
ATOM     30  O   UNL     1       5.760   3.501  15.518  0.00  0.00    +0.000 OA
BRANCH  30  31
ATOM     31  C   UNL     1       6.517   4.215  14.540  0.00  0.00    +0.000 C 
ATOM     32  C   UNL     1       6.107   3.723  13.158  0.00  0.00    +0.000 C 
ENDBRANCH  30  31
ENDBRANCH  26  30
ENDBRANCH  20  24
ENDBRANCH  19  20
ENDBRANCH   1  19
TORSDOF 10
ENDMDL
MODEL 8
REMARK VINA RESULT:      -7.5      3.441     10.753
REMARK  Name = 
REMARK  12 active torsions:
REMARK  status: ('A' for Active; 'I' for Inactive)
REMARK    1  A    between atoms: C_1  and  C_2
REMARK    2  A    between atoms: C_2  and  O_3
REMARK    3  A    between atoms: O_3  and  C_4
REMARK    4  A    between atoms: C_7  and  C_8
REMARK    5  A    between atoms: C_8  and  C_9
REMARK    6  A    between atoms: C_9  and  N_10
REMARK    7  A    between atoms: C_11  and  C_13
REMARK    8  A    between atoms: C_17  and  C_18
REMARK    9  A    between atoms: C_18  and  C_20
REMARK   10  A    between atoms: C_28  and  O_29
REMARK   11  A    between atoms: O_29  and  C_30
REMARK   12  A    between atoms: C_30  and  C_31
REMARK                            x       y       z     vdW  Elec       q    Type
REMARK                         _______ _______ _______ _____ _____    ______ ____
ROOT
ATOM      1  N   UNL     1       1.911   6.530  20.135  0.00  0.00    +0.000 N 
ATOM      2  C   UNL     1       1.610   5.187  20.017  0.00  0.00    +0.000 C 
ATOM      3  O   UNL     1       0.781   4.620  20.726  0.00  0.00    +0.000 OA
ATOM      4  H   UNL     1       2.431   6.995  19.404  0.00  0.00    +0.000 HD
ENDROOT
BRANCH   2   5
ATOM      5  C   UNL     1       2.312   4.411  18.959  0.00  0.00    +0.000 A 
ATOM      6  C   UNL     1       1.842   3.127  18.647  0.00  0.00    +0.000 A 
ATOM      7  C   UNL     1       2.505   2.341  17.703  0.00  0.00    +0.000 A 
ATOM      8  C   UNL     1       3.642   2.834  17.062  0.00  0.00    +0.000 A 
ATOM      9  C   UNL     1       4.112   4.119  17.361  0.00  0.00    +0.000 A 
ATOM     10  C   UNL     1       3.460   4.901  18.327  0.00  0.00    +0.000 A 
BRANCH   9  11
ATOM     11  C   UNL     1       5.333   4.602  16.660  0.00  0.00    +0.000 C 
ATOM     12  O   UNL     1       5.546   4.245  15.507  0.00  0.00    +0.000 OA
BRANCH  11  13
ATOM     13  C   UNL     1       6.298   5.507  17.338  0.00  0.00    +0.000 A 
ATOM     14  C   UNL     1       7.053   5.076  18.437  0.00  0.00    +0.000 A 
ATOM     15  C   UNL     1       7.989   5.929  19.021  0.00  0.00    +0.000 A 
ATOM     16  C   UNL     1       8.147   7.225  18.534  0.00  0.00    +0.000 A 
ATOM     17  C   UNL     1       7.362   7.676  17.473  0.00  0.00    +0.000 A 
ATOM     18  C   UNL     1       6.435   6.820  16.875  0.00  0.00    +0.000 A 
ENDBRANCH  11  13
ENDBRANCH   9  11
ENDBRANCH   2   5
BRANCH   1  19
ATOM     19  C   UNL     1       1.237   7.322  21.156  0.00  0.00    +0.000 C 
BRANCH  19  20
ATOM     20  C   UNL     1       1.801   8.733  21.299  0.00  0.00    +0.000 C 
BRANCH  20  24
ATOM     21  C   UNL     1      -1.128  11.634  22.647  0.00  0.00    +0.000 A 
ATOM     22  C   UNL     1      -1.048  10.362  23.231  0.00  0.00    +0.000 A 
ATOM     23  C   UNL     1      -0.112   9.423  22.791  0.00  0.00    +0.000 A 
ATOM     24  C   UNL     1       0.753   9.728  21.739  0.00  0.00    +0.000 A 
ATOM     25  C   UNL     1       0.609  10.964  21.094  0.00  0.00    +0.000 A 
ATOM     26  C   UNL     1      -0.343  11.911  21.516  0.00  0.00    +0.000 A 
BRANCH  21  27
ATOM     27  O   UNL     1      -1.930  12.622  23.161  0.00  0.00    +0.000 OA
BRANCH  27  29
ATOM     28  C   UNL     1      -3.963  12.742  24.439  0.00  0.00    +0.000 C 
ATOM     29  C   UNL     1      -3.340  12.377  23.105  0.00  0.00    +0.000 C 
ENDBRANCH  27  29
ENDBRANCH  21  27
BRANCH  26  30
ATOM     30  O   UNL     1      -0.340  13.052  20.753  0.00  0.00    +0.000 OA
BRANCH  30  31
ATOM     31  C   UNL     1      -1.448  13.261  19.877  0.00  0.00    +0.000 C 
ATOM     32  C   UNL     1      -1.141  12.599  18.541  0.00  0.00    +0.000 C 
ENDBRANCH  30  31
ENDBRANCH  26  30
ENDBRANCH  20  24
ENDBRANCH  19  20
ENDBRANCH   1  19
TORSDOF 10
ENDMDL
MODEL 9
REMARK VINA RESULT:      -7.5      6.449     10.815
REMARK  Name = 
REMARK  12 active torsions:
REMARK  status: ('A' for Active; 'I' for Inactive)
REMARK    1  A    between atoms: C_1  and  C_2
REMARK    2  A    between atoms: C_2  and  O_3
REMARK    3  A    between atoms: O_3  and  C_4
REMARK    4  A    between atoms: C_7  and  C_8
REMARK    5  A    between atoms: C_8  and  C_9
REMARK    6  A    between atoms: C_9  and  N_10
REMARK    7  A    between atoms: C_11  and  C_13
REMARK    8  A    between atoms: C_17  and  C_18
REMARK    9  A    between atoms: C_18  and  C_20
REMARK   10  A    between atoms: C_28  and  O_29
REMARK   11  A    between atoms: O_29  and  C_30
REMARK   12  A    between atoms: C_30  and  C_31
REMARK                            x       y       z     vdW  Elec       q    Type
REMARK                         _______ _______ _______ _____ _____    ______ ____
ROOT
ATOM      1  N   UNL     1       7.513   7.694  17.062  0.00  0.00    +0.000 N 
ATOM      2  C   UNL     1       8.195   8.117  18.186  0.00  0.00    +0.000 C 
ATOM      3  O   UNL     1       8.604   7.349  19.053  0.00  0.00    +0.000 OA
ATOM      4  H   UNL     1       7.385   8.324  16.283  0.00  0.00    +0.000 HD
ENDROOT
BRANCH   2   5
ATOM      5  C   UNL     1       8.462   9.575  18.324  0.00  0.00    +0.000 A 
ATOM      6  C   UNL     1       7.894  10.452  17.390  0.00  0.00    +0.000 A 
ATOM      7  C   UNL     1       8.165  11.820  17.446  0.00  0.00    +0.000 A 
ATOM      8  C   UNL     1       9.005  12.322  18.440  0.00  0.00    +0.000 A 
ATOM      9  C   UNL     1       9.569  11.454  19.384  0.00  0.00    +0.000 A 
ATOM     10  C   UNL     1       9.316  10.075  19.313  0.00  0.00    +0.000 A 
BRANCH   9  11
ATOM     11  C   UNL     1      10.466  12.031  20.422  0.00  0.00    +0.000 C 
ATOM     12  O   UNL     1      11.638  11.677  20.469  0.00  0.00    +0.000 OA
BRANCH  11  13
ATOM     13  C   UNL     1       9.959  13.026  21.405  0.00  0.00    +0.000 A 
ATOM     14  C   UNL     1       9.031  12.669  22.391  0.00  0.00    +0.000 A 
ATOM     15  C   UNL     1       8.613  13.609  23.332  0.00  0.00    +0.000 A 
ATOM     16  C   UNL     1       9.091  14.917  23.268  0.00  0.00    +0.000 A 
ATOM     17  C   UNL     1       9.977  15.291  22.258  0.00  0.00    +0.000 A 
ATOM     18  C   UNL     1      10.410  14.348  21.323  0.00  0.00    +0.000 A 
ENDBRANCH  11  13
ENDBRANCH   9  11
ENDBRANCH   2   5
BRANCH   1  19
ATOM     19  C   UNL     1       7.240   6.272  16.891  0.00  0.00    +0.000 C 
BRANCH  19  20
ATOM     20  C   UNL     1       6.074   5.988  15.948  0.00  0.00    +0.000 C 
BRANCH  20  24
ATOM     21  C   UNL     1       2.873   3.939  18.040  0.00  0.00    +0.000 A 
ATOM     22  C   UNL     1       3.848   3.224  17.330  0.00  0.00    +0.000 A 
ATOM     23  C   UNL     1       4.873   3.882  16.648  0.00  0.00    +0.000 A 
ATOM     24  C   UNL     1       4.935   5.277  16.641  0.00  0.00    +0.000 A 
ATOM     25  C   UNL     1       3.908   5.993  17.271  0.00  0.00    +0.000 A 
ATOM     26  C   UNL     1       2.859   5.341  17.946  0.00  0.00    +0.000 A 
BRANCH  21  27
ATOM     27  O   UNL     1       1.950   3.315  18.842  0.00  0.00    +0.000 OA
BRANCH  27  29
ATOM     28  C   UNL     1       1.336   2.940  21.135  0.00  0.00    +0.000 C 
ATOM     29  C   UNL     1       2.438   2.832  20.098  0.00  0.00    +0.000 C 
ENDBRANCH  27  29
ENDBRANCH  21  27
BRANCH  26  30
ATOM     30  O   UNL     1       1.946   6.211  18.488  0.00  0.00    +0.000 OA
BRANCH  30  31
ATOM     31  C   UNL     1       2.404   7.091  19.515  0.00  0.00    +0.000 C 
ATOM     32  C   UNL     1       1.756   6.680  20.830  0.00  0.00    +0.000 C 
ENDBRANCH  30  31
ENDBRANCH  26  30
ENDBRANCH  20  24
ENDBRANCH  19  20
ENDBRANCH   1  19
TORSDOF 10
ENDMDL
