MODEL 1
REMARK VINA RESULT:      -9.1      0.000      0.000
REMARK  Name = 
REMARK  7 active torsions:
REMARK  status: ('A' for Active; 'I' for Inactive)
REMARK    1  A    between atoms: C_1  and  C_2
REMARK    2  A    between atoms: C_9  and  C_10
REMARK    3  A    between atoms: C_10  and  C_11
REMARK    4  A    between atoms: C_11  and  C_12
REMARK    5  A    between atoms: C_11  and  C_19
REMARK    6  A    between atoms: C_12  and  C_13
REMARK    7  A    between atoms: N_21  and  O_22
REMARK                            x       y       z     vdW  Elec       q    Type
REMARK                         _______ _______ _______ _____ _____    ______ ____
ROOT
ATOM      1  C   UNL     1       3.954   4.846  18.904  0.00  0.00    +0.000 C 
ENDROOT
BRANCH   1   2
ATOM      2  C   UNL     1       3.291   3.481  19.109  0.00  0.00    +0.000 C 
ATOM      3  O   UNL     1       3.410   2.796  20.126  0.00  0.00    +0.000 OA
ATOM      4  N   UNL     1       2.517   3.054  18.057  0.00  0.00    +0.000 N 
ATOM      5  H   UNL     1       2.309   3.581  17.217  0.00  0.00    +0.000 HD
BRANCH   4   6
ATOM      6  O   UNL     1       1.933   1.775  18.183  0.00  0.00    +0.000 OA
ATOM      7  H   UNL     1       2.221   1.505  19.083  0.00  0.00    +0.000 HD
ENDBRANCH   4   6
ENDBRANCH   1   2
BRANCH   1   8
ATOM      8  C   UNL     1       5.414   4.632  18.447  0.00  0.00    +0.000 C 
BRANCH   8  17
ATOM      9  C   UNL     1       5.618   2.311  11.448  0.00  0.00    +0.000 C 
ATOM     10  C   UNL     1       6.009   3.370  12.438  0.00  0.00    +0.000 A 
ATOM     11  C   UNL     1       7.165   4.138  12.241  0.00  0.00    +0.000 A 
ATOM     12  C   UNL     1       7.604   5.017  13.232  0.00  0.00    +0.000 A 
ATOM     13  C   UNL     1       6.905   5.088  14.432  0.00  0.00    +0.000 A 
ATOM     14  O   UNL     1       7.456   5.873  15.457  0.00  0.00    +0.000 OA
ATOM     15  C   UNL     1       7.011   5.754  16.767  0.00  0.00    +0.000 A 
ATOM     16  O   UNL     1       7.586   6.333  17.683  0.00  0.00    +0.000 OA
ATOM     17  C   UNL     1       5.799   4.926  17.012  0.00  0.00    +0.000 A 
ATOM     18  C   UNL     1       5.169   4.331  15.984  0.00  0.00    +0.000 A 
ATOM     19  C   UNL     1       5.753   4.345  14.651  0.00  0.00    +0.000 A 
ATOM     20  C   UNL     1       5.287   3.505  13.637  0.00  0.00    +0.000 A 
ENDBRANCH   8  17
ENDBRANCH   1   8
BRANCH   1  21
ATOM     21  C   UNL     1       3.118   5.751  17.977  0.00  0.00    +0.000 C 
BRANCH  21  22
ATOM     22  C   UNL     1       2.500   6.956  18.649  0.00  0.00    +0.000 A 
ATOM     23  C   UNL     1       2.183   6.936  20.015  0.00  0.00    +0.000 A 
ATOM     24  C   UNL     1       1.548   8.021  20.616  0.00  0.00    +0.000 A 
ATOM     25  C   UNL     1       1.229   9.148  19.858  0.00  0.00    +0.000 A 
ATOM     26  C   UNL     1       1.563   9.191  18.507  0.00  0.00    +0.000 A 
ATOM     27  C   UNL     1       2.203   8.104  17.908  0.00  0.00    +0.000 A 
ENDBRANCH  21  22
ENDBRANCH   1  21
TORSDOF 6
ENDMDL
MODEL 2
REMARK VINA RESULT:      -9.0      0.728      1.205
REMARK  Name = 
REMARK  7 active torsions:
REMARK  status: ('A' for Active; 'I' for Inactive)
REMARK    1  A    between atoms: C_1  and  C_2
REMARK    2  A    between atoms: C_9  and  C_10
REMARK    3  A    between atoms: C_10  and  C_11
REMARK    4  A    between atoms: C_11  and  C_12
REMARK    5  A    between atoms: C_11  and  C_19
REMARK    6  A    between atoms: C_12  and  C_13
REMARK    7  A    between atoms: N_21  and  O_22
REMARK                            x       y       z     vdW  Elec       q    Type
REMARK                         _______ _______ _______ _____ _____    ______ ____
ROOT
ATOM      1  C   UNL     1       4.250   4.490  18.929  0.00  0.00    +0.000 C 
ENDROOT
BRANCH   1   2
ATOM      2  C   UNL     1       3.816   3.051  19.218  0.00  0.00    +0.000 C 
ATOM      3  O   UNL     1       3.035   2.727  20.114  0.00  0.00    +0.000 OA
ATOM      4  N   UNL     1       4.359   2.107  18.380  0.00  0.00    +0.000 N 
ATOM      5  H   UNL     1       4.951   2.291  17.578  0.00  0.00    +0.000 HD
BRANCH   4   6
ATOM      6  O   UNL     1       4.028   0.761  18.648  0.00  0.00    +0.000 OA
ATOM      7  H   UNL     1       3.208   0.853  19.182  0.00  0.00    +0.000 HD
ENDBRANCH   4   6
ENDBRANCH   1   2
BRANCH   1   8
ATOM      8  C   UNL     1       5.710   4.483  18.423  0.00  0.00    +0.000 C 
BRANCH   8  17
ATOM      9  C   UNL     1       5.542   2.302  11.379  0.00  0.00    +0.000 C 
ATOM     10  C   UNL     1       5.969   3.350  12.366  0.00  0.00    +0.000 A 
ATOM     11  C   UNL     1       7.094   4.148  12.115  0.00  0.00    +0.000 A 
ATOM     12  C   UNL     1       7.574   5.017  13.096  0.00  0.00    +0.000 A 
ATOM     13  C   UNL     1       6.946   5.049  14.337  0.00  0.00    +0.000 A 
ATOM     14  O   UNL     1       7.542   5.827  15.343  0.00  0.00    +0.000 OA
ATOM     15  C   UNL     1       7.179   5.673  16.675  0.00  0.00    +0.000 A 
ATOM     16  O   UNL     1       7.796   6.246  17.566  0.00  0.00    +0.000 OA
ATOM     17  C   UNL     1       6.002   4.813  16.974  0.00  0.00    +0.000 A 
ATOM     18  C   UNL     1       5.324   4.224  15.974  0.00  0.00    +0.000 A 
ATOM     19  C   UNL     1       5.826   4.277  14.609  0.00  0.00    +0.000 A 
ATOM     20  C   UNL     1       5.317   3.446  13.607  0.00  0.00    +0.000 A 
ENDBRANCH   8  17
ENDBRANCH   1   8
BRANCH   1  21
ATOM     21  C   UNL     1       3.253   5.209  17.998  0.00  0.00    +0.000 C 
BRANCH  21  22
ATOM     22  C   UNL     1       2.600   6.437  18.589  0.00  0.00    +0.000 A 
ATOM     23  C   UNL     1       2.468   7.615  17.838  0.00  0.00    +0.000 A 
ATOM     24  C   UNL     1       1.931   8.767  18.408  0.00  0.00    +0.000 A 
ATOM     25  C   UNL     1       1.506   8.754  19.737  0.00  0.00    +0.000 A 
ATOM     26  C   UNL     1       1.605   7.583  20.484  0.00  0.00    +0.000 A 
ATOM     27  C   UNL     1       2.140   6.429  19.910  0.00  0.00    +0.000 A 
ENDBRANCH  21  22
ENDBRANCH   1  21
TORSDOF 6
ENDMDL
MODEL 3
REMARK VINA RESULT:      -9.0      1.024      1.176
REMARK  Name = 
REMARK  7 active torsions:
REMARK  status: ('A' for Active; 'I' for Inactive)
REMARK    1  A    between atoms: C_1  and  C_2
REMARK    2  A    between atoms: C_9  and  C_10
REMARK    3  A    between atoms: C_10  and  C_11
REMARK    4  A    between atoms: C_11  and  C_12
REMARK    5  A    between atoms: C_11  and  C_19
REMARK    6  A    between atoms: C_12  and  C_13
REMARK    7  A    between atoms: N_21  and  O_22
REMARK                            x       y       z     vdW  Elec       q    Type
REMARK                         _______ _______ _______ _____ _____    ______ ____
ROOT
ATOM      1  C   UNL     1       4.053   4.496  19.170  0.00  0.00    +0.000 C 
ENDROOT
BRANCH   1   2
ATOM      2  C   UNL     1       4.121   2.969  19.073  0.00  0.00    +0.000 C 
ATOM      3  O   UNL     1       3.384   2.285  18.361  0.00  0.00    +0.000 OA
ATOM      4  N   UNL     1       5.097   2.387  19.845  0.00  0.00    +0.000 N 
ATOM      5  H   UNL     1       5.788   2.876  20.402  0.00  0.00    +0.000 HD
BRANCH   4   6
ATOM      6  O   UNL     1       5.157   0.977  19.826  0.00  0.00    +0.000 OA
ATOM      7  H   UNL     1       5.804   0.788  20.541  0.00  0.00    +0.000 HD
ENDBRANCH   4   6
ENDBRANCH   1   2
BRANCH   1   8
ATOM      8  C   UNL     1       5.447   5.082  18.853  0.00  0.00    +0.000 C 
BRANCH   8  17
ATOM      9  C   UNL     1       5.444   2.619  11.899  0.00  0.00    +0.000 C 
ATOM     10  C   UNL     1       5.920   3.663  12.868  0.00  0.00    +0.000 A 
ATOM     11  C   UNL     1       7.132   4.334  12.654  0.00  0.00    +0.000 A 
ATOM     12  C   UNL     1       7.642   5.194  13.627  0.00  0.00    +0.000 A 
ATOM     13  C   UNL     1       6.955   5.343  14.827  0.00  0.00    +0.000 A 
ATOM     14  O   UNL     1       7.570   6.102  15.835  0.00  0.00    +0.000 OA
ATOM     15  C   UNL     1       7.121   6.044  17.148  0.00  0.00    +0.000 A 
ATOM     16  O   UNL     1       7.743   6.592  18.051  0.00  0.00    +0.000 OA
ATOM     17  C   UNL     1       5.849   5.317  17.411  0.00  0.00    +0.000 A 
ATOM     18  C   UNL     1       5.170   4.754  16.396  0.00  0.00    +0.000 A 
ATOM     19  C   UNL     1       5.749   4.697  15.063  0.00  0.00    +0.000 A 
ATOM     20  C   UNL     1       5.215   3.877  14.065  0.00  0.00    +0.000 A 
ENDBRANCH   8  17
ENDBRANCH   1   8
BRANCH   1  21
ATOM     21  C   UNL     1       2.906   5.070  18.315  0.00  0.00    +0.000 C 
BRANCH  21  22
ATOM     22  C   UNL     1       2.474   6.470  18.683  0.00  0.00    +0.000 A 
ATOM     23  C   UNL     1       2.076   6.781  19.992  0.00  0.00    +0.000 A 
ATOM     24  C   UNL     1       1.609   8.054  20.312  0.00  0.00    +0.000 A 
ATOM     25  C   UNL     1       1.544   9.040  19.327  0.00  0.00    +0.000 A 
ATOM     26  C   UNL     1       1.962   8.752  18.031  0.00  0.00    +0.000 A 
ATOM     27  C   UNL     1       2.433   7.477  17.713  0.00  0.00    +0.000 A 
ENDBRANCH  21  22
ENDBRANCH   1  21
TORSDOF 6
ENDMDL
MODEL 4
REMARK VINA RESULT:      -8.8      2.396      6.771
REMARK  Name = 
REMARK  7 active torsions:
REMARK  status: ('A' for Active; 'I' for Inactive)
REMARK    1  A    between atoms: C_1  and  C_2
REMARK    2  A    between atoms: C_9  and  C_10
REMARK    3  A    between atoms: C_10  and  C_11
REMARK    4  A    between atoms: C_11  and  C_12
REMARK    5  A    between atoms: C_11  and  C_19
REMARK    6  A    between atoms: C_12  and  C_13
REMARK    7  A    between atoms: N_21  and  O_22
REMARK                            x       y       z     vdW  Elec       q    Type
REMARK                         _______ _______ _______ _____ _____    ______ ____
ROOT
ATOM      1  C   UNL     1       5.303   4.464  16.502  0.00  0.00    +0.000 C 
ENDROOT
BRANCH   1   2
ATOM      2  C   UNL     1       6.243   4.543  15.295  0.00  0.00    +0.000 C 
ATOM      3  O   UNL     1       6.197   3.781  14.328  0.00  0.00    +0.000 OA
ATOM      4  N   UNL     1       7.166   5.560  15.351  0.00  0.00    +0.000 N 
ATOM      5  H   UNL     1       7.228   6.270  16.070  0.00  0.00    +0.000 HD
BRANCH   4   6
ATOM      6  O   UNL     1       8.087   5.632  14.283  0.00  0.00    +0.000 OA
ATOM      7  H   UNL     1       8.902   5.262  14.689  0.00  0.00    +0.000 HD
ENDBRANCH   4   6
ENDBRANCH   1   2
BRANCH   1   8
ATOM      8  C   UNL     1       5.333   5.815  17.251  0.00  0.00    +0.000 C 
BRANCH   8  17
ATOM      9  C   UNL     1       0.402  11.119  18.654  0.00  0.00    +0.000 C 
ATOM     10  C   UNL     1       0.940   9.766  19.022  0.00  0.00    +0.000 A 
ATOM     11  C   UNL     1       0.840   9.293  20.338  0.00  0.00    +0.000 A 
ATOM     12  C   UNL     1       1.468   8.103  20.709  0.00  0.00    +0.000 A 
ATOM     13  C   UNL     1       2.227   7.417  19.768  0.00  0.00    +0.000 A 
ATOM     14  O   UNL     1       2.959   6.305  20.213  0.00  0.00    +0.000 OA
ATOM     15  C   UNL     1       3.974   5.760  19.437  0.00  0.00    +0.000 A 
ATOM     16  O   UNL     1       4.706   4.883  19.883  0.00  0.00    +0.000 OA
ATOM     17  C   UNL     1       4.120   6.258  18.042  0.00  0.00    +0.000 A 
ATOM     18  C   UNL     1       3.281   7.196  17.569  0.00  0.00    +0.000 A 
ATOM     19  C   UNL     1       2.336   7.857  18.456  0.00  0.00    +0.000 A 
ATOM     20  C   UNL     1       1.664   9.022  18.075  0.00  0.00    +0.000 A 
ENDBRANCH   8  17
ENDBRANCH   1   8
BRANCH   1  21
ATOM     21  C   UNL     1       3.895   3.987  16.096  0.00  0.00    +0.000 C 
BRANCH  21  22
ATOM     22  C   UNL     1       3.107   3.313  17.195  0.00  0.00    +0.000 A 
ATOM     23  C   UNL     1       1.810   3.739  17.518  0.00  0.00    +0.000 A 
ATOM     24  C   UNL     1       1.114   3.163  18.578  0.00  0.00    +0.000 A 
ATOM     25  C   UNL     1       1.704   2.143  19.327  0.00  0.00    +0.000 A 
ATOM     26  C   UNL     1       2.979   1.693  18.999  0.00  0.00    +0.000 A 
ATOM     27  C   UNL     1       3.673   2.268  17.933  0.00  0.00    +0.000 A 
ENDBRANCH  21  22
ENDBRANCH   1  21
TORSDOF 6
ENDMDL
MODEL 5
REMARK VINA RESULT:      -8.8      2.658      6.958
REMARK  Name = 
REMARK  7 active torsions:
REMARK  status: ('A' for Active; 'I' for Inactive)
REMARK    1  A    between atoms: C_1  and  C_2
REMARK    2  A    between atoms: C_9  and  C_10
REMARK    3  A    between atoms: C_10  and  C_11
REMARK    4  A    between atoms: C_11  and  C_12
REMARK    5  A    between atoms: C_11  and  C_19
REMARK    6  A    between atoms: C_12  and  C_13
REMARK    7  A    between atoms: N_21  and  O_22
REMARK                            x       y       z     vdW  Elec       q    Type
REMARK                         _______ _______ _______ _____ _____    ______ ____
ROOT
ATOM      1  C   UNL     1       5.334   5.092  16.971  0.00  0.00    +0.000 C 
ENDROOT
BRANCH   1   2
ATOM      2  C   UNL     1       6.676   5.009  16.237  0.00  0.00    +0.000 C 
ATOM      3  O   UNL     1       7.701   4.522  16.716  0.00  0.00    +0.000 OA
ATOM      4  N   UNL     1       6.665   5.516  14.960  0.00  0.00    +0.000 N 
ATOM      5  H   UNL     1       5.854   5.869  14.466  0.00  0.00    +0.000 HD
BRANCH   4   6
ATOM      6  O   UNL     1       7.896   5.509  14.269  0.00  0.00    +0.000 OA
ATOM      7  H   UNL     1       7.749   4.810  13.594  0.00  0.00    +0.000 HD
ENDBRANCH   4   6
ENDBRANCH   1   2
BRANCH   1   8
ATOM      8  C   UNL     1       4.927   6.576  17.106  0.00  0.00    +0.000 C 
BRANCH   8  17
ATOM      9  C   UNL     1      -0.157  11.649  18.790  0.00  0.00    +0.000 C 
ATOM     10  C   UNL     1       0.432  10.302  19.097  0.00  0.00    +0.000 A 
ATOM     11  C   UNL     1       0.370   9.776  20.394  0.00  0.00    +0.000 A 
ATOM     12  C   UNL     1       1.044   8.595  20.709  0.00  0.00    +0.000 A 
ATOM     13  C   UNL     1       1.810   7.972  19.730  0.00  0.00    +0.000 A 
ATOM     14  O   UNL     1       2.587   6.869  20.120  0.00  0.00    +0.000 OA
ATOM     15  C   UNL     1       3.607   6.390  19.309  0.00  0.00    +0.000 A 
ATOM     16  O   UNL     1       4.374   5.522  19.709  0.00  0.00    +0.000 OA
ATOM     17  C   UNL     1       3.713   6.946  17.932  0.00  0.00    +0.000 A 
ATOM     18  C   UNL     1       2.835   7.873  17.509  0.00  0.00    +0.000 A 
ATOM     19  C   UNL     1       1.883   8.466  18.434  0.00  0.00    +0.000 A 
ATOM     20  C   UNL     1       1.165   9.621  18.110  0.00  0.00    +0.000 A 
ENDBRANCH   8  17
ENDBRANCH   1   8
BRANCH   1  21
ATOM     21  C   UNL     1       4.269   4.192  16.314  0.00  0.00    +0.000 C 
BRANCH  21  22
ATOM     22  C   UNL     1       3.354   3.476  17.280  0.00  0.00    +0.000 A 
ATOM     23  C   UNL     1       3.789   2.340  17.979  0.00  0.00    +0.000 A 
ATOM     24  C   UNL     1       2.921   1.641  18.814  0.00  0.00    +0.000 A 
ATOM     25  C   UNL     1       1.604   2.075  18.971  0.00  0.00    +0.000 A 
ATOM     26  C   UNL     1       1.168   3.217  18.305  0.00  0.00    +0.000 A 
ATOM     27  C   UNL     1       2.041   3.919  17.472  0.00  0.00    +0.000 A 
ENDBRANCH  21  22
ENDBRANCH   1  21
TORSDOF 6
ENDMDL
MODEL 6
REMARK VINA RESULT:      -8.5      2.408      7.453
REMARK  Name = 
REMARK  7 active torsions:
REMARK  status: ('A' for Active; 'I' for Inactive)
REMARK    1  A    between atoms: C_1  and  C_2
REMARK    2  A    between atoms: C_9  and  C_10
REMARK    3  A    between atoms: C_10  and  C_11
REMARK    4  A    between atoms: C_11  and  C_12
REMARK    5  A    between atoms: C_11  and  C_19
REMARK    6  A    between atoms: C_12  and  C_13
REMARK    7  A    between atoms: N_21  and  O_22
REMARK                            x       y       z     vdW  Elec       q    Type
REMARK                         _______ _______ _______ _____ _____    ______ ____
ROOT
ATOM      1  C   UNL     1       6.541   4.058  15.273  0.00  0.00    +0.000 C 
ENDROOT
BRANCH   1   2
ATOM      2  C   UNL     1       7.306   4.896  16.302  0.00  0.00    +0.000 C 
ATOM      3  O   UNL     1       7.877   4.432  17.290  0.00  0.00    +0.000 OA
ATOM      4  N   UNL     1       7.330   6.245  16.041  0.00  0.00    +0.000 N 
ATOM      5  H   UNL     1       6.950   6.700  15.219  0.00  0.00    +0.000 HD
BRANCH   4   6
ATOM      6  O   UNL     1       7.978   7.059  16.995  0.00  0.00    +0.000 OA
ATOM      7  H   UNL     1       8.926   6.891  16.800  0.00  0.00    +0.000 HD
ENDBRANCH   4   6
ENDBRANCH   1   2
BRANCH   1   8
ATOM      8  C   UNL     1       5.030   4.140  15.582  0.00  0.00    +0.000 C 
BRANCH   8  17
ATOM      9  C   UNL     1       1.423   2.463  21.794  0.00  0.00    +0.000 C 
ATOM     10  C   UNL     1       2.134   3.515  20.992  0.00  0.00    +0.000 A 
ATOM     11  C   UNL     1       1.799   4.869  21.136  0.00  0.00    +0.000 A 
ATOM     12  C   UNL     1       2.357   5.826  20.288  0.00  0.00    +0.000 A 
ATOM     13  C   UNL     1       3.214   5.415  19.273  0.00  0.00    +0.000 A 
ATOM     14  O   UNL     1       3.640   6.385  18.353  0.00  0.00    +0.000 OA
ATOM     15  C   UNL     1       4.224   6.020  17.147  0.00  0.00    +0.000 A 
ATOM     16  O   UNL     1       4.466   6.857  16.285  0.00  0.00    +0.000 OA
ATOM     17  C   UNL     1       4.570   4.585  16.955  0.00  0.00    +0.000 A 
ATOM     18  C   UNL     1       4.325   3.694  17.932  0.00  0.00    +0.000 A 
ATOM     19  C   UNL     1       3.569   4.082  19.112  0.00  0.00    +0.000 A 
ATOM     20  C   UNL     1       3.049   3.133  19.996  0.00  0.00    +0.000 A 
ENDBRANCH   8  17
ENDBRANCH   1   8
BRANCH   1  21
ATOM     21  C   UNL     1       6.923   4.442  13.829  0.00  0.00    +0.000 C 
BRANCH  21  22
ATOM     22  C   UNL     1       6.224   3.648  12.751  0.00  0.00    +0.000 A 
ATOM     23  C   UNL     1       4.901   3.940  12.384  0.00  0.00    +0.000 A 
ATOM     24  C   UNL     1       4.235   3.160  11.440  0.00  0.00    +0.000 A 
ATOM     25  C   UNL     1       4.887   2.081  10.842  0.00  0.00    +0.000 A 
ATOM     26  C   UNL     1       6.209   1.799  11.178  0.00  0.00    +0.000 A 
ATOM     27  C   UNL     1       6.875   2.584  12.120  0.00  0.00    +0.000 A 
ENDBRANCH  21  22
ENDBRANCH   1  21
TORSDOF 6
ENDMDL
MODEL 7
REMARK VINA RESULT:      -8.5      1.566      7.244
REMARK  Name = 
REMARK  7 active torsions:
REMARK  status: ('A' for Active; 'I' for Inactive)
REMARK    1  A    between atoms: C_1  and  C_2
REMARK    2  A    between atoms: C_9  and  C_10
REMARK    3  A    between atoms: C_10  and  C_11
REMARK    4  A    between atoms: C_11  and  C_12
REMARK    5  A    between atoms: C_11  and  C_19
REMARK    6  A    between atoms: C_12  and  C_13
REMARK    7  A    between atoms: N_21  and  O_22
REMARK                            x       y       z     vdW  Elec       q    Type
REMARK                         _______ _______ _______ _____ _____    ______ ____
ROOT
ATOM      1  C   UNL     1       6.203   4.607  16.791  0.00  0.00    +0.000 C 
ENDROOT
BRANCH   1   2
ATOM      2  C   UNL     1       6.876   5.451  17.877  0.00  0.00    +0.000 C 
ATOM      3  O   UNL     1       6.826   6.681  17.931  0.00  0.00    +0.000 OA
ATOM      4  N   UNL     1       7.553   4.729  18.830  0.00  0.00    +0.000 N 
ATOM      5  H   UNL     1       7.586   3.718  18.900  0.00  0.00    +0.000 HD
BRANCH   4   6
ATOM      6  O   UNL     1       8.235   5.472  19.817  0.00  0.00    +0.000 OA
ATOM      7  H   UNL     1       7.624   5.407  20.584  0.00  0.00    +0.000 HD
ENDBRANCH   4   6
ENDBRANCH   1   2
BRANCH   1   8
ATOM      8  C   UNL     1       4.999   3.860  17.410  0.00  0.00    +0.000 C 
BRANCH   8  17
ATOM      9  C   UNL     1       1.516  10.299  18.317  0.00  0.00    +0.000 C 
ATOM     10  C   UNL     1       1.702   8.887  18.792  0.00  0.00    +0.000 A 
ATOM     11  C   UNL     1       1.480   8.551  20.135  0.00  0.00    +0.000 A 
ATOM     12  C   UNL     1       1.794   7.275  20.603  0.00  0.00    +0.000 A 
ATOM     13  C   UNL     1       2.367   6.356  19.731  0.00  0.00    +0.000 A 
ATOM     14  O   UNL     1       2.800   5.134  20.271  0.00  0.00    +0.000 OA
ATOM     15  C   UNL     1       3.655   4.301  19.561  0.00  0.00    +0.000 A 
ATOM     16  O   UNL     1       4.145   3.307  20.085  0.00  0.00    +0.000 OA
ATOM     17  C   UNL     1       3.928   4.644  18.138  0.00  0.00    +0.000 A 
ATOM     18  C   UNL     1       3.349   5.722  17.580  0.00  0.00    +0.000 A 
ATOM     19  C   UNL     1       2.589   6.658  18.395  0.00  0.00    +0.000 A 
ATOM     20  C   UNL     1       2.227   7.920  17.917  0.00  0.00    +0.000 A 
ENDBRANCH   8  17
ENDBRANCH   1   8
BRANCH   1  21
ATOM     21  C   UNL     1       5.864   5.448  15.545  0.00  0.00    +0.000 C 
BRANCH  21  22
ATOM     22  C   UNL     1       6.287   4.839  14.228  0.00  0.00    +0.000 A 
ATOM     23  C   UNL     1       7.425   5.303  13.552  0.00  0.00    +0.000 A 
ATOM     24  C   UNL     1       7.772   4.789  12.305  0.00  0.00    +0.000 A 
ATOM     25  C   UNL     1       6.990   3.793  11.719  0.00  0.00    +0.000 A 
ATOM     26  C   UNL     1       5.873   3.304  12.393  0.00  0.00    +0.000 A 
ATOM     27  C   UNL     1       5.530   3.818  13.645  0.00  0.00    +0.000 A 
ENDBRANCH  21  22
ENDBRANCH   1  21
TORSDOF 6
ENDMDL
MODEL 8
REMARK VINA RESULT:      -8.5      1.543      7.149
REMARK  Name = 
REMARK  7 active torsions:
REMARK  status: ('A' for Active; 'I' for Inactive)
REMARK    1  A    between atoms: C_1  and  C_2
REMARK    2  A    between atoms: C_9  and  C_10
REMARK    3  A    between atoms: C_10  and  C_11
REMARK    4  A    between atoms: C_11  and  C_12
REMARK    5  A    between atoms: C_11  and  C_19
REMARK    6  A    between atoms: C_12  and  C_13
REMARK    7  A    between atoms: N_21  and  O_22
REMARK                            x       y       z     vdW  Elec       q    Type
REMARK                         _______ _______ _______ _____ _____    ______ ____
ROOT
ATOM      1  C   UNL     1       6.406   4.702  16.910  0.00  0.00    +0.000 C 
ENDROOT
BRANCH   1   2
ATOM      2  C   UNL     1       7.089   5.498  18.027  0.00  0.00    +0.000 C 
ATOM      3  O   UNL     1       7.593   6.612  17.877  0.00  0.00    +0.000 OA
ATOM      4  N   UNL     1       7.094   4.879  19.254  0.00  0.00    +0.000 N 
ATOM      5  H   UNL     1       6.643   4.000  19.480  0.00  0.00    +0.000 HD
BRANCH   4   6
ATOM      6  O   UNL     1       7.763   5.555  20.297  0.00  0.00    +0.000 OA
ATOM      7  H   UNL     1       7.106   5.509  21.027  0.00  0.00    +0.000 HD
ENDBRANCH   4   6
ENDBRANCH   1   2
BRANCH   1   8
ATOM      8  C   UNL     1       5.209   3.928  17.505  0.00  0.00    +0.000 C 
BRANCH   8  17
ATOM      9  C   UNL     1       1.550  10.293  18.227  0.00  0.00    +0.000 C 
ATOM     10  C   UNL     1       1.743   8.886  18.714  0.00  0.00    +0.000 A 
ATOM     11  C   UNL     1       1.464   8.548  20.045  0.00  0.00    +0.000 A 
ATOM     12  C   UNL     1       1.781   7.279  20.532  0.00  0.00    +0.000 A 
ATOM     13  C   UNL     1       2.415   6.371  19.691  0.00  0.00    +0.000 A 
ATOM     14  O   UNL     1       2.847   5.160  20.254  0.00  0.00    +0.000 OA
ATOM     15  C   UNL     1       3.752   4.344  19.588  0.00  0.00    +0.000 A 
ATOM     16  O   UNL     1       4.238   3.361  20.138  0.00  0.00    +0.000 OA
ATOM     17  C   UNL     1       4.087   4.690  18.179  0.00  0.00    +0.000 A 
ATOM     18  C   UNL     1       3.513   5.754  17.591  0.00  0.00    +0.000 A 
ATOM     19  C   UNL     1       2.695   6.675  18.365  0.00  0.00    +0.000 A 
ATOM     20  C   UNL     1       2.330   7.929  17.868  0.00  0.00    +0.000 A 
ENDBRANCH   8  17
ENDBRANCH   1   8
BRANCH   1  21
ATOM     21  C   UNL     1       6.056   5.598  15.705  0.00  0.00    +0.000 C 
BRANCH  21  22
ATOM     22  C   UNL     1       6.307   4.974  14.352  0.00  0.00    +0.000 A 
ATOM     23  C   UNL     1       5.424   4.022  13.822  0.00  0.00    +0.000 A 
ATOM     24  C   UNL     1       5.695   3.396  12.607  0.00  0.00    +0.000 A 
ATOM     25  C   UNL     1       6.852   3.723  11.898  0.00  0.00    +0.000 A 
ATOM     26  C   UNL     1       7.722   4.686  12.400  0.00  0.00    +0.000 A 
ATOM     27  C   UNL     1       7.446   5.315  13.615  0.00  0.00    +0.000 A 
ENDBRANCH  21  22
ENDBRANCH   1  21
TORSDOF 6
ENDMDL
MODEL 9
REMARK VINA RESULT:      -8.5      1.569      2.024
REMARK  Name = 
REMARK  7 active torsions:
REMARK  status: ('A' for Active; 'I' for Inactive)
REMARK    1  A    between atoms: C_1  and  C_2
REMARK    2  A    between atoms: C_9  and  C_10
REMARK    3  A    between atoms: C_10  and  C_11
REMARK    4  A    between atoms: C_11  and  C_12
REMARK    5  A    between atoms: C_11  and  C_19
REMARK    6  A    between atoms: C_12  and  C_13
REMARK    7  A    between atoms: N_21  and  O_22
REMARK                            x       y       z     vdW  Elec       q    Type
REMARK                         _______ _______ _______ _____ _____    ______ ____
ROOT
ATOM      1  C   UNL     1       3.096   3.979  20.254  0.00  0.00    +0.000 C 
ENDROOT
BRANCH   1   2
ATOM      2  C   UNL     1       2.570   3.020  21.326  0.00  0.00    +0.000 C 
ATOM      3  O   UNL     1       3.271   2.220  21.946  0.00  0.00    +0.000 OA
ATOM      4  N   UNL     1       1.222   3.118  21.573  0.00  0.00    +0.000 N 
ATOM      5  H   UNL     1       0.588   3.793  21.161  0.00  0.00    +0.000 HD
BRANCH   4   6
ATOM      6  O   UNL     1       0.687   2.212  22.514  0.00  0.00    +0.000 OA
ATOM      7  H   UNL     1       1.292   2.329  23.280  0.00  0.00    +0.000 HD
ENDBRANCH   4   6
ENDBRANCH   1   2
BRANCH   1   8
ATOM      8  C   UNL     1       4.174   3.255  19.417  0.00  0.00    +0.000 C 
BRANCH   8  17
ATOM      9  C   UNL     1       5.931   3.319  12.253  0.00  0.00    +0.000 C 
ATOM     10  C   UNL     1       6.069   3.984  13.593  0.00  0.00    +0.000 A 
ATOM     11  C   UNL     1       7.215   4.729  13.904  0.00  0.00    +0.000 A 
ATOM     12  C   UNL     1       7.405   5.221  15.195  0.00  0.00    +0.000 A 
ATOM     13  C   UNL     1       6.466   4.928  16.177  0.00  0.00    +0.000 A 
ATOM     14  O   UNL     1       6.762   5.316  17.493  0.00  0.00    +0.000 OA
ATOM     15  C   UNL     1       6.053   4.797  18.569  0.00  0.00    +0.000 A 
ATOM     16  O   UNL     1       6.402   5.025  19.722  0.00  0.00    +0.000 OA
ATOM     17  C   UNL     1       4.844   3.982  18.270  0.00  0.00    +0.000 A 
ATOM     18  C   UNL     1       4.466   3.777  16.996  0.00  0.00    +0.000 A 
ATOM     19  C   UNL     1       5.318   4.199  15.895  0.00  0.00    +0.000 A 
ATOM     20  C   UNL     1       5.105   3.752  14.589  0.00  0.00    +0.000 A 
ENDBRANCH   8  17
ENDBRANCH   1   8
BRANCH   1  21
ATOM     21  C   UNL     1       1.949   4.595  19.428  0.00  0.00    +0.000 C 
BRANCH  21  22
ATOM     22  C   UNL     1       1.968   6.103  19.333  0.00  0.00    +0.000 A 
ATOM     23  C   UNL     1       1.592   6.899  20.426  0.00  0.00    +0.000 A 
ATOM     24  C   UNL     1       1.542   8.286  20.313  0.00  0.00    +0.000 A 
ATOM     25  C   UNL     1       1.877   8.900  19.105  0.00  0.00    +0.000 A 
ATOM     26  C   UNL     1       2.279   8.122  18.022  0.00  0.00    +0.000 A 
ATOM     27  C   UNL     1       2.332   6.733  18.139  0.00  0.00    +0.000 A 
ENDBRANCH  21  22
ENDBRANCH   1  21
TORSDOF 6
ENDMDL
