MODEL 1
REMARK VINA RESULT:      -7.8      0.000      0.000
REMARK  Name = 
REMARK  11 active torsions:
REMARK  status: ('A' for Active; 'I' for Inactive)
REMARK    1  A    between atoms: C_1  and  C_2
REMARK    2  A    between atoms: C_2  and  C_3
REMARK    3  A    between atoms: C_3  and  C_4
REMARK    4  A    between atoms: C_6  and  C_7
REMARK    5  A    between atoms: C_7  and  O_9
REMARK    6  A    between atoms: O_9  and  C_10
REMARK    7  A    between atoms: C_10  and  C_11
REMARK    8  A    between atoms: N_13  and  C_14
REMARK    9  A    between atoms: N_17  and  S_18
REMARK   10  A    between atoms: S_18  and  C_21
REMARK   11  A    between atoms: C_26  and  C_27
REMARK                            x       y       z     vdW  Elec       q    Type
REMARK                         _______ _______ _______ _____ _____    ______ ____
ROOT
ATOM      1  C   UNL     1       2.454   6.939  18.259  0.00  0.00    +0.000 C 
ATOM      2  C   UNL     1       2.510   7.176  19.769  0.00  0.00    +0.000 C 
ATOM      3  C   UNL     1       1.379   8.122  20.164  0.00  0.00    +0.000 C 
ATOM      4  N   UNL     1       1.367   9.394  19.361  0.00  0.00    +0.000 NA
ATOM      5  C   UNL     1       1.597   9.197  17.880  0.00  0.00    +0.000 C 
ATOM      6  C   UNL     1       2.776   8.265  17.563  0.00  0.00    +0.000 C 
ENDROOT
BRANCH   1  11
ATOM      7  C   UNL     1       2.661   4.428  17.720  0.00  0.00    +0.000 A 
ATOM      8  C   UNL     1       3.665   3.748  17.051  0.00  0.00    +0.000 A 
ATOM      9  C   UNL     1       4.713   4.681  16.824  0.00  0.00    +0.000 A 
ATOM     10  N   UNL     1       4.373   5.872  17.348  0.00  0.00    +0.000 NA
ATOM     11  N   UNL     1       3.119   5.716  17.841  0.00  0.00    +0.000 N 
BRANCH   9  12
ATOM     12  C   UNL     1       6.005   4.417  16.167  0.00  0.00    +0.000 C 
ATOM     13  O   UNL     1       6.149   3.545  15.316  0.00  0.00    +0.000 OA
BRANCH  12  14
ATOM     14  O   UNL     1       7.034   5.171  16.666  0.00  0.00    +0.000 OA
BRANCH  14  15
ATOM     15  C   UNL     1       7.669   4.643  17.839  0.00  0.00    +0.000 C 
ATOM     16  C   UNL     1       7.719   5.753  18.876  0.00  0.00    +0.000 C 
ENDBRANCH  14  15
ENDBRANCH  12  14
ENDBRANCH   9  12
BRANCH   7  17
ATOM     17  C   UNL     1       1.316   3.960  18.163  0.00  0.00    +0.000 C 
BRANCH  17  19
ATOM     18  C   UNL     1       1.219   3.842  20.726  0.00  0.00    +0.000 C 
ATOM     19  C   UNL     1       1.313   3.077  19.414  0.00  0.00    +0.000 C 
ENDBRANCH  17  19
ENDBRANCH   7  17
ENDBRANCH   1  11
BRANCH   4  20
ATOM     20  S   UNL     1      -0.135  10.290  19.599  0.00  0.00    +0.000 S 
ATOM     21  O   UNL     1      -1.028   9.951  18.504  0.00  0.00    +0.000 OA
ATOM     22  O   UNL     1      -0.545  10.049  20.970  0.00  0.00    +0.000 OA
BRANCH  20  23
ATOM     23  C   UNL     1       0.298  12.020  19.430  0.00  0.00    +0.000 A 
ATOM     24  C   UNL     1       1.664  12.330  19.287  0.00  0.00    +0.000 A 
ATOM     25  C   UNL     1       2.084  13.652  19.132  0.00  0.00    +0.000 A 
ATOM     26  C   UNL     1       1.141  14.672  19.079  0.00  0.00    +0.000 A 
ATOM     27  C   UNL     1      -0.208  14.379  19.269  0.00  0.00    +0.000 A 
ATOM     28  C   UNL     1      -0.648  13.062  19.509  0.00  0.00    +0.000 A 
ATOM     29  C   UNL     1      -2.085  12.884  19.904  0.00  0.00    +0.000 C 
ENDBRANCH  20  23
ENDBRANCH   4  20
TORSDOF 8
ENDMDL
MODEL 2
REMARK VINA RESULT:      -7.7      0.761      1.532
REMARK  Name = 
REMARK  11 active torsions:
REMARK  status: ('A' for Active; 'I' for Inactive)
REMARK    1  A    between atoms: C_1  and  C_2
REMARK    2  A    between atoms: C_2  and  C_3
REMARK    3  A    between atoms: C_3  and  C_4
REMARK    4  A    between atoms: C_6  and  C_7
REMARK    5  A    between atoms: C_7  and  O_9
REMARK    6  A    between atoms: O_9  and  C_10
REMARK    7  A    between atoms: C_10  and  C_11
REMARK    8  A    between atoms: N_13  and  C_14
REMARK    9  A    between atoms: N_17  and  S_18
REMARK   10  A    between atoms: S_18  and  C_21
REMARK   11  A    between atoms: C_26  and  C_27
REMARK                            x       y       z     vdW  Elec       q    Type
REMARK                         _______ _______ _______ _____ _____    ______ ____
ROOT
ATOM      1  C   UNL     1       2.478   6.852  18.309  0.00  0.00    +0.000 C 
ATOM      2  C   UNL     1       2.526   7.158  19.806  0.00  0.00    +0.000 C 
ATOM      3  C   UNL     1       1.400   8.132  20.148  0.00  0.00    +0.000 C 
ATOM      4  N   UNL     1       1.407   9.366  19.287  0.00  0.00    +0.000 NA
ATOM      5  C   UNL     1       1.646   9.097  17.819  0.00  0.00    +0.000 C 
ATOM      6  C   UNL     1       2.818   8.141  17.554  0.00  0.00    +0.000 C 
ENDROOT
BRANCH   1  11
ATOM      7  C   UNL     1       2.642   4.334  17.785  0.00  0.00    +0.000 A 
ATOM      8  C   UNL     1       3.681   3.617  17.214  0.00  0.00    +0.000 A 
ATOM      9  C   UNL     1       4.779   4.510  17.092  0.00  0.00    +0.000 A 
ATOM     10  N   UNL     1       4.435   5.713  17.584  0.00  0.00    +0.000 NA
ATOM     11  N   UNL     1       3.135   5.605  17.953  0.00  0.00    +0.000 N 
BRANCH   9  12
ATOM     12  C   UNL     1       6.118   4.198  16.561  0.00  0.00    +0.000 C 
ATOM     13  O   UNL     1       7.151   4.536  17.129  0.00  0.00    +0.000 OA
BRANCH  12  14
ATOM     14  O   UNL     1       6.089   3.581  15.338  0.00  0.00    +0.000 OA
BRANCH  14  15
ATOM     15  C   UNL     1       6.503   4.393  14.231  0.00  0.00    +0.000 C 
ATOM     16  C   UNL     1       6.159   3.643  12.954  0.00  0.00    +0.000 C 
ENDBRANCH  14  15
ENDBRANCH  12  14
ENDBRANCH   9  12
BRANCH   7  17
ATOM     17  C   UNL     1       1.245   3.917  18.096  0.00  0.00    +0.000 C 
BRANCH  17  19
ATOM     18  C   UNL     1       1.692   3.625  20.607  0.00  0.00    +0.000 C 
ATOM     19  C   UNL     1       1.088   3.039  19.340  0.00  0.00    +0.000 C 
ENDBRANCH  17  19
ENDBRANCH   7  17
ENDBRANCH   1  11
BRANCH   4  20
ATOM     20  S   UNL     1      -0.088  10.285  19.471  0.00  0.00    +0.000 S 
ATOM     21  O   UNL     1      -0.956   9.944  18.357  0.00  0.00    +0.000 OA
ATOM     22  O   UNL     1      -0.539  10.069  20.833  0.00  0.00    +0.000 OA
BRANCH  20  23
ATOM     23  C   UNL     1       0.374  12.007  19.291  0.00  0.00    +0.000 A 
ATOM     24  C   UNL     1       1.732  12.285  19.048  0.00  0.00    +0.000 A 
ATOM     25  C   UNL     1       2.172  13.600  18.878  0.00  0.00    +0.000 A 
ATOM     26  C   UNL     1       1.254  14.642  18.910  0.00  0.00    +0.000 A 
ATOM     27  C   UNL     1      -0.084  14.380  19.200  0.00  0.00    +0.000 A 
ATOM     28  C   UNL     1      -0.537  13.069  19.456  0.00  0.00    +0.000 A 
ATOM     29  C   UNL     1      -1.944  12.920  19.958  0.00  0.00    +0.000 C 
ENDBRANCH  20  23
ENDBRANCH   4  20
TORSDOF 8
ENDMDL
MODEL 3
REMARK VINA RESULT:      -7.6      1.715      2.855
REMARK  Name = 
REMARK  11 active torsions:
REMARK  status: ('A' for Active; 'I' for Inactive)
REMARK    1  A    between atoms: C_1  and  C_2
REMARK    2  A    between atoms: C_2  and  C_3
REMARK    3  A    between atoms: C_3  and  C_4
REMARK    4  A    between atoms: C_6  and  C_7
REMARK    5  A    between atoms: C_7  and  O_9
REMARK    6  A    between atoms: O_9  and  C_10
REMARK    7  A    between atoms: C_10  and  C_11
REMARK    8  A    between atoms: N_13  and  C_14
REMARK    9  A    between atoms: N_17  and  S_18
REMARK   10  A    between atoms: S_18  and  C_21
REMARK   11  A    between atoms: C_26  and  C_27
REMARK                            x       y       z     vdW  Elec       q    Type
REMARK                         _______ _______ _______ _____ _____    ______ ____
ROOT
ATOM      1  C   UNL     1       3.189   6.944  19.014  0.00  0.00    +0.000 C 
ATOM      2  C   UNL     1       2.515   7.434  17.732  0.00  0.00    +0.000 C 
ATOM      3  C   UNL     1       1.972   8.843  17.967  0.00  0.00    +0.000 C 
ATOM      4  N   UNL     1       1.088   8.939  19.180  0.00  0.00    +0.000 NA
ATOM      5  C   UNL     1       1.617   8.208  20.394  0.00  0.00    +0.000 C 
ATOM      6  C   UNL     1       2.106   6.786  20.086  0.00  0.00    +0.000 C 
ENDROOT
BRANCH   1  11
ATOM      7  C   UNL     1       4.140   4.553  19.141  0.00  0.00    +0.000 A 
ATOM      8  C   UNL     1       5.198   3.985  18.450  0.00  0.00    +0.000 A 
ATOM      9  C   UNL     1       5.823   5.033  17.721  0.00  0.00    +0.000 A 
ATOM     10  N   UNL     1       5.189   6.192  17.971  0.00  0.00    +0.000 NA
ATOM     11  N   UNL     1       4.153   5.879  18.788  0.00  0.00    +0.000 N 
BRANCH   9  12
ATOM     12  C   UNL     1       7.010   4.922  16.856  0.00  0.00    +0.000 C 
ATOM     13  O   UNL     1       8.039   4.355  17.211  0.00  0.00    +0.000 OA
BRANCH  12  14
ATOM     14  O   UNL     1       6.882   5.590  15.666  0.00  0.00    +0.000 OA
BRANCH  14  15
ATOM     15  C   UNL     1       7.144   4.809  14.492  0.00  0.00    +0.000 C 
ATOM     16  C   UNL     1       5.853   4.101  14.112  0.00  0.00    +0.000 C 
ENDBRANCH  14  15
ENDBRANCH  12  14
ENDBRANCH   9  12
BRANCH   7  17
ATOM     17  C   UNL     1       3.117   3.917  20.019  0.00  0.00    +0.000 C 
BRANCH  17  19
ATOM     18  C   UNL     1       1.255   3.500  18.302  0.00  0.00    +0.000 C 
ATOM     19  C   UNL     1       2.205   2.900  19.327  0.00  0.00    +0.000 C 
ENDBRANCH  17  19
ENDBRANCH   7  17
ENDBRANCH   1  11
BRANCH   4  20
ATOM     20  S   UNL     1       0.771  10.621  19.612  0.00  0.00    +0.000 S 
ATOM     21  O   UNL     1       0.826  10.723  21.060  0.00  0.00    +0.000 OA
ATOM     22  O   UNL     1       1.657  11.429  18.794  0.00  0.00    +0.000 OA
BRANCH  20  23
ATOM     23  C   UNL     1      -0.918  10.943  19.108  0.00  0.00    +0.000 A 
ATOM     24  C   UNL     1      -1.478  10.077  18.151  0.00  0.00    +0.000 A 
ATOM     25  C   UNL     1      -2.795  10.248  17.718  0.00  0.00    +0.000 A 
ATOM     26  C   UNL     1      -3.574  11.259  18.267  0.00  0.00    +0.000 A 
ATOM     27  C   UNL     1      -3.012  12.150  19.179  0.00  0.00    +0.000 A 
ATOM     28  C   UNL     1      -1.661  12.048  19.569  0.00  0.00    +0.000 A 
ATOM     29  C   UNL     1      -1.102  13.173  20.390  0.00  0.00    +0.000 C 
ENDBRANCH  20  23
ENDBRANCH   4  20
TORSDOF 8
ENDMDL
MODEL 4
REMARK VINA RESULT:      -7.4      1.759      2.745
REMARK  Name = 
REMARK  11 active torsions:
REMARK  status: ('A' for Active; 'I' for Inactive)
REMARK    1  A    between atoms: C_1  and  C_2
REMARK    2  A    between atoms: C_2  and  C_3
REMARK    3  A    between atoms: C_3  and  C_4
REMARK    4  A    between atoms: C_6  and  C_7
REMARK    5  A    between atoms: C_7  and  O_9
REMARK    6  A    between atoms: O_9  and  C_10
REMARK    7  A    between atoms: C_10  and  C_11
REMARK    8  A    between atoms: N_13  and  C_14
REMARK    9  A    between atoms: N_17  and  S_18
REMARK   10  A    between atoms: S_18  and  C_21
REMARK   11  A    between atoms: C_26  and  C_27
REMARK                            x       y       z     vdW  Elec       q    Type
REMARK                         _______ _______ _______ _____ _____    ______ ____
ROOT
ATOM      1  C   UNL     1       2.693   7.347  18.744  0.00  0.00    +0.000 C 
ATOM      2  C   UNL     1       1.893   8.121  17.696  0.00  0.00    +0.000 C 
ATOM      3  C   UNL     1       1.573   9.510  18.244  0.00  0.00    +0.000 C 
ATOM      4  N   UNL     1       0.909   9.473  19.593  0.00  0.00    +0.000 NA
ATOM      5  C   UNL     1       1.525   8.489  20.562  0.00  0.00    +0.000 C 
ATOM      6  C   UNL     1       1.779   7.104  19.949  0.00  0.00    +0.000 C 
ENDROOT
BRANCH   1  11
ATOM      7  C   UNL     1       3.090   5.024  17.702  0.00  0.00    +0.000 A 
ATOM      8  C   UNL     1       4.221   4.515  17.084  0.00  0.00    +0.000 A 
ATOM      9  C   UNL     1       5.252   5.477  17.256  0.00  0.00    +0.000 A 
ATOM     10  N   UNL     1       4.780   6.517  17.965  0.00  0.00    +0.000 NA
ATOM     11  N   UNL     1       3.468   6.252  18.186  0.00  0.00    +0.000 N 
BRANCH   9  12
ATOM     12  C   UNL     1       6.646   5.371  16.792  0.00  0.00    +0.000 C 
ATOM     13  O   UNL     1       7.520   6.163  17.132  0.00  0.00    +0.000 OA
BRANCH  12  14
ATOM     14  O   UNL     1       6.842   4.368  15.879  0.00  0.00    +0.000 OA
BRANCH  14  15
ATOM     15  C   UNL     1       6.950   4.792  14.513  0.00  0.00    +0.000 C 
ATOM     16  C   UNL     1       6.089   3.864  13.673  0.00  0.00    +0.000 C 
ENDBRANCH  14  15
ENDBRANCH  12  14
ENDBRANCH   9  12
BRANCH   7  17
ATOM     17  C   UNL     1       1.711   4.465  17.789  0.00  0.00    +0.000 C 
BRANCH  17  19
ATOM     18  C   UNL     1       1.470   2.105  18.771  0.00  0.00    +0.000 C 
ATOM     19  C   UNL     1       1.432   3.605  19.025  0.00  0.00    +0.000 C 
ENDBRANCH  17  19
ENDBRANCH   7  17
ENDBRANCH   1  11
BRANCH   4  20
ATOM     20  S   UNL     1       0.875  11.073  20.337  0.00  0.00    +0.000 S 
ATOM     21  O   UNL     1       1.127  10.904  21.758  0.00  0.00    +0.000 OA
ATOM     22  O   UNL     1       1.750  11.914  19.542  0.00  0.00    +0.000 OA
BRANCH  20  23
ATOM     23  C   UNL     1      -0.806  11.662  20.150  0.00  0.00    +0.000 A 
ATOM     24  C   UNL     1      -1.515  11.230  19.013  0.00  0.00    +0.000 A 
ATOM     25  C   UNL     1      -2.837  11.629  18.802  0.00  0.00    +0.000 A 
ATOM     26  C   UNL     1      -3.473  12.429  19.743  0.00  0.00    +0.000 A 
ATOM     27  C   UNL     1      -2.763  12.901  20.845  0.00  0.00    +0.000 A 
ATOM     28  C   UNL     1      -1.404  12.578  21.037  0.00  0.00    +0.000 A 
ATOM     29  C   UNL     1      -0.681  13.300  22.137  0.00  0.00    +0.000 C 
ENDBRANCH  20  23
ENDBRANCH   4  20
TORSDOF 8
ENDMDL
MODEL 5
REMARK VINA RESULT:      -7.3      1.805      2.784
REMARK  Name = 
REMARK  11 active torsions:
REMARK  status: ('A' for Active; 'I' for Inactive)
REMARK    1  A    between atoms: C_1  and  C_2
REMARK    2  A    between atoms: C_2  and  C_3
REMARK    3  A    between atoms: C_3  and  C_4
REMARK    4  A    between atoms: C_6  and  C_7
REMARK    5  A    between atoms: C_7  and  O_9
REMARK    6  A    between atoms: O_9  and  C_10
REMARK    7  A    between atoms: C_10  and  C_11
REMARK    8  A    between atoms: N_13  and  C_14
REMARK    9  A    between atoms: N_17  and  S_18
REMARK   10  A    between atoms: S_18  and  C_21
REMARK   11  A    between atoms: C_26  and  C_27
REMARK                            x       y       z     vdW  Elec       q    Type
REMARK                         _______ _______ _______ _____ _____    ______ ____
ROOT
ATOM      1  C   UNL     1       2.568   7.077  19.396  0.00  0.00    +0.000 C 
ATOM      2  C   UNL     1       1.921   7.649  18.134  0.00  0.00    +0.000 C 
ATOM      3  C   UNL     1       1.631   9.132  18.355  0.00  0.00    +0.000 C 
ATOM      4  N   UNL     1       0.836   9.397  19.605  0.00  0.00    +0.000 NA
ATOM      5  C   UNL     1       1.296   8.611  20.812  0.00  0.00    +0.000 C 
ATOM      6  C   UNL     1       1.528   7.122  20.520  0.00  0.00    +0.000 C 
ENDROOT
BRANCH   1  11
ATOM      7  C   UNL     1       2.934   4.560  18.985  0.00  0.00    +0.000 A 
ATOM      8  C   UNL     1       4.067   3.892  18.550  0.00  0.00    +0.000 A 
ATOM      9  C   UNL     1       5.117   4.848  18.507  0.00  0.00    +0.000 A 
ATOM     10  N   UNL     1       4.653   6.041  18.917  0.00  0.00    +0.000 NA
ATOM     11  N   UNL     1       3.330   5.864  19.155  0.00  0.00    +0.000 N 
BRANCH   9  12
ATOM     12  C   UNL     1       6.520   4.603  18.128  0.00  0.00    +0.000 C 
ATOM     13  O   UNL     1       7.458   4.799  18.895  0.00  0.00    +0.000 OA
BRANCH  12  14
ATOM     14  O   UNL     1       6.674   4.230  16.819  0.00  0.00    +0.000 OA
BRANCH  14  15
ATOM     15  C   UNL     1       6.377   5.248  15.852  0.00  0.00    +0.000 C 
ATOM     16  C   UNL     1       6.774   4.714  14.485  0.00  0.00    +0.000 C 
ENDBRANCH  14  15
ENDBRANCH  12  14
ENDBRANCH   9  12
BRANCH   7  17
ATOM     17  C   UNL     1       1.539   4.066  19.165  0.00  0.00    +0.000 C 
BRANCH  17  19
ATOM     18  C   UNL     1       2.132   2.926  21.388  0.00  0.00    +0.000 C 
ATOM     19  C   UNL     1       1.133   3.772  20.612  0.00  0.00    +0.000 C 
ENDBRANCH  17  19
ENDBRANCH   7  17
ENDBRANCH   1  11
BRANCH   4  20
ATOM     20  S   UNL     1       0.823  11.116  20.005  0.00  0.00    +0.000 S 
ATOM     21  O   UNL     1       1.297  11.254  21.371  0.00  0.00    +0.000 OA
ATOM     22  O   UNL     1       1.515  11.794  18.925  0.00  0.00    +0.000 OA
BRANCH  20  23
ATOM     23  C   UNL     1      -0.899  11.609  19.975  0.00  0.00    +0.000 A 
ATOM     24  C   UNL     1      -1.400  12.259  21.119  0.00  0.00    +0.000 A 
ATOM     25  C   UNL     1      -2.727  12.693  21.170  0.00  0.00    +0.000 A 
ATOM     26  C   UNL     1      -3.552  12.515  20.066  0.00  0.00    +0.000 A 
ATOM     27  C   UNL     1      -3.078  11.829  18.949  0.00  0.00    +0.000 A 
ATOM     28  C   UNL     1      -1.768  11.311  18.907  0.00  0.00    +0.000 A 
ATOM     29  C   UNL     1      -1.426  10.415  17.751  0.00  0.00    +0.000 C 
ENDBRANCH  20  23
ENDBRANCH   4  20
TORSDOF 8
ENDMDL
MODEL 6
REMARK VINA RESULT:      -7.3      1.269      2.019
REMARK  Name = 
REMARK  11 active torsions:
REMARK  status: ('A' for Active; 'I' for Inactive)
REMARK    1  A    between atoms: C_1  and  C_2
REMARK    2  A    between atoms: C_2  and  C_3
REMARK    3  A    between atoms: C_3  and  C_4
REMARK    4  A    between atoms: C_6  and  C_7
REMARK    5  A    between atoms: C_7  and  O_9
REMARK    6  A    between atoms: O_9  and  C_10
REMARK    7  A    between atoms: C_10  and  C_11
REMARK    8  A    between atoms: N_13  and  C_14
REMARK    9  A    between atoms: N_17  and  S_18
REMARK   10  A    between atoms: S_18  and  C_21
REMARK   11  A    between atoms: C_26  and  C_27
REMARK                            x       y       z     vdW  Elec       q    Type
REMARK                         _______ _______ _______ _____ _____    ______ ____
ROOT
ATOM      1  C   UNL     1       2.469   7.110  18.388  0.00  0.00    +0.000 C 
ATOM      2  C   UNL     1       2.583   7.360  19.892  0.00  0.00    +0.000 C 
ATOM      3  C   UNL     1       1.383   8.186  20.349  0.00  0.00    +0.000 C 
ATOM      4  N   UNL     1       1.197   9.446  19.548  0.00  0.00    +0.000 NA
ATOM      5  C   UNL     1       1.364   9.265  18.057  0.00  0.00    +0.000 C 
ATOM      6  C   UNL     1       2.613   8.459  17.675  0.00  0.00    +0.000 C 
ENDROOT
BRANCH   1  11
ATOM      7  C   UNL     1       2.855   4.671  17.653  0.00  0.00    +0.000 A 
ATOM      8  C   UNL     1       3.954   4.098  17.033  0.00  0.00    +0.000 A 
ATOM      9  C   UNL     1       4.969   5.091  16.997  0.00  0.00    +0.000 A 
ATOM     10  N   UNL     1       4.520   6.213  17.587  0.00  0.00    +0.000 NA
ATOM     11  N   UNL     1       3.233   5.961  17.933  0.00  0.00    +0.000 N 
BRANCH   9  12
ATOM     12  C   UNL     1       6.332   4.943  16.455  0.00  0.00    +0.000 C 
ATOM     13  O   UNL     1       7.230   4.374  17.066  0.00  0.00    +0.000 OA
BRANCH  12  14
ATOM     14  O   UNL     1       6.513   5.581  15.255  0.00  0.00    +0.000 OA
BRANCH  14  15
ATOM     15  C   UNL     1       7.088   4.779  14.215  0.00  0.00    +0.000 C 
ATOM     16  C   UNL     1       5.994   3.871  13.675  0.00  0.00    +0.000 C 
ENDBRANCH  14  15
ENDBRANCH  12  14
ENDBRANCH   9  12
BRANCH   7  17
ATOM     17  C   UNL     1       1.499   4.108  17.913  0.00  0.00    +0.000 C 
BRANCH  17  19
ATOM     18  C   UNL     1       1.084   4.040  20.446  0.00  0.00    +0.000 C 
ATOM     19  C   UNL     1       1.379   3.253  19.178  0.00  0.00    +0.000 C 
ENDBRANCH  17  19
ENDBRANCH   7  17
ENDBRANCH   1  11
BRANCH   4  20
ATOM     20  S   UNL     1      -0.375  10.183  19.868  0.00  0.00    +0.000 S 
ATOM     21  O   UNL     1      -1.020  10.421  18.588  0.00  0.00    +0.000 OA
ATOM     22  O   UNL     1      -1.025   9.350  20.863  0.00  0.00    +0.000 OA
BRANCH  20  23
ATOM     23  C   UNL     1      -0.024  11.779  20.604  0.00  0.00    +0.000 A 
ATOM     24  C   UNL     1      -0.716  12.107  21.785  0.00  0.00    +0.000 A 
ATOM     25  C   UNL     1      -0.487  13.324  22.432  0.00  0.00    +0.000 A 
ATOM     26  C   UNL     1       0.462  14.203  21.927  0.00  0.00    +0.000 A 
ATOM     27  C   UNL     1       1.116  13.907  20.732  0.00  0.00    +0.000 A 
ATOM     28  C   UNL     1       0.841  12.723  20.018  0.00  0.00    +0.000 A 
ATOM     29  C   UNL     1       1.442  12.598  18.648  0.00  0.00    +0.000 C 
ENDBRANCH  20  23
ENDBRANCH   4  20
TORSDOF 8
ENDMDL
MODEL 7
REMARK VINA RESULT:      -7.3      2.220      4.094
REMARK  Name = 
REMARK  11 active torsions:
REMARK  status: ('A' for Active; 'I' for Inactive)
REMARK    1  A    between atoms: C_1  and  C_2
REMARK    2  A    between atoms: C_2  and  C_3
REMARK    3  A    between atoms: C_3  and  C_4
REMARK    4  A    between atoms: C_6  and  C_7
REMARK    5  A    between atoms: C_7  and  O_9
REMARK    6  A    between atoms: O_9  and  C_10
REMARK    7  A    between atoms: C_10  and  C_11
REMARK    8  A    between atoms: N_13  and  C_14
REMARK    9  A    between atoms: N_17  and  S_18
REMARK   10  A    between atoms: S_18  and  C_21
REMARK   11  A    between atoms: C_26  and  C_27
REMARK                            x       y       z     vdW  Elec       q    Type
REMARK                         _______ _______ _______ _____ _____    ______ ____
ROOT
ATOM      1  C   UNL     1       2.927   7.056  19.026  0.00  0.00    +0.000 C 
ATOM      2  C   UNL     1       2.258   7.674  17.798  0.00  0.00    +0.000 C 
ATOM      3  C   UNL     1       1.872   9.116  18.117  0.00  0.00    +0.000 C 
ATOM      4  N   UNL     1       1.049   9.243  19.370  0.00  0.00    +0.000 NA
ATOM      5  C   UNL     1       1.545   8.405  20.526  0.00  0.00    +0.000 C 
ATOM      6  C   UNL     1       1.874   6.957  20.135  0.00  0.00    +0.000 C 
ENDROOT
BRANCH   1  11
ATOM      7  C   UNL     1       4.984   5.823  18.086  0.00  0.00    +0.000 A 
ATOM      8  C   UNL     1       5.402   4.518  18.291  0.00  0.00    +0.000 A 
ATOM      9  C   UNL     1       4.374   3.868  19.028  0.00  0.00    +0.000 A 
ATOM     10  N   UNL     1       3.365   4.730  19.244  0.00  0.00    +0.000 NA
ATOM     11  N   UNL     1       3.766   5.912  18.713  0.00  0.00    +0.000 N 
BRANCH   9  12
ATOM     12  C   UNL     1       4.354   2.461  19.463  0.00  0.00    +0.000 C 
ATOM     13  O   UNL     1       4.865   2.084  20.512  0.00  0.00    +0.000 OA
BRANCH  12  14
ATOM     14  O   UNL     1       3.795   1.614  18.542  0.00  0.00    +0.000 OA
BRANCH  14  15
ATOM     15  C   UNL     1       2.577   2.077  17.941  0.00  0.00    +0.000 C 
ATOM     16  C   UNL     1       1.464   1.901  18.961  0.00  0.00    +0.000 C 
ENDBRANCH  14  15
ENDBRANCH  12  14
ENDBRANCH   9  12
BRANCH   7  17
ATOM     17  C   UNL     1       5.682   6.960  17.420  0.00  0.00    +0.000 C 
BRANCH  17  19
ATOM     18  C   UNL     1       7.872   8.272  17.681  0.00  0.00    +0.000 C 
ATOM     19  C   UNL     1       7.211   6.916  17.488  0.00  0.00    +0.000 C 
ENDBRANCH  17  19
ENDBRANCH   7  17
ENDBRANCH   1  11
BRANCH   4  20
ATOM     20  S   UNL     1       0.923  10.925  19.888  0.00  0.00    +0.000 S 
ATOM     21  O   UNL     1       1.137  10.962  21.324  0.00  0.00    +0.000 OA
ATOM     22  O   UNL     1       1.785  11.692  19.008  0.00  0.00    +0.000 OA
BRANCH  20  23
ATOM     23  C   UNL     1      -0.776  11.404  19.580  0.00  0.00    +0.000 A 
ATOM     24  C   UNL     1      -1.480  10.677  18.601  0.00  0.00    +0.000 A 
ATOM     25  C   UNL     1      -2.814  10.975  18.314  0.00  0.00    +0.000 A 
ATOM     26  C   UNL     1      -3.466  11.973  19.027  0.00  0.00    +0.000 A 
ATOM     27  C   UNL     1      -2.762  12.729  19.962  0.00  0.00    +0.000 A 
ATOM     28  C   UNL     1      -1.393  12.502  20.211  0.00  0.00    +0.000 A 
ATOM     29  C   UNL     1      -0.683  13.500  21.079  0.00  0.00    +0.000 C 
ENDBRANCH  20  23
ENDBRANCH   4  20
TORSDOF 8
ENDMDL
MODEL 8
REMARK VINA RESULT:      -7.3      1.702      2.579
REMARK  Name = 
REMARK  11 active torsions:
REMARK  status: ('A' for Active; 'I' for Inactive)
REMARK    1  A    between atoms: C_1  and  C_2
REMARK    2  A    between atoms: C_2  and  C_3
REMARK    3  A    between atoms: C_3  and  C_4
REMARK    4  A    between atoms: C_6  and  C_7
REMARK    5  A    between atoms: C_7  and  O_9
REMARK    6  A    between atoms: O_9  and  C_10
REMARK    7  A    between atoms: C_10  and  C_11
REMARK    8  A    between atoms: N_13  and  C_14
REMARK    9  A    between atoms: N_17  and  S_18
REMARK   10  A    between atoms: S_18  and  C_21
REMARK   11  A    between atoms: C_26  and  C_27
REMARK                            x       y       z     vdW  Elec       q    Type
REMARK                         _______ _______ _______ _____ _____    ______ ____
ROOT
ATOM      1  C   UNL     1       2.548   7.053  18.205  0.00  0.00    +0.000 C 
ATOM      2  C   UNL     1       2.228   7.257  19.686  0.00  0.00    +0.000 C 
ATOM      3  C   UNL     1       1.122   8.302  19.814  0.00  0.00    +0.000 C 
ATOM      4  N   UNL     1       1.436   9.584  19.090  0.00  0.00    +0.000 NA
ATOM      5  C   UNL     1       2.027   9.390  17.712  0.00  0.00    +0.000 C 
ATOM      6  C   UNL     1       3.158   8.353  17.672  0.00  0.00    +0.000 C 
ENDROOT
BRANCH   1  11
ATOM      7  C   UNL     1       2.671   4.513  17.789  0.00  0.00    +0.000 A 
ATOM      8  C   UNL     1       3.710   3.750  17.283  0.00  0.00    +0.000 A 
ATOM      9  C   UNL     1       4.833   4.613  17.162  0.00  0.00    +0.000 A 
ATOM     10  N   UNL     1       4.500   5.843  17.593  0.00  0.00    +0.000 NA
ATOM     11  N   UNL     1       3.186   5.778  17.922  0.00  0.00    +0.000 N 
BRANCH   9  12
ATOM     12  C   UNL     1       6.180   4.250  16.689  0.00  0.00    +0.000 C 
ATOM     13  O   UNL     1       7.202   4.586  17.280  0.00  0.00    +0.000 OA
BRANCH  12  14
ATOM     14  O   UNL     1       6.177   3.589  15.489  0.00  0.00    +0.000 OA
BRANCH  14  15
ATOM     15  C   UNL     1       6.552   4.379  14.352  0.00  0.00    +0.000 C 
ATOM     16  C   UNL     1       6.038   3.672  13.109  0.00  0.00    +0.000 C 
ENDBRANCH  14  15
ENDBRANCH  12  14
ENDBRANCH   9  12
BRANCH   7  17
ATOM     17  C   UNL     1       1.255   4.139  18.069  0.00  0.00    +0.000 C 
BRANCH  17  19
ATOM     18  C   UNL     1       1.190   3.605  20.579  0.00  0.00    +0.000 C 
ATOM     19  C   UNL     1       1.062   3.079  19.157  0.00  0.00    +0.000 C 
ENDBRANCH  17  19
ENDBRANCH   7  17
ENDBRANCH   1  11
BRANCH   4  20
ATOM     20  S   UNL     1       0.011  10.618  18.968  0.00  0.00    +0.000 S 
ATOM     21  O   UNL     1       0.448  11.916  18.486  0.00  0.00    +0.000 OA
ATOM     22  O   UNL     1      -0.981   9.864  18.223  0.00  0.00    +0.000 OA
BRANCH  20  23
ATOM     23  C   UNL     1      -0.581  10.832  20.645  0.00  0.00    +0.000 A 
ATOM     24  C   UNL     1      -0.064   9.962  21.624  0.00  0.00    +0.000 A 
ATOM     25  C   UNL     1      -0.459  10.075  22.959  0.00  0.00    +0.000 A 
ATOM     26  C   UNL     1      -1.342  11.080  23.333  0.00  0.00    +0.000 A 
ATOM     27  C   UNL     1      -1.896  11.913  22.363  0.00  0.00    +0.000 A 
ATOM     28  C   UNL     1      -1.574  11.766  20.998  0.00  0.00    +0.000 A 
ATOM     29  C   UNL     1      -2.377  12.572  20.018  0.00  0.00    +0.000 C 
ENDBRANCH  20  23
ENDBRANCH   4  20
TORSDOF 8
ENDMDL
MODEL 9
REMARK VINA RESULT:      -7.3      2.432      4.187
REMARK  Name = 
REMARK  11 active torsions:
REMARK  status: ('A' for Active; 'I' for Inactive)
REMARK    1  A    between atoms: C_1  and  C_2
REMARK    2  A    between atoms: C_2  and  C_3
REMARK    3  A    between atoms: C_3  and  C_4
REMARK    4  A    between atoms: C_6  and  C_7
REMARK    5  A    between atoms: C_7  and  O_9
REMARK    6  A    between atoms: O_9  and  C_10
REMARK    7  A    between atoms: C_10  and  C_11
REMARK    8  A    between atoms: N_13  and  C_14
REMARK    9  A    between atoms: N_17  and  S_18
REMARK   10  A    between atoms: S_18  and  C_21
REMARK   11  A    between atoms: C_26  and  C_27
REMARK                            x       y       z     vdW  Elec       q    Type
REMARK                         _______ _______ _______ _____ _____    ______ ____
ROOT
ATOM      1  C   UNL     1       2.536   7.385  19.269  0.00  0.00    +0.000 C 
ATOM      2  C   UNL     1       1.843   8.003  18.053  0.00  0.00    +0.000 C 
ATOM      3  C   UNL     1       1.571   9.478  18.337  0.00  0.00    +0.000 C 
ATOM      4  N   UNL     1       0.827   9.704  19.625  0.00  0.00    +0.000 NA
ATOM      5  C   UNL     1       1.329   8.874  20.785  0.00  0.00    +0.000 C 
ATOM      6  C   UNL     1       1.540   7.395  20.433  0.00  0.00    +0.000 C 
ENDROOT
BRANCH   1  11
ATOM      7  C   UNL     1       4.372   5.964  18.152  0.00  0.00    +0.000 A 
ATOM      8  C   UNL     1       4.785   4.672  18.436  0.00  0.00    +0.000 A 
ATOM      9  C   UNL     1       3.879   4.154  19.401  0.00  0.00    +0.000 A 
ATOM     10  N   UNL     1       2.944   5.079  19.679  0.00  0.00    +0.000 NA
ATOM     11  N   UNL     1       3.280   6.176  18.956  0.00  0.00    +0.000 N 
BRANCH   9  12
ATOM     12  C   UNL     1       3.895   2.805  19.994  0.00  0.00    +0.000 C 
ATOM     13  O   UNL     1       4.930   2.248  20.346  0.00  0.00    +0.000 OA
BRANCH  12  14
ATOM     14  O   UNL     1       2.661   2.208  20.024  0.00  0.00    +0.000 OA
BRANCH  14  15
ATOM     15  C   UNL     1       2.082   1.932  18.741  0.00  0.00    +0.000 C 
ATOM     16  C   UNL     1       0.644   2.423  18.769  0.00  0.00    +0.000 C 
ENDBRANCH  14  15
ENDBRANCH  12  14
ENDBRANCH   9  12
BRANCH   7  17
ATOM     17  C   UNL     1       4.978   6.988  17.254  0.00  0.00    +0.000 C 
BRANCH  17  19
ATOM     18  C   UNL     1       7.483   7.428  17.599  0.00  0.00    +0.000 C 
ATOM     19  C   UNL     1       6.412   6.696  16.805  0.00  0.00    +0.000 C 
ENDBRANCH  17  19
ENDBRANCH   7  17
ENDBRANCH   1  11
BRANCH   4  20
ATOM     20  S   UNL     1       0.840  11.408  20.084  0.00  0.00    +0.000 S 
ATOM     21  O   UNL     1       1.520  11.515  21.363  0.00  0.00    +0.000 OA
ATOM     22  O   UNL     1       1.339  12.140  18.935  0.00  0.00    +0.000 OA
BRANCH  20  23
ATOM     23  C   UNL     1      -0.876  11.855  20.343  0.00  0.00    +0.000 A 
ATOM     24  C   UNL     1      -1.273  12.140  21.663  0.00  0.00    +0.000 A 
ATOM     25  C   UNL     1      -2.588  12.514  21.948  0.00  0.00    +0.000 A 
ATOM     26  C   UNL     1      -3.505  12.645  20.913  0.00  0.00    +0.000 A 
ATOM     27  C   UNL     1      -3.133  12.318  19.610  0.00  0.00    +0.000 A 
ATOM     28  C   UNL     1      -1.834  11.860  19.311  0.00  0.00    +0.000 A 
ATOM     29  C   UNL     1      -1.598  11.341  17.922  0.00  0.00    +0.000 C 
ENDBRANCH  20  23
ENDBRANCH   4  20
TORSDOF 8
ENDMDL
