MODEL 1
REMARK VINA RESULT:      -6.8      0.000      0.000
REMARK  Name = 
REMARK  10 active torsions:
REMARK  status: ('A' for Active; 'I' for Inactive)
REMARK    1  A    between atoms: C_1  and  C_2
REMARK    2  A    between atoms: C_2  and  S_3
REMARK    3  A    between atoms: S_3  and  C_4
REMARK    4  A    between atoms: C_6  and  N_7
REMARK    5  A    between atoms: C_10  and  C_12
REMARK    6  A    between atoms: N_18  and  C_19
REMARK    7  A    between atoms: C_19  and  C_20
REMARK    8  A    between atoms: C_19  and  C_21
REMARK    9  A    between atoms: C_22  and  C_23
REMARK   10  A    between atoms: C_26  and  C_27
REMARK                            x       y       z     vdW  Elec       q    Type
REMARK                         _______ _______ _______ _____ _____    ______ ____
ROOT
ATOM      1  C   UNL     1       8.445  15.112  18.136  0.00  0.00    +0.000 A 
ATOM      2  N   UNL     1       7.867  13.888  17.979  0.00  0.00    +0.000 N 
ATOM      3  C   UNL     1       8.794  12.938  17.599  0.00  0.00    +0.000 A 
ATOM      4  C   UNL     1       9.993  13.631  17.390  0.00  0.00    +0.000 A 
ATOM      5  C   UNL     1       9.793  15.009  17.840  0.00  0.00    +0.000 A 
ATOM      6  H   UNL     1       6.894  13.692  18.137  0.00  0.00    +0.000 HD
ENDROOT
BRANCH   3   7
ATOM      7  N   UNL     1       8.314  11.671  17.464  0.00  0.00    +0.000 NA
ATOM      8  C   UNL     1       8.573  10.683  18.257  0.00  0.00    +0.000 C 
ATOM      9  N   UNL     1       7.991   9.502  17.804  0.00  0.00    +0.000 N 
ATOM     10  C   UNL     1       8.125   8.211  18.314  0.00  0.00    +0.000 C 
ATOM     11  O   UNL     1       8.876   7.935  19.247  0.00  0.00    +0.000 OA
ATOM     12  N   UNL     1       9.334  10.574  19.388  0.00  0.00    +0.000 N 
ATOM     13  H   UNL     1       7.449   9.643  16.966  0.00  0.00    +0.000 HD
ATOM     14  H   UNL     1       9.387   9.606  19.723  0.00  0.00    +0.000 HD
BRANCH  10  15
ATOM     15  C   UNL     1       7.349   7.118  17.647  0.00  0.00    +0.000 A 
ATOM     16  C   UNL     1       7.744   5.787  17.867  0.00  0.00    +0.000 A 
ATOM     17  C   UNL     1       7.049   4.728  17.273  0.00  0.00    +0.000 A 
ATOM     18  C   UNL     1       5.949   4.986  16.458  0.00  0.00    +0.000 A 
ATOM     19  C   UNL     1       5.538   6.303  16.250  0.00  0.00    +0.000 A 
ATOM     20  C   UNL     1       6.229   7.369  16.843  0.00  0.00    +0.000 A 
ENDBRANCH  10  15
BRANCH  12  21
ATOM     21  C   UNL     1       9.504  11.537  20.465  0.00  0.00    +0.000 C 
ATOM     22  C   UNL     1       8.907  11.037  21.770  0.00  0.00    +0.000 C 
ATOM     23  C   UNL     1      10.995  11.851  20.606  0.00  0.00    +0.000 C 
ENDBRANCH  12  21
ENDBRANCH   3   7
BRANCH   4  24
ATOM     24  C   UNL     1      11.256  13.058  16.928  0.00  0.00    +0.000 C 
ATOM     25  N   UNL     1      11.658  13.360  15.663  0.00  0.00    +0.000 N 
ATOM     26  O   UNL     1      11.945  12.308  17.614  0.00  0.00    +0.000 OA
ATOM     27  H   UNL     1      10.965  13.720  15.022  0.00  0.00    +0.000 HD
ATOM     28  H   UNL     1      12.335  12.718  15.276  0.00  0.00    +0.000 HD
ENDBRANCH   4  24
BRANCH   5  29
ATOM     29  C   UNL     1      10.748  16.111  17.984  0.00  0.00    +0.000 C 
ATOM     30  N   UNL     1      11.225  16.693  16.849  0.00  0.00    +0.000 N 
ATOM     31  O   UNL     1      11.131  16.548  19.067  0.00  0.00    +0.000 OA
ATOM     32  H   UNL     1      11.279  16.152  15.993  0.00  0.00    +0.000 HD
ATOM     33  H   UNL     1      12.008  17.322  17.002  0.00  0.00    +0.000 HD
ENDBRANCH   5  29
BRANCH   1  34
ATOM     34  S   UNL     1       7.399  16.398  18.673  0.00  0.00    +0.000 S 
BRANCH  34  36
ATOM     35  C   UNL     1       7.989  15.243  21.107  0.00  0.00    +0.000 C 
ATOM     36  C   UNL     1       7.886  16.599  20.423  0.00  0.00    +0.000 C 
ENDBRANCH  34  36
ENDBRANCH   1  34
TORSDOF 7
ENDMDL
MODEL 2
REMARK VINA RESULT:      -6.7      6.999      8.478
REMARK  Name = 
REMARK  10 active torsions:
REMARK  status: ('A' for Active; 'I' for Inactive)
REMARK    1  A    between atoms: C_1  and  C_2
REMARK    2  A    between atoms: C_2  and  S_3
REMARK    3  A    between atoms: S_3  and  C_4
REMARK    4  A    between atoms: C_6  and  N_7
REMARK    5  A    between atoms: C_10  and  C_12
REMARK    6  A    between atoms: N_18  and  C_19
REMARK    7  A    between atoms: C_19  and  C_20
REMARK    8  A    between atoms: C_19  and  C_21
REMARK    9  A    between atoms: C_22  and  C_23
REMARK   10  A    between atoms: C_26  and  C_27
REMARK                            x       y       z     vdW  Elec       q    Type
REMARK                         _______ _______ _______ _____ _____    ______ ____
ROOT
ATOM      1  C   UNL     1       1.554  13.656  19.469  0.00  0.00    +0.000 A 
ATOM      2  N   UNL     1       2.120  12.447  19.193  0.00  0.00    +0.000 N 
ATOM      3  C   UNL     1       1.203  11.576  18.638  0.00  0.00    +0.000 A 
ATOM      4  C   UNL     1      -0.032  12.236  18.682  0.00  0.00    +0.000 A 
ATOM      5  C   UNL     1       0.216  13.612  19.116  0.00  0.00    +0.000 A 
ATOM      6  H   UNL     1       3.086  12.219  19.353  0.00  0.00    +0.000 HD
ENDROOT
BRANCH   3   7
ATOM      7  N   UNL     1       1.692  10.356  18.286  0.00  0.00    +0.000 NA
ATOM      8  C   UNL     1       1.682   9.300  19.034  0.00  0.00    +0.000 C 
ATOM      9  N   UNL     1       2.325   8.232  18.413  0.00  0.00    +0.000 N 
ATOM     10  C   UNL     1       2.616   6.969  18.930  0.00  0.00    +0.000 C 
ATOM     11  O   UNL     1       2.384   6.652  20.094  0.00  0.00    +0.000 OA
ATOM     12  N   UNL     1       1.225   9.063  20.301  0.00  0.00    +0.000 N 
ATOM     13  H   UNL     1       2.646   8.467  17.488  0.00  0.00    +0.000 HD
ATOM     14  H   UNL     1       1.458   8.118  20.622  0.00  0.00    +0.000 HD
BRANCH  10  15
ATOM     15  C   UNL     1       3.291   5.989  18.022  0.00  0.00    +0.000 A 
ATOM     16  C   UNL     1       2.782   4.680  17.955  0.00  0.00    +0.000 A 
ATOM     17  C   UNL     1       3.371   3.726  17.117  0.00  0.00    +0.000 A 
ATOM     18  C   UNL     1       4.469   4.072  16.332  0.00  0.00    +0.000 A 
ATOM     19  C   UNL     1       4.968   5.373  16.377  0.00  0.00    +0.000 A 
ATOM     20  C   UNL     1       4.382   6.334  17.213  0.00  0.00    +0.000 A 
ENDBRANCH  10  15
BRANCH  12  21
ATOM     21  C   UNL     1       0.030   9.582  20.947  0.00  0.00    +0.000 C 
ATOM     22  C   UNL     1      -0.735   8.494  21.681  0.00  0.00    +0.000 C 
ATOM     23  C   UNL     1       0.440  10.720  21.885  0.00  0.00    +0.000 C 
ENDBRANCH  12  21
ENDBRANCH   3   7
BRANCH   4  24
ATOM     24  C   UNL     1      -1.320  11.696  18.251  0.00  0.00    +0.000 C 
ATOM     25  N   UNL     1      -1.315  10.813  17.216  0.00  0.00    +0.000 N 
ATOM     26  O   UNL     1      -2.389  12.020  18.760  0.00  0.00    +0.000 OA
ATOM     27  H   UNL     1      -0.496  10.781  16.627  0.00  0.00    +0.000 HD
ATOM     28  H   UNL     1      -2.206  10.713  16.749  0.00  0.00    +0.000 HD
ENDBRANCH   4  24
BRANCH   5  29
ATOM     29  C   UNL     1      -0.688  14.763  19.192  0.00  0.00    +0.000 C 
ATOM     30  N   UNL     1      -1.729  14.698  20.068  0.00  0.00    +0.000 N 
ATOM     31  O   UNL     1      -0.552  15.786  18.524  0.00  0.00    +0.000 OA
ATOM     32  H   UNL     1      -2.118  13.796  20.317  0.00  0.00    +0.000 HD
ATOM     33  H   UNL     1      -2.415  15.438  19.952  0.00  0.00    +0.000 HD
ENDBRANCH   5  29
BRANCH   1  34
ATOM     34  S   UNL     1       2.614  14.875  20.120  0.00  0.00    +0.000 S 
BRANCH  34  36
ATOM     35  C   UNL     1       3.703  15.315  17.625  0.00  0.00    +0.000 C 
ATOM     36  C   UNL     1       2.856  15.991  18.694  0.00  0.00    +0.000 C 
ENDBRANCH  34  36
ENDBRANCH   1  34
TORSDOF 7
ENDMDL
MODEL 3
REMARK VINA RESULT:      -6.7      7.272      8.930
REMARK  Name = 
REMARK  10 active torsions:
REMARK  status: ('A' for Active; 'I' for Inactive)
REMARK    1  A    between atoms: C_1  and  C_2
REMARK    2  A    between atoms: C_2  and  S_3
REMARK    3  A    between atoms: S_3  and  C_4
REMARK    4  A    between atoms: C_6  and  N_7
REMARK    5  A    between atoms: C_10  and  C_12
REMARK    6  A    between atoms: N_18  and  C_19
REMARK    7  A    between atoms: C_19  and  C_20
REMARK    8  A    between atoms: C_19  and  C_21
REMARK    9  A    between atoms: C_22  and  C_23
REMARK   10  A    between atoms: C_26  and  C_27
REMARK                            x       y       z     vdW  Elec       q    Type
REMARK                         _______ _______ _______ _____ _____    ______ ____
ROOT
ATOM      1  C   UNL     1      -1.532  11.781  18.565  0.00  0.00    +0.000 A 
ATOM      2  N   UNL     1      -0.910  10.641  18.154  0.00  0.00    +0.000 N 
ATOM      3  C   UNL     1       0.464  10.759  18.232  0.00  0.00    +0.000 A 
ATOM      4  C   UNL     1       0.717  12.088  18.598  0.00  0.00    +0.000 A 
ATOM      5  C   UNL     1      -0.568  12.712  18.916  0.00  0.00    +0.000 A 
ATOM      6  H   UNL     1      -1.385   9.810  17.849  0.00  0.00    +0.000 HD
ENDROOT
BRANCH   3   7
ATOM      7  N   UNL     1       1.169   9.648  17.884  0.00  0.00    +0.000 NA
ATOM      8  C   UNL     1       1.634   8.767  18.709  0.00  0.00    +0.000 C 
ATOM      9  N   UNL     1       2.373   7.791  18.047  0.00  0.00    +0.000 N 
ATOM     10  C   UNL     1       3.120   6.743  18.587  0.00  0.00    +0.000 C 
ATOM     11  O   UNL     1       3.276   6.588  19.796  0.00  0.00    +0.000 OA
ATOM     12  N   UNL     1       1.585   8.652  20.072  0.00  0.00    +0.000 N 
ATOM     13  H   UNL     1       2.380   7.931  17.049  0.00  0.00    +0.000 HD
ATOM     14  H   UNL     1       2.141   7.860  20.410  0.00  0.00    +0.000 HD
BRANCH  10  15
ATOM     15  C   UNL     1       3.794   5.808  17.632  0.00  0.00    +0.000 A 
ATOM     16  C   UNL     1       4.708   6.343  16.707  0.00  0.00    +0.000 A 
ATOM     17  C   UNL     1       5.372   5.513  15.797  0.00  0.00    +0.000 A 
ATOM     18  C   UNL     1       5.135   4.140  15.805  0.00  0.00    +0.000 A 
ATOM     19  C   UNL     1       4.245   3.599  16.732  0.00  0.00    +0.000 A 
ATOM     20  C   UNL     1       3.577   4.424  17.648  0.00  0.00    +0.000 A 
ENDBRANCH  10  15
BRANCH  12  21
ATOM     21  C   UNL     1       0.490   8.977  20.972  0.00  0.00    +0.000 C 
ATOM     22  C   UNL     1      -0.445   7.796  21.175  0.00  0.00    +0.000 C 
ATOM     23  C   UNL     1       1.079   9.469  22.296  0.00  0.00    +0.000 C 
ENDBRANCH  12  21
ENDBRANCH   3   7
BRANCH   4  24
ATOM     24  C   UNL     1       2.031  12.708  18.759  0.00  0.00    +0.000 C 
ATOM     25  N   UNL     1       2.882  12.659  17.699  0.00  0.00    +0.000 N 
ATOM     26  O   UNL     1       2.399  13.238  19.802  0.00  0.00    +0.000 OA
ATOM     27  H   UNL     1       2.693  11.984  16.973  0.00  0.00    +0.000 HD
ATOM     28  H   UNL     1       3.854  12.799  17.938  0.00  0.00    +0.000 HD
ENDBRANCH   4  24
BRANCH   5  29
ATOM     29  C   UNL     1      -0.871  14.027  19.487  0.00  0.00    +0.000 C 
ATOM     30  N   UNL     1      -0.636  15.125  18.717  0.00  0.00    +0.000 N 
ATOM     31  O   UNL     1      -1.339  14.194  20.612  0.00  0.00    +0.000 OA
ATOM     32  H   UNL     1       0.086  15.093  18.006  0.00  0.00    +0.000 HD
ATOM     33  H   UNL     1      -0.695  16.005  19.220  0.00  0.00    +0.000 HD
ENDBRANCH   5  29
BRANCH   1  34
ATOM     34  S   UNL     1      -3.273  11.752  18.575  0.00  0.00    +0.000 S 
BRANCH  34  36
ATOM     35  C   UNL     1      -3.769  10.965  15.978  0.00  0.00    +0.000 C 
ATOM     36  C   UNL     1      -3.653  10.413  17.392  0.00  0.00    +0.000 C 
ENDBRANCH  34  36
ENDBRANCH   1  34
TORSDOF 7
ENDMDL
MODEL 4
REMARK VINA RESULT:      -6.7      7.604      8.984
REMARK  Name = 
REMARK  10 active torsions:
REMARK  status: ('A' for Active; 'I' for Inactive)
REMARK    1  A    between atoms: C_1  and  C_2
REMARK    2  A    between atoms: C_2  and  S_3
REMARK    3  A    between atoms: S_3  and  C_4
REMARK    4  A    between atoms: C_6  and  N_7
REMARK    5  A    between atoms: C_10  and  C_12
REMARK    6  A    between atoms: N_18  and  C_19
REMARK    7  A    between atoms: C_19  and  C_20
REMARK    8  A    between atoms: C_19  and  C_21
REMARK    9  A    between atoms: C_22  and  C_23
REMARK   10  A    between atoms: C_26  and  C_27
REMARK                            x       y       z     vdW  Elec       q    Type
REMARK                         _______ _______ _______ _____ _____    ______ ____
ROOT
ATOM      1  C   UNL     1      -1.558  12.233  18.889  0.00  0.00    +0.000 A 
ATOM      2  N   UNL     1      -0.974  11.061  18.513  0.00  0.00    +0.000 N 
ATOM      3  C   UNL     1       0.396  11.194  18.396  0.00  0.00    +0.000 A 
ATOM      4  C   UNL     1       0.669  12.555  18.592  0.00  0.00    +0.000 A 
ATOM      5  C   UNL     1      -0.575  13.200  19.016  0.00  0.00    +0.000 A 
ATOM      6  H   UNL     1      -1.469  10.200  18.357  0.00  0.00    +0.000 HD
ENDROOT
BRANCH   3   7
ATOM      7  N   UNL     1       1.070  10.058  18.069  0.00  0.00    +0.000 NA
ATOM      8  C   UNL     1       1.388   9.112  18.891  0.00  0.00    +0.000 C 
ATOM      9  N   UNL     1       2.139   8.123  18.263  0.00  0.00    +0.000 N 
ATOM     10  C   UNL     1       2.758   7.006  18.825  0.00  0.00    +0.000 C 
ATOM     11  O   UNL     1       2.769   6.785  20.034  0.00  0.00    +0.000 OA
ATOM     12  N   UNL     1       1.179   8.937  20.232  0.00  0.00    +0.000 N 
ATOM     13  H   UNL     1       2.266   8.309  17.280  0.00  0.00    +0.000 HD
ATOM     14  H   UNL     1       1.647   8.096  20.586  0.00  0.00    +0.000 HD
BRANCH  10  15
ATOM     15  C   UNL     1       3.481   6.077  17.901  0.00  0.00    +0.000 A 
ATOM     16  C   UNL     1       3.099   4.723  17.881  0.00  0.00    +0.000 A 
ATOM     17  C   UNL     1       3.737   3.814  17.030  0.00  0.00    +0.000 A 
ATOM     18  C   UNL     1       4.758   4.247  16.186  0.00  0.00    +0.000 A 
ATOM     19  C   UNL     1       5.130   5.591  16.186  0.00  0.00    +0.000 A 
ATOM     20  C   UNL     1       4.494   6.508  17.034  0.00  0.00    +0.000 A 
ENDBRANCH  10  15
BRANCH  12  21
ATOM     21  C   UNL     1       0.010   9.288  21.023  0.00  0.00    +0.000 C 
ATOM     22  C   UNL     1      -0.466   8.125  21.877  0.00  0.00    +0.000 C 
ATOM     23  C   UNL     1       0.348  10.515  21.872  0.00  0.00    +0.000 C 
ENDBRANCH  12  21
ENDBRANCH   3   7
BRANCH   4  24
ATOM     24  C   UNL     1       1.980  13.195  18.516  0.00  0.00    +0.000 C 
ATOM     25  N   UNL     1       2.878  12.685  17.630  0.00  0.00    +0.000 N 
ATOM     26  O   UNL     1       2.307  14.143  19.225  0.00  0.00    +0.000 OA
ATOM     27  H   UNL     1       2.715  11.753  17.277  0.00  0.00    +0.000 HD
ATOM     28  H   UNL     1       3.839  12.929  17.824  0.00  0.00    +0.000 HD
ENDBRANCH   4  24
BRANCH   5  29
ATOM     29  C   UNL     1      -0.826  14.563  19.490  0.00  0.00    +0.000 C 
ATOM     30  N   UNL     1      -0.585  15.591  18.629  0.00  0.00    +0.000 N 
ATOM     31  O   UNL     1      -1.253  14.831  20.611  0.00  0.00    +0.000 OA
ATOM     32  H   UNL     1       0.113  15.483  17.902  0.00  0.00    +0.000 HD
ATOM     33  H   UNL     1      -0.606  16.509  19.063  0.00  0.00    +0.000 HD
ENDBRANCH   5  29
BRANCH   1  34
ATOM     34  S   UNL     1      -3.282  12.194  19.132  0.00  0.00    +0.000 S 
BRANCH  34  36
ATOM     35  C   UNL     1      -5.318  11.887  17.297  0.00  0.00    +0.000 C 
ATOM     36  C   UNL     1      -3.885  11.454  17.574  0.00  0.00    +0.000 C 
ENDBRANCH  34  36
ENDBRANCH   1  34
TORSDOF 7
ENDMDL
MODEL 5
REMARK VINA RESULT:      -6.5      7.032      8.862
REMARK  Name = 
REMARK  10 active torsions:
REMARK  status: ('A' for Active; 'I' for Inactive)
REMARK    1  A    between atoms: C_1  and  C_2
REMARK    2  A    between atoms: C_2  and  S_3
REMARK    3  A    between atoms: S_3  and  C_4
REMARK    4  A    between atoms: C_6  and  N_7
REMARK    5  A    between atoms: C_10  and  C_12
REMARK    6  A    between atoms: N_18  and  C_19
REMARK    7  A    between atoms: C_19  and  C_20
REMARK    8  A    between atoms: C_19  and  C_21
REMARK    9  A    between atoms: C_22  and  C_23
REMARK   10  A    between atoms: C_26  and  C_27
REMARK                            x       y       z     vdW  Elec       q    Type
REMARK                         _______ _______ _______ _____ _____    ______ ____
ROOT
ATOM      1  C   UNL     1      -1.219  10.417  18.098  0.00  0.00    +0.000 A 
ATOM      2  N   UNL     1      -0.339   9.478  17.651  0.00  0.00    +0.000 N 
ATOM      3  C   UNL     1       0.969   9.875  17.855  0.00  0.00    +0.000 A 
ATOM      4  C   UNL     1       0.902  11.186  18.345  0.00  0.00    +0.000 A 
ATOM      5  C   UNL     1      -0.506  11.492  18.602  0.00  0.00    +0.000 A 
ATOM      6  H   UNL     1      -0.601   8.598  17.242  0.00  0.00    +0.000 HD
ENDROOT
BRANCH   3   7
ATOM      7  N   UNL     1       1.919   8.976  17.480  0.00  0.00    +0.000 NA
ATOM      8  C   UNL     1       2.498   8.126  18.265  0.00  0.00    +0.000 C 
ATOM      9  N   UNL     1       3.477   7.399  17.594  0.00  0.00    +0.000 N 
ATOM     10  C   UNL     1       4.387   6.475  18.110  0.00  0.00    +0.000 C 
ATOM     11  O   UNL     1       4.480   6.227  19.310  0.00  0.00    +0.000 OA
ATOM     12  N   UNL     1       2.370   7.859  19.601  0.00  0.00    +0.000 N 
ATOM     13  H   UNL     1       3.529   7.643  16.618  0.00  0.00    +0.000 HD
ATOM     14  H   UNL     1       3.056   7.166  19.920  0.00  0.00    +0.000 HD
BRANCH  10  15
ATOM     15  C   UNL     1       5.317   5.807  17.146  0.00  0.00    +0.000 A 
ATOM     16  C   UNL     1       5.064   5.944  15.769  0.00  0.00    +0.000 A 
ATOM     17  C   UNL     1       5.906   5.346  14.825  0.00  0.00    +0.000 A 
ATOM     18  C   UNL     1       7.012   4.611  15.245  0.00  0.00    +0.000 A 
ATOM     19  C   UNL     1       7.282   4.486  16.608  0.00  0.00    +0.000 A 
ATOM     20  C   UNL     1       6.443   5.083  17.559  0.00  0.00    +0.000 A 
ENDBRANCH  10  15
BRANCH  12  21
ATOM     21  C   UNL     1       1.166   7.853  20.415  0.00  0.00    +0.000 C 
ATOM     22  C   UNL     1       0.936   6.505  21.078  0.00  0.00    +0.000 C 
ATOM     23  C   UNL     1       1.270   8.982  21.444  0.00  0.00    +0.000 C 
ENDBRANCH  12  21
ENDBRANCH   3   7
BRANCH   4  24
ATOM     24  C   UNL     1       2.036  12.050  18.665  0.00  0.00    +0.000 C 
ATOM     25  N   UNL     1       2.932  12.304  17.674  0.00  0.00    +0.000 N 
ATOM     26  O   UNL     1       2.223  12.528  19.781  0.00  0.00    +0.000 OA
ATOM     27  H   UNL     1       2.936  11.688  16.873  0.00  0.00    +0.000 HD
ATOM     28  H   UNL     1       3.835  12.620  17.999  0.00  0.00    +0.000 HD
ENDBRANCH   4  24
BRANCH   5  29
ATOM     29  C   UNL     1      -1.125  12.652  19.249  0.00  0.00    +0.000 C 
ATOM     30  N   UNL     1      -0.929  13.876  18.684  0.00  0.00    +0.000 N 
ATOM     31  O   UNL     1      -1.820  12.583  20.260  0.00  0.00    +0.000 OA
ATOM     32  H   UNL     1      -0.088  14.049  18.143  0.00  0.00    +0.000 HD
ATOM     33  H   UNL     1      -1.226  14.654  19.264  0.00  0.00    +0.000 HD
ENDBRANCH   5  29
BRANCH   1  34
ATOM     34  S   UNL     1      -2.909  10.021  17.958  0.00  0.00    +0.000 S 
BRANCH  34  36
ATOM     35  C   UNL     1      -2.922  10.918  15.351  0.00  0.00    +0.000 C 
ATOM     36  C   UNL     1      -3.083   9.650  16.178  0.00  0.00    +0.000 C 
ENDBRANCH  34  36
ENDBRANCH   1  34
TORSDOF 7
ENDMDL
MODEL 6
REMARK VINA RESULT:      -6.5      6.966      8.463
REMARK  Name = 
REMARK  10 active torsions:
REMARK  status: ('A' for Active; 'I' for Inactive)
REMARK    1  A    between atoms: C_1  and  C_2
REMARK    2  A    between atoms: C_2  and  S_3
REMARK    3  A    between atoms: S_3  and  C_4
REMARK    4  A    between atoms: C_6  and  N_7
REMARK    5  A    between atoms: C_10  and  C_12
REMARK    6  A    between atoms: N_18  and  C_19
REMARK    7  A    between atoms: C_19  and  C_20
REMARK    8  A    between atoms: C_19  and  C_21
REMARK    9  A    between atoms: C_22  and  C_23
REMARK   10  A    between atoms: C_26  and  C_27
REMARK                            x       y       z     vdW  Elec       q    Type
REMARK                         _______ _______ _______ _____ _____    ______ ____
ROOT
ATOM      1  C   UNL     1       1.447  13.550  19.838  0.00  0.00    +0.000 A 
ATOM      2  N   UNL     1       2.034  12.366  19.506  0.00  0.00    +0.000 N 
ATOM      3  C   UNL     1       1.176  11.563  18.781  0.00  0.00    +0.000 A 
ATOM      4  C   UNL     1      -0.056  12.232  18.764  0.00  0.00    +0.000 A 
ATOM      5  C   UNL     1       0.151  13.557  19.350  0.00  0.00    +0.000 A 
ATOM      6  H   UNL     1       2.978  12.112  19.739  0.00  0.00    +0.000 HD
ENDROOT
BRANCH   3   7
ATOM      7  N   UNL     1       1.695  10.376  18.364  0.00  0.00    +0.000 NA
ATOM      8  C   UNL     1       1.719   9.285  19.058  0.00  0.00    +0.000 C 
ATOM      9  N   UNL     1       2.385   8.267  18.380  0.00  0.00    +0.000 N 
ATOM     10  C   UNL     1       2.715   6.988  18.830  0.00  0.00    +0.000 C 
ATOM     11  O   UNL     1       2.501   6.607  19.979  0.00  0.00    +0.000 OA
ATOM     12  N   UNL     1       1.279   8.972  20.315  0.00  0.00    +0.000 N 
ATOM     13  H   UNL     1       2.692   8.557  17.465  0.00  0.00    +0.000 HD
ATOM     14  H   UNL     1       1.540   8.018  20.586  0.00  0.00    +0.000 HD
BRANCH  10  15
ATOM     15  C   UNL     1       3.408   6.073  17.869  0.00  0.00    +0.000 A 
ATOM     16  C   UNL     1       4.418   6.607  17.048  0.00  0.00    +0.000 A 
ATOM     17  C   UNL     1       5.102   5.794  16.138  0.00  0.00    +0.000 A 
ATOM     18  C   UNL     1       4.791   4.439  16.042  0.00  0.00    +0.000 A 
ATOM     19  C   UNL     1       3.804   3.898  16.866  0.00  0.00    +0.000 A 
ATOM     20  C   UNL     1       3.115   4.706  17.781  0.00  0.00    +0.000 A 
ENDBRANCH  10  15
BRANCH  12  21
ATOM     21  C   UNL     1       0.076   9.425  20.995  0.00  0.00    +0.000 C 
ATOM     22  C   UNL     1      -0.684   8.273  21.630  0.00  0.00    +0.000 C 
ATOM     23  C   UNL     1       0.471  10.483  22.028  0.00  0.00    +0.000 C 
ENDBRANCH  12  21
ENDBRANCH   3   7
BRANCH   4  24
ATOM     24  C   UNL     1      -1.295  11.751  18.156  0.00  0.00    +0.000 C 
ATOM     25  N   UNL     1      -1.621  12.236  16.928  0.00  0.00    +0.000 N 
ATOM     26  O   UNL     1      -2.052  10.960  18.711  0.00  0.00    +0.000 OA
ATOM     27  H   UNL     1      -1.165  13.083  16.619  0.00  0.00    +0.000 HD
ATOM     28  H   UNL     1      -2.598  12.142  16.689  0.00  0.00    +0.000 HD
ENDBRANCH   4  24
BRANCH   5  29
ATOM     29  C   UNL     1      -0.752  14.706  19.445  0.00  0.00    +0.000 C 
ATOM     30  N   UNL     1      -0.624  15.696  18.518  0.00  0.00    +0.000 N 
ATOM     31  O   UNL     1      -1.627  14.822  20.301  0.00  0.00    +0.000 OA
ATOM     32  H   UNL     1       0.277  15.858  18.080  0.00  0.00    +0.000 HD
ATOM     33  H   UNL     1      -1.147  16.539  18.734  0.00  0.00    +0.000 HD
ENDBRANCH   5  29
BRANCH   1  34
ATOM     34  S   UNL     1       2.439  14.689  20.706  0.00  0.00    +0.000 S 
BRANCH  34  36
ATOM     35  C   UNL     1       2.956  14.986  18.013  0.00  0.00    +0.000 C 
ATOM     36  C   UNL     1       3.204  15.655  19.357  0.00  0.00    +0.000 C 
ENDBRANCH  34  36
ENDBRANCH   1  34
TORSDOF 7
ENDMDL
MODEL 7
REMARK VINA RESULT:      -6.4      7.240      8.549
REMARK  Name = 
REMARK  10 active torsions:
REMARK  status: ('A' for Active; 'I' for Inactive)
REMARK    1  A    between atoms: C_1  and  C_2
REMARK    2  A    between atoms: C_2  and  S_3
REMARK    3  A    between atoms: S_3  and  C_4
REMARK    4  A    between atoms: C_6  and  N_7
REMARK    5  A    between atoms: C_10  and  C_12
REMARK    6  A    between atoms: N_18  and  C_19
REMARK    7  A    between atoms: C_19  and  C_20
REMARK    8  A    between atoms: C_19  and  C_21
REMARK    9  A    between atoms: C_22  and  C_23
REMARK   10  A    between atoms: C_26  and  C_27
REMARK                            x       y       z     vdW  Elec       q    Type
REMARK                         _______ _______ _______ _____ _____    ______ ____
ROOT
ATOM      1  C   UNL     1       1.586  13.708  19.368  0.00  0.00    +0.000 A 
ATOM      2  N   UNL     1       2.099  12.466  19.137  0.00  0.00    +0.000 N 
ATOM      3  C   UNL     1       1.144  11.614  18.617  0.00  0.00    +0.000 A 
ATOM      4  C   UNL     1      -0.061  12.328  18.638  0.00  0.00    +0.000 A 
ATOM      5  C   UNL     1       0.246  13.707  19.019  0.00  0.00    +0.000 A 
ATOM      6  H   UNL     1       3.055  12.204  19.304  0.00  0.00    +0.000 HD
ENDROOT
BRANCH   3   7
ATOM      7  N   UNL     1       1.580  10.362  18.310  0.00  0.00    +0.000 NA
ATOM      8  C   UNL     1       1.571   9.348  19.113  0.00  0.00    +0.000 C 
ATOM      9  N   UNL     1       2.152   8.229  18.524  0.00  0.00    +0.000 N 
ATOM     10  C   UNL     1       2.428   6.986  19.095  0.00  0.00    +0.000 C 
ATOM     11  O   UNL     1       2.238   6.738  20.284  0.00  0.00    +0.000 OA
ATOM     12  N   UNL     1       1.163   9.193  20.410  0.00  0.00    +0.000 N 
ATOM     13  H   UNL     1       2.439   8.405  17.574  0.00  0.00    +0.000 HD
ATOM     14  H   UNL     1       1.382   8.259  20.771  0.00  0.00    +0.000 HD
BRANCH  10  15
ATOM     15  C   UNL     1       3.032   5.938  18.213  0.00  0.00    +0.000 A 
ATOM     16  C   UNL     1       2.351   4.716  18.065  0.00  0.00    +0.000 A 
ATOM     17  C   UNL     1       2.868   3.705  17.246  0.00  0.00    +0.000 A 
ATOM     18  C   UNL     1       4.065   3.906  16.562  0.00  0.00    +0.000 A 
ATOM     19  C   UNL     1       4.737   5.122  16.689  0.00  0.00    +0.000 A 
ATOM     20  C   UNL     1       4.225   6.140  17.506  0.00  0.00    +0.000 A 
ENDBRANCH  10  15
BRANCH  12  21
ATOM     21  C   UNL     1       0.015   9.784  21.078  0.00  0.00    +0.000 C 
ATOM     22  C   UNL     1      -0.718   8.775  21.945  0.00  0.00    +0.000 C 
ATOM     23  C   UNL     1       0.492  10.991  21.890  0.00  0.00    +0.000 C 
ENDBRANCH  12  21
ENDBRANCH   3   7
BRANCH   4  24
ATOM     24  C   UNL     1      -1.372  11.827  18.230  0.00  0.00    +0.000 C 
ATOM     25  N   UNL     1      -1.700  11.925  16.913  0.00  0.00    +0.000 N 
ATOM     26  O   UNL     1      -2.186  11.353  19.018  0.00  0.00    +0.000 OA
ATOM     27  H   UNL     1      -1.168  12.565  16.341  0.00  0.00    +0.000 HD
ATOM     28  H   UNL     1      -2.691  11.874  16.725  0.00  0.00    +0.000 HD
ENDBRANCH   4  24
BRANCH   5  29
ATOM     29  C   UNL     1      -0.607  14.898  19.053  0.00  0.00    +0.000 C 
ATOM     30  N   UNL     1      -1.678  14.890  19.895  0.00  0.00    +0.000 N 
ATOM     31  O   UNL     1      -0.405  15.905  18.378  0.00  0.00    +0.000 OA
ATOM     32  H   UNL     1      -2.115  14.009  20.141  0.00  0.00    +0.000 HD
ATOM     33  H   UNL     1      -2.327  15.657  19.748  0.00  0.00    +0.000 HD
ENDBRANCH   5  29
BRANCH   1  34
ATOM     34  S   UNL     1       2.699  14.904  19.970  0.00  0.00    +0.000 S 
BRANCH  34  36
ATOM     35  C   UNL     1       1.221  15.680  22.166  0.00  0.00    +0.000 C 
ATOM     36  C   UNL     1       2.421  14.830  21.774  0.00  0.00    +0.000 C 
ENDBRANCH  34  36
ENDBRANCH   1  34
TORSDOF 7
ENDMDL
MODEL 8
REMARK VINA RESULT:      -6.4      8.824     10.205
REMARK  Name = 
REMARK  10 active torsions:
REMARK  status: ('A' for Active; 'I' for Inactive)
REMARK    1  A    between atoms: C_1  and  C_2
REMARK    2  A    between atoms: C_2  and  S_3
REMARK    3  A    between atoms: S_3  and  C_4
REMARK    4  A    between atoms: C_6  and  N_7
REMARK    5  A    between atoms: C_10  and  C_12
REMARK    6  A    between atoms: N_18  and  C_19
REMARK    7  A    between atoms: C_19  and  C_20
REMARK    8  A    between atoms: C_19  and  C_21
REMARK    9  A    between atoms: C_22  and  C_23
REMARK   10  A    between atoms: C_26  and  C_27
REMARK                            x       y       z     vdW  Elec       q    Type
REMARK                         _______ _______ _______ _____ _____    ______ ____
ROOT
ATOM      1  C   UNL     1      -1.709  13.056  21.931  0.00  0.00    +0.000 A 
ATOM      2  N   UNL     1      -0.918  11.966  21.722  0.00  0.00    +0.000 N 
ATOM      3  C   UNL     1      -1.093  11.451  20.453  0.00  0.00    +0.000 A 
ATOM      4  C   UNL     1      -2.139  12.186  19.879  0.00  0.00    +0.000 A 
ATOM      5  C   UNL     1      -2.459  13.286  20.790  0.00  0.00    +0.000 A 
ATOM      6  H   UNL     1      -0.273  11.591  22.396  0.00  0.00    +0.000 HD
ENDROOT
BRANCH   3   7
ATOM      7  N   UNL     1      -0.306  10.386  20.138  0.00  0.00    +0.000 NA
ATOM      8  C   UNL     1       0.707  10.413  19.335  0.00  0.00    +0.000 C 
ATOM      9  N   UNL     1       1.256   9.145  19.165  0.00  0.00    +0.000 N 
ATOM     10  C   UNL     1       2.278   8.744  18.304  0.00  0.00    +0.000 C 
ATOM     11  O   UNL     1       2.804   9.501  17.492  0.00  0.00    +0.000 OA
ATOM     12  N   UNL     1       1.283  11.414  18.600  0.00  0.00    +0.000 N 
ATOM     13  H   UNL     1       0.787   8.450  19.724  0.00  0.00    +0.000 HD
ATOM     14  H   UNL     1       2.034  11.061  17.997  0.00  0.00    +0.000 HD
BRANCH  10  15
ATOM     15  C   UNL     1       2.700   7.309  18.353  0.00  0.00    +0.000 A 
ATOM     16  C   UNL     1       3.692   6.873  17.456  0.00  0.00    +0.000 A 
ATOM     17  C   UNL     1       4.129   5.544  17.464  0.00  0.00    +0.000 A 
ATOM     18  C   UNL     1       3.585   4.637  18.372  0.00  0.00    +0.000 A 
ATOM     19  C   UNL     1       2.615   5.065  19.278  0.00  0.00    +0.000 A 
ATOM     20  C   UNL     1       2.174   6.396  19.277  0.00  0.00    +0.000 A 
ENDBRANCH  10  15
BRANCH  12  21
ATOM     21  C   UNL     1       1.479  12.808  18.961  0.00  0.00    +0.000 C 
ATOM     22  C   UNL     1       2.134  12.954  20.325  0.00  0.00    +0.000 C 
ATOM     23  C   UNL     1       2.301  13.484  17.862  0.00  0.00    +0.000 C 
ENDBRANCH  12  21
ENDBRANCH   3   7
BRANCH   4  24
ATOM     24  C   UNL     1      -2.722  11.976  18.556  0.00  0.00    +0.000 C 
ATOM     25  N   UNL     1      -1.893  12.077  17.481  0.00  0.00    +0.000 N 
ATOM     26  O   UNL     1      -3.913  11.742  18.376  0.00  0.00    +0.000 OA
ATOM     27  H   UNL     1      -1.010  12.549  17.610  0.00  0.00    +0.000 HD
ATOM     28  H   UNL     1      -2.366  12.244  16.604  0.00  0.00    +0.000 HD
ENDBRANCH   4  24
BRANCH   5  29
ATOM     29  C   UNL     1      -3.359  14.429  20.621  0.00  0.00    +0.000 C 
ATOM     30  N   UNL     1      -4.661  14.174  20.313  0.00  0.00    +0.000 N 
ATOM     31  O   UNL     1      -3.012  15.601  20.756  0.00  0.00    +0.000 OA
ATOM     32  H   UNL     1      -4.900  13.328  19.809  0.00  0.00    +0.000 HD
ATOM     33  H   UNL     1      -5.191  14.996  20.036  0.00  0.00    +0.000 HD
ENDBRANCH   5  29
BRANCH   1  34
ATOM     34  S   UNL     1      -1.546  13.844  23.475  0.00  0.00    +0.000 S 
BRANCH  34  36
ATOM     35  C   UNL     1      -3.812  12.393  24.081  0.00  0.00    +0.000 C 
ATOM     36  C   UNL     1      -3.256  13.809  24.119  0.00  0.00    +0.000 C 
ENDBRANCH  34  36
ENDBRANCH   1  34
TORSDOF 7
ENDMDL
MODEL 9
REMARK VINA RESULT:      -6.3      7.320      8.488
REMARK  Name = 
REMARK  10 active torsions:
REMARK  status: ('A' for Active; 'I' for Inactive)
REMARK    1  A    between atoms: C_1  and  C_2
REMARK    2  A    between atoms: C_2  and  S_3
REMARK    3  A    between atoms: S_3  and  C_4
REMARK    4  A    between atoms: C_6  and  N_7
REMARK    5  A    between atoms: C_10  and  C_12
REMARK    6  A    between atoms: N_18  and  C_19
REMARK    7  A    between atoms: C_19  and  C_20
REMARK    8  A    between atoms: C_19  and  C_21
REMARK    9  A    between atoms: C_22  and  C_23
REMARK   10  A    between atoms: C_26  and  C_27
REMARK                            x       y       z     vdW  Elec       q    Type
REMARK                         _______ _______ _______ _____ _____    ______ ____
ROOT
ATOM      1  C   UNL     1       1.562  13.571  19.535  0.00  0.00    +0.000 A 
ATOM      2  N   UNL     1       2.148  12.383  19.217  0.00  0.00    +0.000 N 
ATOM      3  C   UNL     1       1.234  11.497  18.680  0.00  0.00    +0.000 A 
ATOM      4  C   UNL     1      -0.015  12.124  18.780  0.00  0.00    +0.000 A 
ATOM      5  C   UNL     1       0.214  13.498  19.230  0.00  0.00    +0.000 A 
ATOM      6  H   UNL     1       3.125  12.177  19.338  0.00  0.00    +0.000 HD
ENDROOT
BRANCH   3   7
ATOM      7  N   UNL     1       1.742  10.297  18.288  0.00  0.00    +0.000 NA
ATOM      8  C   UNL     1       1.758   9.220  19.005  0.00  0.00    +0.000 C 
ATOM      9  N   UNL     1       2.412   8.182  18.347  0.00  0.00    +0.000 N 
ATOM     10  C   UNL     1       2.732   6.910  18.824  0.00  0.00    +0.000 C 
ATOM     11  O   UNL     1       2.517   6.556  19.981  0.00  0.00    +0.000 OA
ATOM     12  N   UNL     1       1.318   8.939  20.269  0.00  0.00    +0.000 N 
ATOM     13  H   UNL     1       2.720   8.450  17.425  0.00  0.00    +0.000 HD
ATOM     14  H   UNL     1       1.571   7.989  20.560  0.00  0.00    +0.000 HD
BRANCH  10  15
ATOM     15  C   UNL     1       3.415   5.969  17.882  0.00  0.00    +0.000 A 
ATOM     16  C   UNL     1       4.417   6.478  17.037  0.00  0.00    +0.000 A 
ATOM     17  C   UNL     1       5.091   5.640  16.142  0.00  0.00    +0.000 A 
ATOM     18  C   UNL     1       4.777   4.284  16.086  0.00  0.00    +0.000 A 
ATOM     19  C   UNL     1       3.798   3.766  16.934  0.00  0.00    +0.000 A 
ATOM     20  C   UNL     1       3.119   4.600  17.834  0.00  0.00    +0.000 A 
ENDBRANCH  10  15
BRANCH  12  21
ATOM     21  C   UNL     1       0.121   9.418  20.942  0.00  0.00    +0.000 C 
ATOM     22  C   UNL     1      -0.648   8.286  21.603  0.00  0.00    +0.000 C 
ATOM     23  C   UNL     1       0.528  10.494  21.951  0.00  0.00    +0.000 C 
ENDBRANCH  12  21
ENDBRANCH   3   7
BRANCH   4  24
ATOM     24  C   UNL     1      -1.303  11.558  18.386  0.00  0.00    +0.000 C 
ATOM     25  N   UNL     1      -1.360  10.889  17.203  0.00  0.00    +0.000 N 
ATOM     26  O   UNL     1      -2.324  11.681  19.056  0.00  0.00    +0.000 OA
ATOM     27  H   UNL     1      -0.616  11.044  16.538  0.00  0.00    +0.000 HD
ATOM     28  H   UNL     1      -2.290  10.798  16.820  0.00  0.00    +0.000 HD
ENDBRANCH   4  24
BRANCH   5  29
ATOM     29  C   UNL     1      -0.716  14.623  19.360  0.00  0.00    +0.000 C 
ATOM     30  N   UNL     1      -0.571  15.671  18.502  0.00  0.00    +0.000 N 
ATOM     31  O   UNL     1      -1.625  14.669  20.186  0.00  0.00    +0.000 OA
ATOM     32  H   UNL     1       0.343  15.877  18.113  0.00  0.00    +0.000 HD
ATOM     33  H   UNL     1      -1.119  16.490  18.750  0.00  0.00    +0.000 HD
ENDBRANCH   5  29
BRANCH   1  34
ATOM     34  S   UNL     1       2.614  14.806  20.170  0.00  0.00    +0.000 S 
BRANCH  34  36
ATOM     35  C   UNL     1       1.774  16.481  22.193  0.00  0.00    +0.000 C 
ATOM     36  C   UNL     1       1.999  15.009  21.878  0.00  0.00    +0.000 C 
ENDBRANCH  34  36
ENDBRANCH   1  34
TORSDOF 7
ENDMDL
