MODEL 1
REMARK VINA RESULT:      -7.7      0.000      0.000
REMARK  Name = 
REMARK  12 active torsions:
REMARK  status: ('A' for Active; 'I' for Inactive)
REMARK    1  A    between atoms: C_1  and  C_2
REMARK    2  A    between atoms: C_2  and  O_3
REMARK    3  A    between atoms: O_3  and  C_4
REMARK    4  A    between atoms: C_4  and  C_6
REMARK    5  A    between atoms: C_7  and  C_8
REMARK    6  A    between atoms: C_10  and  C_11
REMARK    7  A    between atoms: C_12  and  S_13
REMARK    8  A    between atoms: S_13  and  N_16
REMARK    9  A    between atoms: N_16  and  C_17
REMARK   10  A    between atoms: C_17  and  C_18
REMARK   11  A    between atoms: N_23  and  C_24
REMARK   12  A    between atoms: C_30  and  C_31
REMARK                            x       y       z     vdW  Elec       q    Type
REMARK                         _______ _______ _______ _____ _____    ______ ____
ROOT
ATOM      1  N   UNL     1       2.406   6.644  18.621  0.00  0.00    +0.000 NA
ATOM      2  H   UNL     1       1.860   6.706  17.758  0.00  0.00    +0.000 HD
ENDROOT
BRANCH   1   3
ATOM      3  S   UNL     1       2.660   5.072  19.124  0.00  0.00    +0.000 S 
ATOM      4  O   UNL     1       1.395   4.378  19.023  0.00  0.00    +0.000 OA
ATOM      5  O   UNL     1       3.427   5.104  20.347  0.00  0.00    +0.000 OA
BRANCH   3  12
ATOM      6  C   UNL     1       4.716   4.923  17.183  0.00  0.00    +0.000 A 
ATOM      7  C   UNL     1       5.343   3.911  16.454  0.00  0.00    +0.000 A 
ATOM      8  C   UNL     1       6.433   3.945  15.438  0.00  0.00    +0.000 C 
ATOM      9  N   UNL     1       4.790   2.712  16.825  0.00  0.00    +0.000 N 
ATOM     10  C   UNL     1       3.814   2.908  17.768  0.00  0.00    +0.000 A 
ATOM     11  C   UNL     1       3.111   1.760  18.398  0.00  0.00    +0.000 C 
ATOM     12  C   UNL     1       3.717   4.277  17.987  0.00  0.00    +0.000 A 
ATOM     13  H   UNL     1       5.090   1.807  16.479  0.00  0.00    +0.000 HD
BRANCH   6  14
ATOM     14  C   UNL     1       5.079   6.333  17.121  0.00  0.00    +0.000 C 
ATOM     15  O   UNL     1       4.413   7.172  16.513  0.00  0.00    +0.000 OA
BRANCH  14  16
ATOM     16  O   UNL     1       6.173   6.635  17.877  0.00  0.00    +0.000 OA
BRANCH  16  18
ATOM     17  C   UNL     1       8.232   7.854  18.223  0.00  0.00    +0.000 C 
ATOM     18  C   UNL     1       7.015   7.665  17.338  0.00  0.00    +0.000 C 
ENDBRANCH  16  18
ENDBRANCH  14  16
ENDBRANCH   6  14
ENDBRANCH   3  12
ENDBRANCH   1   3
BRANCH   1  19
ATOM     19  C   UNL     1       2.043   7.624  19.650  0.00  0.00    +0.000 C 
BRANCH  19  20
ATOM     20  C   UNL     1       1.512   8.908  19.018  0.00  0.00    +0.000 C 
ATOM     21  O   UNL     1       1.410   9.030  17.796  0.00  0.00    +0.000 OA
ATOM     22  N   UNL     1       1.081   9.894  19.892  0.00  0.00    +0.000 N 
ATOM     23  C   UNL     1       0.395  11.091  19.374  0.00  0.00    +0.000 C 
ATOM     24  C   UNL     1      -0.955  11.328  20.093  0.00  0.00    +0.000 C 
ATOM     25  N   UNL     1      -0.727  11.307  21.552  0.00  0.00    +0.000 N 
ATOM     26  C   UNL     1      -0.149  10.044  22.032  0.00  0.00    +0.000 C 
ATOM     27  C   UNL     1       1.222   9.859  21.358  0.00  0.00    +0.000 C 
BRANCH  25  28
ATOM     28  C   UNL     1      -1.321  12.207  22.417  0.00  0.00    +0.000 A 
ATOM     29  C   UNL     1      -2.519  11.875  23.080  0.00  0.00    +0.000 A 
ATOM     30  C   UNL     1      -3.157  12.770  23.941  0.00  0.00    +0.000 A 
ATOM     31 CL   UNL     1      -4.620  12.314  24.725  0.00  0.00    +0.000 Cl
ATOM     32  C   UNL     1      -2.622  14.028  24.172  0.00  0.00    +0.000 A 
ATOM     33  C   UNL     1      -1.447  14.392  23.524  0.00  0.00    +0.000 A 
ATOM     34  C   UNL     1      -0.798  13.510  22.640  0.00  0.00    +0.000 A 
ATOM     35  C   UNL     1       0.401  14.057  21.902  0.00  0.00    +0.000 C 
ENDBRANCH  25  28
ENDBRANCH  19  20
ENDBRANCH   1  19
TORSDOF 8
ENDMDL
MODEL 2
REMARK VINA RESULT:      -7.6      1.379      1.677
REMARK  Name = 
REMARK  12 active torsions:
REMARK  status: ('A' for Active; 'I' for Inactive)
REMARK    1  A    between atoms: C_1  and  C_2
REMARK    2  A    between atoms: C_2  and  O_3
REMARK    3  A    between atoms: O_3  and  C_4
REMARK    4  A    between atoms: C_4  and  C_6
REMARK    5  A    between atoms: C_7  and  C_8
REMARK    6  A    between atoms: C_10  and  C_11
REMARK    7  A    between atoms: C_12  and  S_13
REMARK    8  A    between atoms: S_13  and  N_16
REMARK    9  A    between atoms: N_16  and  C_17
REMARK   10  A    between atoms: C_17  and  C_18
REMARK   11  A    between atoms: N_23  and  C_24
REMARK   12  A    between atoms: C_30  and  C_31
REMARK                            x       y       z     vdW  Elec       q    Type
REMARK                         _______ _______ _______ _____ _____    ______ ____
ROOT
ATOM      1  N   UNL     1       2.832   6.944  18.189  0.00  0.00    +0.000 NA
ATOM      2  H   UNL     1       2.669   7.078  17.187  0.00  0.00    +0.000 HD
ENDROOT
BRANCH   1   3
ATOM      3  S   UNL     1       2.947   5.336  18.623  0.00  0.00    +0.000 S 
ATOM      4  O   UNL     1       1.642   4.742  18.429  0.00  0.00    +0.000 OA
ATOM      5  O   UNL     1       3.653   5.254  19.881  0.00  0.00    +0.000 OA
BRANCH   3  12
ATOM      6  C   UNL     1       4.943   5.157  16.623  0.00  0.00    +0.000 A 
ATOM      7  C   UNL     1       5.589   4.130  15.933  0.00  0.00    +0.000 A 
ATOM      8  C   UNL     1       6.643   4.148  14.879  0.00  0.00    +0.000 C 
ATOM      9  N   UNL     1       5.103   2.933  16.393  0.00  0.00    +0.000 N 
ATOM     10  C   UNL     1       4.150   3.145  17.357  0.00  0.00    +0.000 A 
ATOM     11  C   UNL     1       3.519   2.008  18.078  0.00  0.00    +0.000 C 
ATOM     12  C   UNL     1       4.001   4.518  17.498  0.00  0.00    +0.000 A 
ATOM     13  H   UNL     1       5.430   2.023  16.091  0.00  0.00    +0.000 HD
BRANCH   6  14
ATOM     14  C   UNL     1       5.242   6.574  16.465  0.00  0.00    +0.000 C 
ATOM     15  O   UNL     1       4.896   7.228  15.480  0.00  0.00    +0.000 OA
BRANCH  14  16
ATOM     16  O   UNL     1       5.859   7.113  17.555  0.00  0.00    +0.000 OA
BRANCH  16  18
ATOM     17  C   UNL     1       7.928   8.361  17.654  0.00  0.00    +0.000 C 
ATOM     18  C   UNL     1       7.289   6.988  17.563  0.00  0.00    +0.000 C 
ENDBRANCH  16  18
ENDBRANCH  14  16
ENDBRANCH   6  14
ENDBRANCH   3  12
ENDBRANCH   1   3
BRANCH   1  19
ATOM     19  C   UNL     1       2.041   7.816  19.062  0.00  0.00    +0.000 C 
BRANCH  19  20
ATOM     20  C   UNL     1       1.879   9.205  18.446  0.00  0.00    +0.000 C 
ATOM     21  O   UNL     1       2.223   9.438  17.286  0.00  0.00    +0.000 OA
ATOM     22  N   UNL     1       1.259  10.161  19.234  0.00  0.00    +0.000 N 
ATOM     23  C   UNL     1       0.906  11.473  18.662  0.00  0.00    +0.000 C 
ATOM     24  C   UNL     1      -0.584  11.816  18.904  0.00  0.00    +0.000 C 
ATOM     25  N   UNL     1      -0.884  11.647  20.340  0.00  0.00    +0.000 N 
ATOM     26  C   UNL     1      -0.624  10.287  20.832  0.00  0.00    +0.000 C 
ATOM     27  C   UNL     1       0.874   9.988  20.646  0.00  0.00    +0.000 C 
BRANCH  25  28
ATOM     28  C   UNL     1      -1.661  12.540  21.054  0.00  0.00    +0.000 A 
ATOM     29  C   UNL     1      -1.158  13.150  22.220  0.00  0.00    +0.000 A 
ATOM     30  C   UNL     1      -1.925  14.039  22.977  0.00  0.00    +0.000 A 
ATOM     31 CL   UNL     1      -1.262  14.756  24.394  0.00  0.00    +0.000 Cl
ATOM     32  C   UNL     1      -3.222  14.349  22.596  0.00  0.00    +0.000 A 
ATOM     33  C   UNL     1      -3.753  13.755  21.458  0.00  0.00    +0.000 A 
ATOM     34  C   UNL     1      -3.001  12.846  20.691  0.00  0.00    +0.000 A 
ATOM     35  C   UNL     1      -3.722  12.172  19.547  0.00  0.00    +0.000 C 
ENDBRANCH  25  28
ENDBRANCH  19  20
ENDBRANCH   1  19
TORSDOF 8
ENDMDL
MODEL 3
REMARK VINA RESULT:      -7.6      1.921      2.155
REMARK  Name = 
REMARK  12 active torsions:
REMARK  status: ('A' for Active; 'I' for Inactive)
REMARK    1  A    between atoms: C_1  and  C_2
REMARK    2  A    between atoms: C_2  and  O_3
REMARK    3  A    between atoms: O_3  and  C_4
REMARK    4  A    between atoms: C_4  and  C_6
REMARK    5  A    between atoms: C_7  and  C_8
REMARK    6  A    between atoms: C_10  and  C_11
REMARK    7  A    between atoms: C_12  and  S_13
REMARK    8  A    between atoms: S_13  and  N_16
REMARK    9  A    between atoms: N_16  and  C_17
REMARK   10  A    between atoms: C_17  and  C_18
REMARK   11  A    between atoms: N_23  and  C_24
REMARK   12  A    between atoms: C_30  and  C_31
REMARK                            x       y       z     vdW  Elec       q    Type
REMARK                         _______ _______ _______ _____ _____    ______ ____
ROOT
ATOM      1  N   UNL     1       3.019   7.777  17.976  0.00  0.00    +0.000 NA
ATOM      2  H   UNL     1       3.806   7.799  17.322  0.00  0.00    +0.000 HD
ENDROOT
BRANCH   1   3
ATOM      3  S   UNL     1       2.712   6.251  18.579  0.00  0.00    +0.000 S 
ATOM      4  O   UNL     1       1.785   5.607  17.673  0.00  0.00    +0.000 OA
ATOM      5  O   UNL     1       2.453   6.365  19.996  0.00  0.00    +0.000 OA
BRANCH   3  12
ATOM      6  C   UNL     1       5.370   5.673  17.791  0.00  0.00    +0.000 A 
ATOM      7  C   UNL     1       6.289   4.648  18.021  0.00  0.00    +0.000 A 
ATOM      8  C   UNL     1       7.686   4.439  17.547  0.00  0.00    +0.000 C 
ATOM      9  N   UNL     1       5.705   3.728  18.855  0.00  0.00    +0.000 N 
ATOM     10  C   UNL     1       4.427   4.115  19.170  0.00  0.00    +0.000 A 
ATOM     11  C   UNL     1       3.600   3.331  20.125  0.00  0.00    +0.000 C 
ATOM     12  C   UNL     1       4.174   5.303  18.496  0.00  0.00    +0.000 A 
ATOM     13  H   UNL     1       6.167   2.901  19.216  0.00  0.00    +0.000 HD
BRANCH   6  14
ATOM     14  C   UNL     1       5.647   6.872  17.013  0.00  0.00    +0.000 C 
ATOM     15  O   UNL     1       5.246   7.032  15.859  0.00  0.00    +0.000 OA
BRANCH  14  16
ATOM     16  O   UNL     1       6.313   7.827  17.724  0.00  0.00    +0.000 OA
BRANCH  16  18
ATOM     17  C   UNL     1       8.279   9.181  18.104  0.00  0.00    +0.000 C 
ATOM     18  C   UNL     1       7.694   7.991  17.368  0.00  0.00    +0.000 C 
ENDBRANCH  16  18
ENDBRANCH  14  16
ENDBRANCH   6  14
ENDBRANCH   3  12
ENDBRANCH   1   3
BRANCH   1  19
ATOM     19  C   UNL     1       1.862   8.581  17.572  0.00  0.00    +0.000 C 
BRANCH  19  20
ATOM     20  C   UNL     1       2.032  10.037  18.000  0.00  0.00    +0.000 C 
ATOM     21  O   UNL     1       2.878  10.766  17.479  0.00  0.00    +0.000 OA
ATOM     22  N   UNL     1       1.136  10.512  18.945  0.00  0.00    +0.000 N 
ATOM     23  C   UNL     1       1.115  11.945  19.287  0.00  0.00    +0.000 C 
ATOM     24  C   UNL     1      -0.311  12.537  19.167  0.00  0.00    +0.000 C 
ATOM     25  N   UNL     1      -1.245  11.687  19.933  0.00  0.00    +0.000 N 
ATOM     26  C   UNL     1      -1.269  10.291  19.473  0.00  0.00    +0.000 C 
ATOM     27  C   UNL     1       0.138   9.699  19.662  0.00  0.00    +0.000 C 
BRANCH  25  28
ATOM     28  C   UNL     1      -2.246  12.204  20.733  0.00  0.00    +0.000 A 
ATOM     29  C   UNL     1      -3.363  12.841  20.156  0.00  0.00    +0.000 A 
ATOM     30  C   UNL     1      -4.379  13.395  20.937  0.00  0.00    +0.000 A 
ATOM     31 CL   UNL     1      -5.722  14.162  20.181  0.00  0.00    +0.000 Cl
ATOM     32  C   UNL     1      -4.317  13.333  22.320  0.00  0.00    +0.000 A 
ATOM     33  C   UNL     1      -3.223  12.723  22.922  0.00  0.00    +0.000 A 
ATOM     34  C   UNL     1      -2.181  12.173  22.153  0.00  0.00    +0.000 A 
ATOM     35  C   UNL     1      -0.987  11.645  22.914  0.00  0.00    +0.000 C 
ENDBRANCH  25  28
ENDBRANCH  19  20
ENDBRANCH   1  19
TORSDOF 8
ENDMDL
MODEL 4
REMARK VINA RESULT:      -7.4      1.267      1.335
REMARK  Name = 
REMARK  12 active torsions:
REMARK  status: ('A' for Active; 'I' for Inactive)
REMARK    1  A    between atoms: C_1  and  C_2
REMARK    2  A    between atoms: C_2  and  O_3
REMARK    3  A    between atoms: O_3  and  C_4
REMARK    4  A    between atoms: C_4  and  C_6
REMARK    5  A    between atoms: C_7  and  C_8
REMARK    6  A    between atoms: C_10  and  C_11
REMARK    7  A    between atoms: C_12  and  S_13
REMARK    8  A    between atoms: S_13  and  N_16
REMARK    9  A    between atoms: N_16  and  C_17
REMARK   10  A    between atoms: C_17  and  C_18
REMARK   11  A    between atoms: N_23  and  C_24
REMARK   12  A    between atoms: C_30  and  C_31
REMARK                            x       y       z     vdW  Elec       q    Type
REMARK                         _______ _______ _______ _____ _____    ______ ____
ROOT
ATOM      1  N   UNL     1       2.480   6.578  20.309  0.00  0.00    +0.000 NA
ATOM      2  H   UNL     1       2.763   6.937  19.393  0.00  0.00    +0.000 HD
ENDROOT
BRANCH   1   3
ATOM      3  S   UNL     1       2.103   4.952  20.287  0.00  0.00    +0.000 S 
ATOM      4  O   UNL     1       0.665   4.843  20.169  0.00  0.00    +0.000 OA
ATOM      5  O   UNL     1       2.842   4.299  21.343  0.00  0.00    +0.000 OA
BRANCH   3  12
ATOM      6  C   UNL     1       3.832   4.763  18.053  0.00  0.00    +0.000 A 
ATOM      7  C   UNL     1       4.027   3.866  17.001  0.00  0.00    +0.000 A 
ATOM      8  C   UNL     1       4.982   3.865  15.857  0.00  0.00    +0.000 C 
ATOM      9  N   UNL     1       3.138   2.832  17.151  0.00  0.00    +0.000 N 
ATOM     10  C   UNL     1       2.360   3.030  18.264  0.00  0.00    +0.000 A 
ATOM     11  C   UNL     1       1.367   2.013  18.698  0.00  0.00    +0.000 C 
ATOM     12  C   UNL     1       2.742   4.240  18.827  0.00  0.00    +0.000 A 
ATOM     13  H   UNL     1       3.091   2.020  16.547  0.00  0.00    +0.000 HD
BRANCH   6  14
ATOM     14  C   UNL     1       4.638   5.955  18.281  0.00  0.00    +0.000 C 
ATOM     15  O   UNL     1       4.468   7.009  17.667  0.00  0.00    +0.000 OA
BRANCH  14  16
ATOM     16  O   UNL     1       5.530   5.807  19.302  0.00  0.00    +0.000 OA
BRANCH  16  18
ATOM     17  C   UNL     1       7.682   6.408  18.378  0.00  0.00    +0.000 C 
ATOM     18  C   UNL     1       6.811   5.288  18.915  0.00  0.00    +0.000 C 
ENDBRANCH  16  18
ENDBRANCH  14  16
ENDBRANCH   6  14
ENDBRANCH   3  12
ENDBRANCH   1   3
BRANCH   1  19
ATOM     19  C   UNL     1       1.586   7.460  21.065  0.00  0.00    +0.000 C 
BRANCH  19  20
ATOM     20  C   UNL     1       1.343   8.767  20.313  0.00  0.00    +0.000 C 
ATOM     21  O   UNL     1       1.544   8.858  19.101  0.00  0.00    +0.000 OA
ATOM     22  N   UNL     1       0.814   9.814  21.050  0.00  0.00    +0.000 N 
ATOM     23  C   UNL     1       0.386  11.051  20.373  0.00  0.00    +0.000 C 
ATOM     24  C   UNL     1      -1.068  11.431  20.748  0.00  0.00    +0.000 C 
ATOM     25  N   UNL     1      -1.193  11.436  22.220  0.00  0.00    +0.000 N 
ATOM     26  C   UNL     1      -0.866  10.142  22.835  0.00  0.00    +0.000 C 
ATOM     27  C   UNL     1       0.601   9.813  22.508  0.00  0.00    +0.000 C 
BRANCH  25  28
ATOM     28  C   UNL     1      -1.886  12.413  22.910  0.00  0.00    +0.000 A 
ATOM     29  C   UNL     1      -3.172  12.148  23.422  0.00  0.00    +0.000 A 
ATOM     30  C   UNL     1      -3.908  13.120  24.103  0.00  0.00    +0.000 A 
ATOM     31 CL   UNL     1      -5.475  12.744  24.707  0.00  0.00    +0.000 Cl
ATOM     32  C   UNL     1      -3.386  14.390  24.298  0.00  0.00    +0.000 A 
ATOM     33  C   UNL     1      -2.125  14.687  23.796  0.00  0.00    +0.000 A 
ATOM     34  C   UNL     1      -1.374  13.727  23.093  0.00  0.00    +0.000 A 
ATOM     35  C   UNL     1      -0.073  14.198  22.488  0.00  0.00    +0.000 C 
ENDBRANCH  25  28
ENDBRANCH  19  20
ENDBRANCH   1  19
TORSDOF 8
ENDMDL
MODEL 5
REMARK VINA RESULT:      -7.4      4.073     10.044
REMARK  Name = 
REMARK  12 active torsions:
REMARK  status: ('A' for Active; 'I' for Inactive)
REMARK    1  A    between atoms: C_1  and  C_2
REMARK    2  A    between atoms: C_2  and  O_3
REMARK    3  A    between atoms: O_3  and  C_4
REMARK    4  A    between atoms: C_4  and  C_6
REMARK    5  A    between atoms: C_7  and  C_8
REMARK    6  A    between atoms: C_10  and  C_11
REMARK    7  A    between atoms: C_12  and  S_13
REMARK    8  A    between atoms: S_13  and  N_16
REMARK    9  A    between atoms: N_16  and  C_17
REMARK   10  A    between atoms: C_17  and  C_18
REMARK   11  A    between atoms: N_23  and  C_24
REMARK   12  A    between atoms: C_30  and  C_31
REMARK                            x       y       z     vdW  Elec       q    Type
REMARK                         _______ _______ _______ _____ _____    ______ ____
ROOT
ATOM      1  N   UNL     1       1.792   7.473  20.682  0.00  0.00    +0.000 NA
ATOM      2  H   UNL     1       2.785   7.524  20.925  0.00  0.00    +0.000 HD
ENDROOT
BRANCH   1   3
ATOM      3  S   UNL     1       0.885   8.695  21.370  0.00  0.00    +0.000 S 
ATOM      4  O   UNL     1       1.713   9.337  22.368  0.00  0.00    +0.000 OA
ATOM      5  O   UNL     1      -0.426   8.171  21.676  0.00  0.00    +0.000 OA
BRANCH   3  12
ATOM      6  C   UNL     1      -0.005  11.208  20.418  0.00  0.00    +0.000 A 
ATOM      7  C   UNL     1      -0.034  11.868  19.188  0.00  0.00    +0.000 A 
ATOM      8  C   UNL     1      -0.537  13.214  18.792  0.00  0.00    +0.000 C 
ATOM      9  N   UNL     1       0.539  11.048  18.249  0.00  0.00    +0.000 N 
ATOM     10  C   UNL     1       0.933   9.867  18.825  0.00  0.00    +0.000 A 
ATOM     11  C   UNL     1       1.655   8.832  18.040  0.00  0.00    +0.000 C 
ATOM     12  C   UNL     1       0.576   9.920  20.166  0.00  0.00    +0.000 A 
ATOM     13  H   UNL     1       0.684  11.297  17.278  0.00  0.00    +0.000 HD
BRANCH   6  14
ATOM     14  C   UNL     1      -0.457  11.786  21.676  0.00  0.00    +0.000 C 
ATOM     15  O   UNL     1      -1.311  11.258  22.390  0.00  0.00    +0.000 OA
BRANCH  14  16
ATOM     16  O   UNL     1       0.226  12.916  22.019  0.00  0.00    +0.000 OA
BRANCH  16  18
ATOM     17  C   UNL     1       0.132  15.300  22.409  0.00  0.00    +0.000 C 
ATOM     18  C   UNL     1      -0.583  13.971  22.560  0.00  0.00    +0.000 C 
ENDBRANCH  16  18
ENDBRANCH  14  16
ENDBRANCH   6  14
ENDBRANCH   3  12
ENDBRANCH   1   3
BRANCH   1  19
ATOM     19  C   UNL     1       1.221   6.123  20.707  0.00  0.00    +0.000 C 
BRANCH  19  20
ATOM     20  C   UNL     1       2.322   5.065  20.758  0.00  0.00    +0.000 C 
ATOM     21  O   UNL     1       2.290   4.142  21.573  0.00  0.00    +0.000 OA
ATOM     22  N   UNL     1       3.312   5.158  19.792  0.00  0.00    +0.000 N 
ATOM     23  C   UNL     1       4.314   4.085  19.657  0.00  0.00    +0.000 C 
ATOM     24  C   UNL     1       4.400   3.568  18.200  0.00  0.00    +0.000 C 
ATOM     25  N   UNL     1       4.577   4.722  17.295  0.00  0.00    +0.000 N 
ATOM     26  C   UNL     1       3.489   5.705  17.387  0.00  0.00    +0.000 C 
ATOM     27  C   UNL     1       3.462   6.257  18.823  0.00  0.00    +0.000 C 
BRANCH  25  28
ATOM     28  C   UNL     1       5.455   4.709  16.228  0.00  0.00    +0.000 A 
ATOM     29  C   UNL     1       5.077   4.131  15.000  0.00  0.00    +0.000 A 
ATOM     30  C   UNL     1       5.948   4.081  13.910  0.00  0.00    +0.000 A 
ATOM     31 CL   UNL     1       5.435   3.361  12.432  0.00  0.00    +0.000 Cl
ATOM     32  C   UNL     1       7.227   4.606  14.006  0.00  0.00    +0.000 A 
ATOM     33  C   UNL     1       7.636   5.174  15.207  0.00  0.00    +0.000 A 
ATOM     34  C   UNL     1       6.779   5.219  16.322  0.00  0.00    +0.000 A 
ATOM     35  C   UNL     1       7.371   5.748  17.607  0.00  0.00    +0.000 C 
ENDBRANCH  25  28
ENDBRANCH  19  20
ENDBRANCH   1  19
TORSDOF 8
ENDMDL
MODEL 6
REMARK VINA RESULT:      -7.4      4.093     10.245
REMARK  Name = 
REMARK  12 active torsions:
REMARK  status: ('A' for Active; 'I' for Inactive)
REMARK    1  A    between atoms: C_1  and  C_2
REMARK    2  A    between atoms: C_2  and  O_3
REMARK    3  A    between atoms: O_3  and  C_4
REMARK    4  A    between atoms: C_4  and  C_6
REMARK    5  A    between atoms: C_7  and  C_8
REMARK    6  A    between atoms: C_10  and  C_11
REMARK    7  A    between atoms: C_12  and  S_13
REMARK    8  A    between atoms: S_13  and  N_16
REMARK    9  A    between atoms: N_16  and  C_17
REMARK   10  A    between atoms: C_17  and  C_18
REMARK   11  A    between atoms: N_23  and  C_24
REMARK   12  A    between atoms: C_30  and  C_31
REMARK                            x       y       z     vdW  Elec       q    Type
REMARK                         _______ _______ _______ _____ _____    ______ ____
ROOT
ATOM      1  N   UNL     1       1.761   7.705  21.126  0.00  0.00    +0.000 NA
ATOM      2  H   UNL     1       2.585   7.614  21.727  0.00  0.00    +0.000 HD
ENDROOT
BRANCH   1   3
ATOM      3  S   UNL     1       0.650   8.810  21.702  0.00  0.00    +0.000 S 
ATOM      4  O   UNL     1       1.266   9.502  22.813  0.00  0.00    +0.000 OA
ATOM      5  O   UNL     1      -0.630   8.151  21.817  0.00  0.00    +0.000 OA
BRANCH   3  12
ATOM      6  C   UNL     1      -0.258  11.299  20.703  0.00  0.00    +0.000 A 
ATOM      7  C   UNL     1      -0.225  11.967  19.478  0.00  0.00    +0.000 A 
ATOM      8  C   UNL     1      -0.745  13.298  19.055  0.00  0.00    +0.000 C 
ATOM      9  N   UNL     1       0.438  11.173  18.577  0.00  0.00    +0.000 N 
ATOM     10  C   UNL     1       0.832  10.001  19.172  0.00  0.00    +0.000 A 
ATOM     11  C   UNL     1       1.641   8.998  18.433  0.00  0.00    +0.000 C 
ATOM     12  C   UNL     1       0.383  10.033  20.486  0.00  0.00    +0.000 A 
ATOM     13  H   UNL     1       0.641  11.434  17.619  0.00  0.00    +0.000 HD
BRANCH   6  14
ATOM     14  C   UNL     1      -0.814  11.853  21.931  0.00  0.00    +0.000 C 
ATOM     15  O   UNL     1      -0.135  12.455  22.763  0.00  0.00    +0.000 OA
BRANCH  14  16
ATOM     16  O   UNL     1      -2.168  11.713  22.014  0.00  0.00    +0.000 OA
BRANCH  16  18
ATOM     17  C   UNL     1      -3.497  13.350  23.195  0.00  0.00    +0.000 C 
ATOM     18  C   UNL     1      -2.733  12.044  23.291  0.00  0.00    +0.000 C 
ENDBRANCH  16  18
ENDBRANCH  14  16
ENDBRANCH   6  14
ENDBRANCH   3  12
ENDBRANCH   1   3
BRANCH   1  19
ATOM     19  C   UNL     1       1.236   6.439  20.607  0.00  0.00    +0.000 C 
BRANCH  19  20
ATOM     20  C   UNL     1       2.291   5.337  20.680  0.00  0.00    +0.000 C 
ATOM     21  O   UNL     1       2.214   4.426  21.506  0.00  0.00    +0.000 OA
ATOM     22  N   UNL     1       3.293   5.378  19.724  0.00  0.00    +0.000 N 
ATOM     23  C   UNL     1       4.251   4.263  19.612  0.00  0.00    +0.000 C 
ATOM     24  C   UNL     1       4.330   3.725  18.162  0.00  0.00    +0.000 C 
ATOM     25  N   UNL     1       4.563   4.860  17.245  0.00  0.00    +0.000 N 
ATOM     26  C   UNL     1       3.515   5.888  17.315  0.00  0.00    +0.000 C 
ATOM     27  C   UNL     1       3.498   6.458  18.743  0.00  0.00    +0.000 C 
BRANCH  25  28
ATOM     28  C   UNL     1       5.450   4.799  16.187  0.00  0.00    +0.000 A 
ATOM     29  C   UNL     1       5.076   4.178  14.978  0.00  0.00    +0.000 A 
ATOM     30  C   UNL     1       5.955   4.078  13.898  0.00  0.00    +0.000 A 
ATOM     31 CL   UNL     1       5.448   3.309  12.444  0.00  0.00    +0.000 Cl
ATOM     32  C   UNL     1       7.239   4.594  13.986  0.00  0.00    +0.000 A 
ATOM     33  C   UNL     1       7.644   5.202  15.169  0.00  0.00    +0.000 A 
ATOM     34  C   UNL     1       6.778   5.298  16.273  0.00  0.00    +0.000 A 
ATOM     35  C   UNL     1       7.365   5.868  17.543  0.00  0.00    +0.000 C 
ENDBRANCH  25  28
ENDBRANCH  19  20
ENDBRANCH   1  19
TORSDOF 8
ENDMDL
MODEL 7
REMARK VINA RESULT:      -7.2      1.205      1.614
REMARK  Name = 
REMARK  12 active torsions:
REMARK  status: ('A' for Active; 'I' for Inactive)
REMARK    1  A    between atoms: C_1  and  C_2
REMARK    2  A    between atoms: C_2  and  O_3
REMARK    3  A    between atoms: O_3  and  C_4
REMARK    4  A    between atoms: C_4  and  C_6
REMARK    5  A    between atoms: C_7  and  C_8
REMARK    6  A    between atoms: C_10  and  C_11
REMARK    7  A    between atoms: C_12  and  S_13
REMARK    8  A    between atoms: S_13  and  N_16
REMARK    9  A    between atoms: N_16  and  C_17
REMARK   10  A    between atoms: C_17  and  C_18
REMARK   11  A    between atoms: N_23  and  C_24
REMARK   12  A    between atoms: C_30  and  C_31
REMARK                            x       y       z     vdW  Elec       q    Type
REMARK                         _______ _______ _______ _____ _____    ______ ____
ROOT
ATOM      1  N   UNL     1       2.374   6.869  18.107  0.00  0.00    +0.000 NA
ATOM      2  H   UNL     1       1.894   7.071  17.226  0.00  0.00    +0.000 HD
ENDROOT
BRANCH   1   3
ATOM      3  S   UNL     1       2.351   5.249  18.509  0.00  0.00    +0.000 S 
ATOM      4  O   UNL     1       1.760   4.537  17.396  0.00  0.00    +0.000 OA
ATOM      5  O   UNL     1       1.851   5.122  19.859  0.00  0.00    +0.000 OA
BRANCH   3  12
ATOM      6  C   UNL     1       5.130   5.259  17.972  0.00  0.00    +0.000 A 
ATOM      7  C   UNL     1       6.234   4.494  18.354  0.00  0.00    +0.000 A 
ATOM      8  C   UNL     1       7.679   4.588  18.003  0.00  0.00    +0.000 C 
ATOM      9  N   UNL     1       5.800   3.519  19.215  0.00  0.00    +0.000 N 
ATOM     10  C   UNL     1       4.445   3.615  19.402  0.00  0.00    +0.000 A 
ATOM     11  C   UNL     1       3.735   2.723  20.354  0.00  0.00    +0.000 C 
ATOM     12  C   UNL     1       3.991   4.665  18.614  0.00  0.00    +0.000 A 
ATOM     13  H   UNL     1       6.404   2.848  19.677  0.00  0.00    +0.000 HD
BRANCH   6  14
ATOM     14  C   UNL     1       5.197   6.438  17.119  0.00  0.00    +0.000 C 
ATOM     15  O   UNL     1       5.770   7.476  17.452  0.00  0.00    +0.000 OA
BRANCH  14  16
ATOM     16  O   UNL     1       4.643   6.238  15.889  0.00  0.00    +0.000 OA
BRANCH  16  18
ATOM     17  C   UNL     1       6.483   5.255  14.667  0.00  0.00    +0.000 C 
ATOM     18  C   UNL     1       5.083   5.050  15.213  0.00  0.00    +0.000 C 
ENDBRANCH  16  18
ENDBRANCH  14  16
ENDBRANCH   6  14
ENDBRANCH   3  12
ENDBRANCH   1   3
BRANCH   1  19
ATOM     19  C   UNL     1       2.113   7.828  19.185  0.00  0.00    +0.000 C 
BRANCH  19  20
ATOM     20  C   UNL     1       1.583   9.147  18.626  0.00  0.00    +0.000 C 
ATOM     21  O   UNL     1       1.468   9.332  17.413  0.00  0.00    +0.000 OA
ATOM     22  N   UNL     1       1.168  10.088  19.554  0.00  0.00    +0.000 N 
ATOM     23  C   UNL     1       0.484  11.315  19.106  0.00  0.00    +0.000 C 
ATOM     24  C   UNL     1      -0.857  11.522  19.852  0.00  0.00    +0.000 C 
ATOM     25  N   UNL     1      -0.613  11.425  21.306  0.00  0.00    +0.000 N 
ATOM     26  C   UNL     1      -0.037  10.135  21.713  0.00  0.00    +0.000 C 
ATOM     27  C   UNL     1       1.325   9.977  21.015  0.00  0.00    +0.000 C 
BRANCH  25  28
ATOM     28  C   UNL     1      -1.191  12.283  22.222  0.00  0.00    +0.000 A 
ATOM     29  C   UNL     1      -2.394  11.933  22.866  0.00  0.00    +0.000 A 
ATOM     30  C   UNL     1      -3.016  12.786  23.780  0.00  0.00    +0.000 A 
ATOM     31 CL   UNL     1      -4.486  12.309  24.538  0.00  0.00    +0.000 Cl
ATOM     32  C   UNL     1      -2.460  14.019  24.082  0.00  0.00    +0.000 A 
ATOM     33  C   UNL     1      -1.280  14.401  23.455  0.00  0.00    +0.000 A 
ATOM     34  C   UNL     1      -0.646  13.562  22.520  0.00  0.00    +0.000 A 
ATOM     35  C   UNL     1       0.561  14.130  21.813  0.00  0.00    +0.000 C 
ENDBRANCH  25  28
ENDBRANCH  19  20
ENDBRANCH   1  19
TORSDOF 8
ENDMDL
MODEL 8
REMARK VINA RESULT:      -7.2      2.342      2.979
REMARK  Name = 
REMARK  12 active torsions:
REMARK  status: ('A' for Active; 'I' for Inactive)
REMARK    1  A    between atoms: C_1  and  C_2
REMARK    2  A    between atoms: C_2  and  O_3
REMARK    3  A    between atoms: O_3  and  C_4
REMARK    4  A    between atoms: C_4  and  C_6
REMARK    5  A    between atoms: C_7  and  C_8
REMARK    6  A    between atoms: C_10  and  C_11
REMARK    7  A    between atoms: C_12  and  S_13
REMARK    8  A    between atoms: S_13  and  N_16
REMARK    9  A    between atoms: N_16  and  C_17
REMARK   10  A    between atoms: C_17  and  C_18
REMARK   11  A    between atoms: N_23  and  C_24
REMARK   12  A    between atoms: C_30  and  C_31
REMARK                            x       y       z     vdW  Elec       q    Type
REMARK                         _______ _______ _______ _____ _____    ______ ____
ROOT
ATOM      1  N   UNL     1       3.199   7.113  18.223  0.00  0.00    +0.000 NA
ATOM      2  H   UNL     1       3.902   7.312  17.506  0.00  0.00    +0.000 HD
ENDROOT
BRANCH   1   3
ATOM      3  S   UNL     1       2.967   5.479  18.478  0.00  0.00    +0.000 S 
ATOM      4  O   UNL     1       1.632   5.157  18.022  0.00  0.00    +0.000 OA
ATOM      5  O   UNL     1       3.428   5.155  19.808  0.00  0.00    +0.000 OA
BRANCH   3  12
ATOM      6  C   UNL     1       5.004   5.159  16.537  0.00  0.00    +0.000 A 
ATOM      7  C   UNL     1       5.661   4.086  15.933  0.00  0.00    +0.000 A 
ATOM      8  C   UNL     1       6.737   4.030  14.903  0.00  0.00    +0.000 C 
ATOM      9  N   UNL     1       5.160   2.924  16.463  0.00  0.00    +0.000 N 
ATOM     10  C   UNL     1       4.188   3.203  17.389  0.00  0.00    +0.000 A 
ATOM     11  C   UNL     1       3.538   2.120  18.172  0.00  0.00    +0.000 C 
ATOM     12  C   UNL     1       4.041   4.584  17.434  0.00  0.00    +0.000 A 
ATOM     13  H   UNL     1       5.490   1.995  16.230  0.00  0.00    +0.000 HD
BRANCH   6  14
ATOM     14  C   UNL     1       5.312   6.561  16.291  0.00  0.00    +0.000 C 
ATOM     15  O   UNL     1       4.970   7.154  15.266  0.00  0.00    +0.000 OA
BRANCH  14  16
ATOM     16  O   UNL     1       5.933   7.164  17.345  0.00  0.00    +0.000 OA
BRANCH  16  18
ATOM     17  C   UNL     1       7.762   6.268  18.648  0.00  0.00    +0.000 C 
ATOM     18  C   UNL     1       7.359   6.998  17.381  0.00  0.00    +0.000 C 
ENDBRANCH  16  18
ENDBRANCH  14  16
ENDBRANCH   6  14
ENDBRANCH   3  12
ENDBRANCH   1   3
BRANCH   1  19
ATOM     19  C   UNL     1       2.001   7.955  18.161  0.00  0.00    +0.000 C 
BRANCH  19  20
ATOM     20  C   UNL     1       1.593   8.430  19.554  0.00  0.00    +0.000 C 
ATOM     21  O   UNL     1       1.931   7.816  20.568  0.00  0.00    +0.000 OA
ATOM     22  N   UNL     1       0.893   9.624  19.619  0.00  0.00    +0.000 N 
ATOM     23  C   UNL     1       0.612  10.244  20.926  0.00  0.00    +0.000 C 
ATOM     24  C   UNL     1       1.073  11.722  20.965  0.00  0.00    +0.000 C 
ATOM     25  N   UNL     1       0.514  12.426  19.793  0.00  0.00    +0.000 N 
ATOM     26  C   UNL     1       0.922  11.835  18.511  0.00  0.00    +0.000 C 
ATOM     27  C   UNL     1       0.397  10.389  18.461  0.00  0.00    +0.000 C 
BRANCH  25  28
ATOM     28  C   UNL     1      -0.020  13.699  19.867  0.00  0.00    +0.000 A 
ATOM     29  C   UNL     1       0.753  14.819  19.504  0.00  0.00    +0.000 A 
ATOM     30  C   UNL     1       0.252  16.120  19.589  0.00  0.00    +0.000 A 
ATOM     31 CL   UNL     1       1.240  17.453  19.133  0.00  0.00    +0.000 Cl
ATOM     32  C   UNL     1      -1.038  16.348  20.041  0.00  0.00    +0.000 A 
ATOM     33  C   UNL     1      -1.824  15.266  20.420  0.00  0.00    +0.000 A 
ATOM     34  C   UNL     1      -1.331  13.949  20.356  0.00  0.00    +0.000 A 
ATOM     35  C   UNL     1      -2.229  12.866  20.907  0.00  0.00    +0.000 C 
ENDBRANCH  25  28
ENDBRANCH  19  20
ENDBRANCH   1  19
TORSDOF 8
ENDMDL
MODEL 9
REMARK VINA RESULT:      -7.2      1.869      2.617
REMARK  Name = 
REMARK  12 active torsions:
REMARK  status: ('A' for Active; 'I' for Inactive)
REMARK    1  A    between atoms: C_1  and  C_2
REMARK    2  A    between atoms: C_2  and  O_3
REMARK    3  A    between atoms: O_3  and  C_4
REMARK    4  A    between atoms: C_4  and  C_6
REMARK    5  A    between atoms: C_7  and  C_8
REMARK    6  A    between atoms: C_10  and  C_11
REMARK    7  A    between atoms: C_12  and  S_13
REMARK    8  A    between atoms: S_13  and  N_16
REMARK    9  A    between atoms: N_16  and  C_17
REMARK   10  A    between atoms: C_17  and  C_18
REMARK   11  A    between atoms: N_23  and  C_24
REMARK   12  A    between atoms: C_30  and  C_31
REMARK                            x       y       z     vdW  Elec       q    Type
REMARK                         _______ _______ _______ _____ _____    ______ ____
ROOT
ATOM      1  N   UNL     1       2.976   4.649  19.570  0.00  0.00    +0.000 NA
ATOM      2  H   UNL     1       2.475   3.836  19.938  0.00  0.00    +0.000 HD
ENDROOT
BRANCH   1   3
ATOM      3  S   UNL     1       4.606   4.365  19.342  0.00  0.00    +0.000 S 
ATOM      4  O   UNL     1       4.890   3.044  19.860  0.00  0.00    +0.000 OA
ATOM      5  O   UNL     1       5.336   5.535  19.770  0.00  0.00    +0.000 OA
BRANCH   3  12
ATOM      6  C   UNL     1       6.176   4.609  16.999  0.00  0.00    +0.000 A 
ATOM      7  C   UNL     1       6.003   4.352  15.638  0.00  0.00    +0.000 A 
ATOM      8  C   UNL     1       6.912   4.523  14.469  0.00  0.00    +0.000 C 
ATOM      9  N   UNL     1       4.742   3.844  15.455  0.00  0.00    +0.000 N 
ATOM     10  C   UNL     1       4.080   3.769  16.655  0.00  0.00    +0.000 A 
ATOM     11  C   UNL     1       2.720   3.177  16.747  0.00  0.00    +0.000 C 
ATOM     12  C   UNL     1       4.932   4.271  17.630  0.00  0.00    +0.000 A 
ATOM     13  H   UNL     1       4.368   3.533  14.566  0.00  0.00    +0.000 HD
BRANCH   6  14
ATOM     14  C   UNL     1       7.414   5.087  17.598  0.00  0.00    +0.000 C 
ATOM     15  O   UNL     1       8.046   4.444  18.438  0.00  0.00    +0.000 OA
BRANCH  14  16
ATOM     16  O   UNL     1       7.842   6.269  17.068  0.00  0.00    +0.000 OA
BRANCH  16  18
ATOM     17  C   UNL     1       8.044   8.546  17.855  0.00  0.00    +0.000 C 
ATOM     18  C   UNL     1       7.095   7.423  17.482  0.00  0.00    +0.000 C 
ENDBRANCH  16  18
ENDBRANCH  14  16
ENDBRANCH   6  14
ENDBRANCH   3  12
ENDBRANCH   1   3
BRANCH   1  19
ATOM     19  C   UNL     1       2.601   5.929  20.176  0.00  0.00    +0.000 C 
BRANCH  19  20
ATOM     20  C   UNL     1       2.498   7.026  19.118  0.00  0.00    +0.000 C 
ATOM     21  O   UNL     1       2.856   6.833  17.955  0.00  0.00    +0.000 OA
ATOM     22  N   UNL     1       1.913   8.217  19.518  0.00  0.00    +0.000 N 
ATOM     23  C   UNL     1       1.617   9.264  18.523  0.00  0.00    +0.000 C 
ATOM     24  C   UNL     1       0.140   9.724  18.606  0.00  0.00    +0.000 C 
ATOM     25  N   UNL     1      -0.172  10.071  20.007  0.00  0.00    +0.000 N 
ATOM     26  C   UNL     1       0.031   8.954  20.941  0.00  0.00    +0.000 C 
ATOM     27  C   UNL     1       1.516   8.555  20.896  0.00  0.00    +0.000 C 
BRANCH  25  28
ATOM     28  C   UNL     1      -0.915  11.183  20.356  0.00  0.00    +0.000 A 
ATOM     29  C   UNL     1      -0.656  11.864  21.561  0.00  0.00    +0.000 A 
ATOM     30  C   UNL     1      -1.403  12.977  21.955  0.00  0.00    +0.000 A 
ATOM     31 CL   UNL     1      -1.044  13.773  23.438  0.00  0.00    +0.000 Cl
ATOM     32  C   UNL     1      -2.436  13.447  21.159  0.00  0.00    +0.000 A 
ATOM     33  C   UNL     1      -2.727  12.790  19.969  0.00  0.00    +0.000 A 
ATOM     34  C   UNL     1      -1.995  11.658  19.563  0.00  0.00    +0.000 A 
ATOM     35  C   UNL     1      -2.478  10.955  18.317  0.00  0.00    +0.000 C 
ENDBRANCH  25  28
ENDBRANCH  19  20
ENDBRANCH   1  19
TORSDOF 8
ENDMDL
