MODEL 1
REMARK VINA RESULT:      -6.3      0.000      0.000
REMARK  Name = 
REMARK  11 active torsions:
REMARK  status: ('A' for Active; 'I' for Inactive)
REMARK    1  A    between atoms: C_1  and  C_2
REMARK    2  A    between atoms: C_2  and  C_3
REMARK    3  A    between atoms: C_3  and  N_4
REMARK    4  A    between atoms: C_3  and  C_5
REMARK    5  A    between atoms: C_3  and  C_7
REMARK    6  A    between atoms: C_5  and  C_6
REMARK    7  A    between atoms: C_7  and  N_8
REMARK    8  A    between atoms: N_8  and  S_9
REMARK    9  A    between atoms: S_9  and  N_12
REMARK   10  A    between atoms: N_12  and  C_13
REMARK   11  A    between atoms: N_12  and  C_14
REMARK                            x       y       z     vdW  Elec       q    Type
REMARK                         _______ _______ _______ _____ _____    ______ ____
ROOT
ATOM      1  N   UNL     1       6.875   4.204  17.899  0.00  0.00    +0.000 NA
ATOM      2  H   UNL     1       7.687   3.704  18.233  0.00  0.00    +0.000 HD
ENDROOT
BRANCH   1   3
ATOM      3  S   UNL     1       6.420   5.374  19.015  0.00  0.00    +0.000 S 
ATOM      4  O   UNL     1       7.165   5.092  20.225  0.00  0.00    +0.000 OA
ATOM      5  O   UNL     1       6.498   6.655  18.363  0.00  0.00    +0.000 OA
BRANCH   3   6
ATOM      6  N   UNL     1       4.805   4.987  19.298  0.00  0.00    +0.000 NA
ATOM      7  C   UNL     1       3.838   6.053  18.992  0.00  0.00    +0.000 C 
BRANCH   6   8
ATOM      8  C   UNL     1       4.394   3.574  18.903  0.00  0.00    +0.000 C 
ATOM      9  C   UNL     1       4.294   2.602  20.096  0.00  0.00    +0.000 C 
ATOM     10  C   UNL     1       2.979   2.673  20.878  0.00  0.00    +0.000 C 
ATOM     11  C   UNL     1       1.754   2.601  19.979  0.00  0.00    +0.000 C 
ATOM     12  C   UNL     1       1.817   3.565  18.799  0.00  0.00    +0.000 C 
ATOM     13  C   UNL     1       3.130   3.470  18.031  0.00  0.00    +0.000 C 
ENDBRANCH   6   8
ENDBRANCH   3   6
ENDBRANCH   1   3
BRANCH   1  14
ATOM     14  C   UNL     1       7.200   4.772  16.565  0.00  0.00    +0.000 C 
BRANCH  14  15
ATOM     15  C   UNL     1       6.244   4.258  15.437  0.00  0.00    +0.000 C 
BRANCH  15  16
ATOM     16  N   UNL     1       5.868   2.859  15.716  0.00  0.00    +0.000 NA
ATOM     17  H   UNL     1       6.365   2.495  16.525  0.00  0.00    +0.000 HD
ATOM     18  H   UNL     1       6.105   2.264  14.923  0.00  0.00    +0.000 HD
ENDBRANCH  15  16
BRANCH  15  20
ATOM     19  C   UNL     1       5.211   6.679  15.501  0.00  0.00    +0.000 C 
ATOM     20  C   UNL     1       4.985   5.172  15.492  0.00  0.00    +0.000 C 
ENDBRANCH  15  20
BRANCH  15  21
ATOM     21  C   UNL     1       6.911   4.238  14.031  0.00  0.00    +0.000 C 
ATOM     22  C   UNL     1       6.096   3.609  12.909  0.00  0.00    +0.000 C 
ENDBRANCH  15  21
ENDBRANCH  14  15
ENDBRANCH   1  14
TORSDOF 8
ENDMDL
MODEL 2
REMARK VINA RESULT:      -6.2      1.563      5.110
REMARK  Name = 
REMARK  11 active torsions:
REMARK  status: ('A' for Active; 'I' for Inactive)
REMARK    1  A    between atoms: C_1  and  C_2
REMARK    2  A    between atoms: C_2  and  C_3
REMARK    3  A    between atoms: C_3  and  N_4
REMARK    4  A    between atoms: C_3  and  C_5
REMARK    5  A    between atoms: C_3  and  C_7
REMARK    6  A    between atoms: C_5  and  C_6
REMARK    7  A    between atoms: C_7  and  N_8
REMARK    8  A    between atoms: N_8  and  S_9
REMARK    9  A    between atoms: S_9  and  N_12
REMARK   10  A    between atoms: N_12  and  C_13
REMARK   11  A    between atoms: N_12  and  C_14
REMARK                            x       y       z     vdW  Elec       q    Type
REMARK                         _______ _______ _______ _____ _____    ______ ____
ROOT
ATOM      1  N   UNL     1       5.173   3.432  19.289  0.00  0.00    +0.000 NA
ATOM      2  H   UNL     1       5.247   3.000  18.378  0.00  0.00    +0.000 HD
ENDROOT
BRANCH   1   3
ATOM      3  S   UNL     1       5.450   5.084  19.167  0.00  0.00    +0.000 S 
ATOM      4  O   UNL     1       4.243   5.734  19.634  0.00  0.00    +0.000 OA
ATOM      5  O   UNL     1       6.732   5.358  19.760  0.00  0.00    +0.000 OA
BRANCH   3   6
ATOM      6  N   UNL     1       5.547   5.306  17.499  0.00  0.00    +0.000 NA
ATOM      7  C   UNL     1       5.748   6.695  17.057  0.00  0.00    +0.000 C 
BRANCH   6   8
ATOM      8  C   UNL     1       6.332   4.240  16.744  0.00  0.00    +0.000 C 
ATOM      9  C   UNL     1       5.496   3.483  15.692  0.00  0.00    +0.000 C 
ATOM     10  C   UNL     1       5.346   4.201  14.348  0.00  0.00    +0.000 C 
ATOM     11  C   UNL     1       6.675   4.680  13.784  0.00  0.00    +0.000 C 
ATOM     12  C   UNL     1       7.516   5.449  14.797  0.00  0.00    +0.000 C 
ATOM     13  C   UNL     1       7.659   4.711  16.124  0.00  0.00    +0.000 C 
ENDBRANCH   6   8
ENDBRANCH   3   6
ENDBRANCH   1   3
BRANCH   1  14
ATOM     14  C   UNL     1       3.832   3.110  19.844  0.00  0.00    +0.000 C 
BRANCH  14  15
ATOM     15  C   UNL     1       2.907   2.380  18.812  0.00  0.00    +0.000 C 
BRANCH  15  16
ATOM     16  N   UNL     1       3.574   1.150  18.343  0.00  0.00    +0.000 NA
ATOM     17  H   UNL     1       2.945   0.575  17.788  0.00  0.00    +0.000 HD
ATOM     18  H   UNL     1       3.875   0.587  19.138  0.00  0.00    +0.000 HD
ENDBRANCH  15  16
BRANCH  15  20
ATOM     19  C   UNL     1       1.390   2.679  20.942  0.00  0.00    +0.000 C 
ATOM     20  C   UNL     1       1.604   2.023  19.584  0.00  0.00    +0.000 C 
ENDBRANCH  15  20
BRANCH  15  21
ATOM     21  C   UNL     1       2.636   3.222  17.532  0.00  0.00    +0.000 C 
ATOM     22  C   UNL     1       1.618   4.348  17.672  0.00  0.00    +0.000 C 
ENDBRANCH  15  21
ENDBRANCH  14  15
ENDBRANCH   1  14
TORSDOF 8
ENDMDL
MODEL 3
REMARK VINA RESULT:      -6.0      2.114      3.209
REMARK  Name = 
REMARK  11 active torsions:
REMARK  status: ('A' for Active; 'I' for Inactive)
REMARK    1  A    between atoms: C_1  and  C_2
REMARK    2  A    between atoms: C_2  and  C_3
REMARK    3  A    between atoms: C_3  and  N_4
REMARK    4  A    between atoms: C_3  and  C_5
REMARK    5  A    between atoms: C_3  and  C_7
REMARK    6  A    between atoms: C_5  and  C_6
REMARK    7  A    between atoms: C_7  and  N_8
REMARK    8  A    between atoms: N_8  and  S_9
REMARK    9  A    between atoms: S_9  and  N_12
REMARK   10  A    between atoms: N_12  and  C_13
REMARK   11  A    between atoms: N_12  and  C_14
REMARK                            x       y       z     vdW  Elec       q    Type
REMARK                         _______ _______ _______ _____ _____    ______ ____
ROOT
ATOM      1  N   UNL     1       5.179   5.651  18.987  0.00  0.00    +0.000 NA
ATOM      2  H   UNL     1       5.749   6.484  19.035  0.00  0.00    +0.000 HD
ENDROOT
BRANCH   1   3
ATOM      3  S   UNL     1       3.707   6.001  18.259  0.00  0.00    +0.000 S 
ATOM      4  O   UNL     1       3.692   7.433  18.041  0.00  0.00    +0.000 OA
ATOM      5  O   UNL     1       3.522   5.072  17.175  0.00  0.00    +0.000 OA
BRANCH   3   6
ATOM      6  N   UNL     1       2.609   5.651  19.489  0.00  0.00    +0.000 NA
ATOM      7  C   UNL     1       1.829   6.797  19.984  0.00  0.00    +0.000 C 
BRANCH   6   8
ATOM      8  C   UNL     1       1.851   4.339  19.332  0.00  0.00    +0.000 C 
ATOM      9  C   UNL     1       2.758   3.133  19.015  0.00  0.00    +0.000 C 
ATOM     10  C   UNL     1       3.433   2.497  20.234  0.00  0.00    +0.000 C 
ATOM     11  C   UNL     1       2.455   2.195  21.360  0.00  0.00    +0.000 C 
ATOM     12  C   UNL     1       1.556   3.378  21.707  0.00  0.00    +0.000 C 
ATOM     13  C   UNL     1       0.888   3.989  20.480  0.00  0.00    +0.000 C 
ENDBRANCH   6   8
ENDBRANCH   3   6
ENDBRANCH   1   3
BRANCH   1  14
ATOM     14  C   UNL     1       5.949   4.607  18.262  0.00  0.00    +0.000 C 
BRANCH  14  15
ATOM     15  C   UNL     1       7.262   5.162  17.613  0.00  0.00    +0.000 C 
BRANCH  15  16
ATOM     16  N   UNL     1       8.317   4.134  17.690  0.00  0.00    +0.000 NA
ATOM     17  H   UNL     1       8.112   3.444  18.408  0.00  0.00    +0.000 HD
ATOM     18  H   UNL     1       9.210   4.561  17.929  0.00  0.00    +0.000 HD
ENDBRANCH  15  16
BRANCH  15  20
ATOM     19  C   UNL     1       6.709   4.268  15.199  0.00  0.00    +0.000 C 
ATOM     20  C   UNL     1       6.911   5.460  16.126  0.00  0.00    +0.000 C 
ENDBRANCH  15  20
BRANCH  15  21
ATOM     21  C   UNL     1       7.833   6.404  18.356  0.00  0.00    +0.000 C 
ATOM     22  C   UNL     1       7.723   7.735  17.623  0.00  0.00    +0.000 C 
ENDBRANCH  15  21
ENDBRANCH  14  15
ENDBRANCH   1  14
TORSDOF 8
ENDMDL
MODEL 4
REMARK VINA RESULT:      -5.9      2.303      3.803
REMARK  Name = 
REMARK  11 active torsions:
REMARK  status: ('A' for Active; 'I' for Inactive)
REMARK    1  A    between atoms: C_1  and  C_2
REMARK    2  A    between atoms: C_2  and  C_3
REMARK    3  A    between atoms: C_3  and  N_4
REMARK    4  A    between atoms: C_3  and  C_5
REMARK    5  A    between atoms: C_3  and  C_7
REMARK    6  A    between atoms: C_5  and  C_6
REMARK    7  A    between atoms: C_7  and  N_8
REMARK    8  A    between atoms: N_8  and  S_9
REMARK    9  A    between atoms: S_9  and  N_12
REMARK   10  A    between atoms: N_12  and  C_13
REMARK   11  A    between atoms: N_12  and  C_14
REMARK                            x       y       z     vdW  Elec       q    Type
REMARK                         _______ _______ _______ _____ _____    ______ ____
ROOT
ATOM      1  N   UNL     1       5.260   4.402  14.510  0.00  0.00    +0.000 NA
ATOM      2  H   UNL     1       4.574   3.945  15.095  0.00  0.00    +0.000 HD
ENDROOT
BRANCH   1   3
ATOM      3  S   UNL     1       6.181   5.466  15.427  0.00  0.00    +0.000 S 
ATOM      4  O   UNL     1       7.533   5.380  14.913  0.00  0.00    +0.000 OA
ATOM      5  O   UNL     1       5.475   6.719  15.485  0.00  0.00    +0.000 OA
BRANCH   3   6
ATOM      6  N   UNL     1       6.155   4.739  16.947  0.00  0.00    +0.000 NA
ATOM      7  C   UNL     1       7.467   4.594  17.600  0.00  0.00    +0.000 C 
BRANCH   6   8
ATOM      8  C   UNL     1       4.998   5.152  17.848  0.00  0.00    +0.000 C 
ATOM      9  C   UNL     1       3.609   4.825  17.261  0.00  0.00    +0.000 C 
ATOM     10  C   UNL     1       3.144   3.381  17.471  0.00  0.00    +0.000 C 
ATOM     11  C   UNL     1       3.276   2.923  18.916  0.00  0.00    +0.000 C 
ATOM     12  C   UNL     1       4.646   3.217  19.517  0.00  0.00    +0.000 C 
ATOM     13  C   UNL     1       5.085   4.662  19.304  0.00  0.00    +0.000 C 
ENDBRANCH   6   8
ENDBRANCH   3   6
ENDBRANCH   1   3
BRANCH   1  14
ATOM     14  C   UNL     1       6.077   3.351  13.850  0.00  0.00    +0.000 C 
BRANCH  14  15
ATOM     15  C   UNL     1       5.996   3.411  12.287  0.00  0.00    +0.000 C 
BRANCH  15  16
ATOM     16  N   UNL     1       7.074   4.280  11.776  0.00  0.00    +0.000 NA
ATOM     17  H   UNL     1       7.929   4.167  12.314  0.00  0.00    +0.000 HD
ATOM     18  H   UNL     1       6.801   5.259  11.846  0.00  0.00    +0.000 HD
ENDBRANCH  15  16
BRANCH  15  20
ATOM     19  C   UNL     1       7.410   1.677  10.899  0.00  0.00    +0.000 C 
ATOM     20  C   UNL     1       6.206   1.950  11.792  0.00  0.00    +0.000 C 
ENDBRANCH  15  20
BRANCH  15  21
ATOM     21  C   UNL     1       4.671   4.038  11.767  0.00  0.00    +0.000 C 
ATOM     22  C   UNL     1       3.773   3.123  10.943  0.00  0.00    +0.000 C 
ENDBRANCH  15  21
ENDBRANCH  14  15
ENDBRANCH   1  14
TORSDOF 8
ENDMDL
MODEL 5
REMARK VINA RESULT:      -5.9      1.860      2.637
REMARK  Name = 
REMARK  11 active torsions:
REMARK  status: ('A' for Active; 'I' for Inactive)
REMARK    1  A    between atoms: C_1  and  C_2
REMARK    2  A    between atoms: C_2  and  C_3
REMARK    3  A    between atoms: C_3  and  N_4
REMARK    4  A    between atoms: C_3  and  C_5
REMARK    5  A    between atoms: C_3  and  C_7
REMARK    6  A    between atoms: C_5  and  C_6
REMARK    7  A    between atoms: C_7  and  N_8
REMARK    8  A    between atoms: N_8  and  S_9
REMARK    9  A    between atoms: S_9  and  N_12
REMARK   10  A    between atoms: N_12  and  C_13
REMARK   11  A    between atoms: N_12  and  C_14
REMARK                            x       y       z     vdW  Elec       q    Type
REMARK                         _______ _______ _______ _____ _____    ______ ____
ROOT
ATOM      1  N   UNL     1       6.284   3.867  18.013  0.00  0.00    +0.000 NA
ATOM      2  H   UNL     1       6.873   3.075  18.233  0.00  0.00    +0.000 HD
ENDROOT
BRANCH   1   3
ATOM      3  S   UNL     1       5.098   4.046  19.188  0.00  0.00    +0.000 S 
ATOM      4  O   UNL     1       5.210   2.893  20.058  0.00  0.00    +0.000 OA
ATOM      5  O   UNL     1       5.187   5.388  19.700  0.00  0.00    +0.000 OA
BRANCH   3   6
ATOM      6  N   UNL     1       3.680   3.883  18.290  0.00  0.00    +0.000 NA
ATOM      7  C   UNL     1       3.464   2.558  17.687  0.00  0.00    +0.000 C 
BRANCH   6   8
ATOM      8  C   UNL     1       2.451   4.560  18.884  0.00  0.00    +0.000 C 
ATOM      9  C   UNL     1       1.124   3.867  18.518  0.00  0.00    +0.000 C 
ATOM     10  C   UNL     1       0.768   2.656  19.385  0.00  0.00    +0.000 C 
ATOM     11  C   UNL     1       0.868   2.948  20.875  0.00  0.00    +0.000 C 
ATOM     12  C   UNL     1       2.180   3.618  21.270  0.00  0.00    +0.000 C 
ATOM     13  C   UNL     1       2.509   4.826  20.399  0.00  0.00    +0.000 C 
ENDBRANCH   6   8
ENDBRANCH   3   6
ENDBRANCH   1   3
BRANCH   1  14
ATOM     14  C   UNL     1       7.152   5.065  17.880  0.00  0.00    +0.000 C 
BRANCH  14  15
ATOM     15  C   UNL     1       6.732   5.991  16.690  0.00  0.00    +0.000 C 
BRANCH  15  16
ATOM     16  N   UNL     1       5.260   6.089  16.644  0.00  0.00    +0.000 NA
ATOM     17  H   UNL     1       4.952   6.709  15.900  0.00  0.00    +0.000 HD
ATOM     18  H   UNL     1       4.904   6.470  17.520  0.00  0.00    +0.000 HD
ENDBRANCH  15  16
BRANCH  15  20
ATOM     19  C   UNL     1       8.128   7.542  18.295  0.00  0.00    +0.000 C 
ATOM     20  C   UNL     1       7.353   7.386  16.993  0.00  0.00    +0.000 C 
ENDBRANCH  15  20
BRANCH  15  21
ATOM     21  C   UNL     1       7.157   5.433  15.301  0.00  0.00    +0.000 C 
ATOM     22  C   UNL     1       6.112   4.607  14.560  0.00  0.00    +0.000 C 
ENDBRANCH  15  21
ENDBRANCH  14  15
ENDBRANCH   1  14
TORSDOF 8
ENDMDL
MODEL 6
REMARK VINA RESULT:      -5.9      2.288      3.286
REMARK  Name = 
REMARK  11 active torsions:
REMARK  status: ('A' for Active; 'I' for Inactive)
REMARK    1  A    between atoms: C_1  and  C_2
REMARK    2  A    between atoms: C_2  and  C_3
REMARK    3  A    between atoms: C_3  and  N_4
REMARK    4  A    between atoms: C_3  and  C_5
REMARK    5  A    between atoms: C_3  and  C_7
REMARK    6  A    between atoms: C_5  and  C_6
REMARK    7  A    between atoms: C_7  and  N_8
REMARK    8  A    between atoms: N_8  and  S_9
REMARK    9  A    between atoms: S_9  and  N_12
REMARK   10  A    between atoms: N_12  and  C_13
REMARK   11  A    between atoms: N_12  and  C_14
REMARK                            x       y       z     vdW  Elec       q    Type
REMARK                         _______ _______ _______ _____ _____    ______ ____
ROOT
ATOM      1  N   UNL     1       5.427   3.295  17.039  0.00  0.00    +0.000 NA
ATOM      2  H   UNL     1       5.943   3.830  17.724  0.00  0.00    +0.000 HD
ENDROOT
BRANCH   1   3
ATOM      3  S   UNL     1       3.837   3.099  17.542  0.00  0.00    +0.000 S 
ATOM      4  O   UNL     1       3.019   3.836  16.601  0.00  0.00    +0.000 OA
ATOM      5  O   UNL     1       3.625   1.696  17.787  0.00  0.00    +0.000 OA
BRANCH   3   6
ATOM      6  N   UNL     1       3.822   3.931  19.007  0.00  0.00    +0.000 NA
ATOM      7  C   UNL     1       4.933   4.874  19.209  0.00  0.00    +0.000 C 
BRANCH   6   8
ATOM      8  C   UNL     1       2.449   4.398  19.477  0.00  0.00    +0.000 C 
ATOM      9  C   UNL     1       1.308   3.423  19.123  0.00  0.00    +0.000 C 
ATOM     10  C   UNL     1       1.143   2.246  20.088  0.00  0.00    +0.000 C 
ATOM     11  C   UNL     1       1.090   2.681  21.546  0.00  0.00    +0.000 C 
ATOM     12  C   UNL     1       2.219   3.632  21.929  0.00  0.00    +0.000 C 
ATOM     13  C   UNL     1       2.359   4.800  20.960  0.00  0.00    +0.000 C 
ENDBRANCH   6   8
ENDBRANCH   3   6
ENDBRANCH   1   3
BRANCH   1  14
ATOM     14  C   UNL     1       5.539   3.992  15.731  0.00  0.00    +0.000 C 
BRANCH  14  15
ATOM     15  C   UNL     1       6.743   4.991  15.676  0.00  0.00    +0.000 C 
BRANCH  15  16
ATOM     16  N   UNL     1       7.844   4.475  16.511  0.00  0.00    +0.000 NA
ATOM     17  H   UNL     1       7.797   3.463  16.604  0.00  0.00    +0.000 HD
ATOM     18  H   UNL     1       7.789   4.867  17.451  0.00  0.00    +0.000 HD
ENDBRANCH  15  16
BRANCH  15  20
ATOM     19  C   UNL     1       6.547   4.050  13.225  0.00  0.00    +0.000 C 
ATOM     20  C   UNL     1       7.184   5.048  14.184  0.00  0.00    +0.000 C 
ENDBRANCH  15  20
BRANCH  15  21
ATOM     21  C   UNL     1       6.401   6.394  16.256  0.00  0.00    +0.000 C 
ATOM     22  C   UNL     1       7.380   6.954  17.280  0.00  0.00    +0.000 C 
ENDBRANCH  15  21
ENDBRANCH  14  15
ENDBRANCH   1  14
TORSDOF 8
ENDMDL
MODEL 7
REMARK VINA RESULT:      -5.9      2.526      5.621
REMARK  Name = 
REMARK  11 active torsions:
REMARK  status: ('A' for Active; 'I' for Inactive)
REMARK    1  A    between atoms: C_1  and  C_2
REMARK    2  A    between atoms: C_2  and  C_3
REMARK    3  A    between atoms: C_3  and  N_4
REMARK    4  A    between atoms: C_3  and  C_5
REMARK    5  A    between atoms: C_3  and  C_7
REMARK    6  A    between atoms: C_5  and  C_6
REMARK    7  A    between atoms: C_7  and  N_8
REMARK    8  A    between atoms: N_8  and  S_9
REMARK    9  A    between atoms: S_9  and  N_12
REMARK   10  A    between atoms: N_12  and  C_13
REMARK   11  A    between atoms: N_12  and  C_14
REMARK                            x       y       z     vdW  Elec       q    Type
REMARK                         _______ _______ _______ _____ _____    ______ ____
ROOT
ATOM      1  N   UNL     1       3.412   5.419  19.875  0.00  0.00    +0.000 NA
ATOM      2  H   UNL     1       4.022   4.669  19.581  0.00  0.00    +0.000 HD
ENDROOT
BRANCH   1   3
ATOM      3  S   UNL     1       2.800   6.224  18.534  0.00  0.00    +0.000 S 
ATOM      4  O   UNL     1       1.751   5.381  17.998  0.00  0.00    +0.000 OA
ATOM      5  O   UNL     1       2.549   7.588  18.919  0.00  0.00    +0.000 OA
BRANCH   3   6
ATOM      6  N   UNL     1       4.103   6.175  17.466  0.00  0.00    +0.000 NA
ATOM      7  C   UNL     1       4.819   7.448  17.285  0.00  0.00    +0.000 C 
BRANCH   6   8
ATOM      8  C   UNL     1       4.967   4.923  17.549  0.00  0.00    +0.000 C 
ATOM      9  C   UNL     1       4.741   3.936  16.386  0.00  0.00    +0.000 C 
ATOM     10  C   UNL     1       5.501   4.270  15.099  0.00  0.00    +0.000 C 
ATOM     11  C   UNL     1       6.979   4.540  15.339  0.00  0.00    +0.000 C 
ATOM     12  C   UNL     1       7.232   5.528  16.473  0.00  0.00    +0.000 C 
ATOM     13  C   UNL     1       6.473   5.170  17.746  0.00  0.00    +0.000 C 
ENDBRANCH   6   8
ENDBRANCH   3   6
ENDBRANCH   1   3
BRANCH   1  14
ATOM     14  C   UNL     1       2.349   4.836  20.735  0.00  0.00    +0.000 C 
BRANCH  14  15
ATOM     15  C   UNL     1       2.305   3.272  20.671  0.00  0.00    +0.000 C 
BRANCH  15  16
ATOM     16  N   UNL     1       2.574   2.721  22.013  0.00  0.00    +0.000 NA
ATOM     17  H   UNL     1       2.223   1.772  22.102  0.00  0.00    +0.000 HD
ATOM     18  H   UNL     1       2.108   3.283  22.725  0.00  0.00    +0.000 HD
ENDBRANCH  15  16
BRANCH  15  20
ATOM     19  C   UNL     1       0.691   2.316  18.824  0.00  0.00    +0.000 C 
ATOM     20  C   UNL     1       0.862   2.903  20.220  0.00  0.00    +0.000 C 
ENDBRANCH  15  20
BRANCH  15  21
ATOM     21  C   UNL     1       3.398   2.667  19.744  0.00  0.00    +0.000 C 
ATOM     22  C   UNL     1       4.589   2.021  20.443  0.00  0.00    +0.000 C 
ENDBRANCH  15  21
ENDBRANCH  14  15
ENDBRANCH   1  14
TORSDOF 8
ENDMDL
MODEL 8
REMARK VINA RESULT:      -5.9      2.532      5.548
REMARK  Name = 
REMARK  11 active torsions:
REMARK  status: ('A' for Active; 'I' for Inactive)
REMARK    1  A    between atoms: C_1  and  C_2
REMARK    2  A    between atoms: C_2  and  C_3
REMARK    3  A    between atoms: C_3  and  N_4
REMARK    4  A    between atoms: C_3  and  C_5
REMARK    5  A    between atoms: C_3  and  C_7
REMARK    6  A    between atoms: C_5  and  C_6
REMARK    7  A    between atoms: C_7  and  N_8
REMARK    8  A    between atoms: N_8  and  S_9
REMARK    9  A    between atoms: S_9  and  N_12
REMARK   10  A    between atoms: N_12  and  C_13
REMARK   11  A    between atoms: N_12  and  C_14
REMARK                            x       y       z     vdW  Elec       q    Type
REMARK                         _______ _______ _______ _____ _____    ______ ____
ROOT
ATOM      1  N   UNL     1       2.215   4.962  17.821  0.00  0.00    +0.000 NA
ATOM      2  H   UNL     1       1.821   5.274  16.944  0.00  0.00    +0.000 HD
ENDROOT
BRANCH   1   3
ATOM      3  S   UNL     1       2.790   6.275  18.695  0.00  0.00    +0.000 S 
ATOM      4  O   UNL     1       2.513   7.449  17.893  0.00  0.00    +0.000 OA
ATOM      5  O   UNL     1       2.302   6.151  20.044  0.00  0.00    +0.000 OA
BRANCH   3   6
ATOM      6  N   UNL     1       4.455   6.014  18.677  0.00  0.00    +0.000 NA
ATOM      7  C   UNL     1       4.906   4.770  19.321  0.00  0.00    +0.000 C 
BRANCH   6   8
ATOM      8  C   UNL     1       5.160   6.394  17.380  0.00  0.00    +0.000 C 
ATOM      9  C   UNL     1       6.663   6.690  17.557  0.00  0.00    +0.000 C 
ATOM     10  C   UNL     1       7.565   5.453  17.584  0.00  0.00    +0.000 C 
ATOM     11  C   UNL     1       7.303   4.505  16.423  0.00  0.00    +0.000 C 
ATOM     12  C   UNL     1       5.825   4.179  16.236  0.00  0.00    +0.000 C 
ATOM     13  C   UNL     1       4.947   5.426  16.203  0.00  0.00    +0.000 C 
ENDBRANCH   6   8
ENDBRANCH   3   6
ENDBRANCH   1   3
BRANCH   1  14
ATOM     14  C   UNL     1       1.171   4.194  18.549  0.00  0.00    +0.000 C 
BRANCH  14  15
ATOM     15  C   UNL     1       1.587   2.709  18.820  0.00  0.00    +0.000 C 
BRANCH  15  16
ATOM     16  N   UNL     1       0.392   1.847  18.749  0.00  0.00    +0.000 NA
ATOM     17  H   UNL     1      -0.316   2.243  18.136  0.00  0.00    +0.000 HD
ATOM     18  H   UNL     1      -0.029   1.750  19.672  0.00  0.00    +0.000 HD
ENDBRANCH  15  16
BRANCH  15  20
ATOM     19  C   UNL     1       3.781   1.464  18.067  0.00  0.00    +0.000 C 
ATOM     20  C   UNL     1       2.588   2.332  17.689  0.00  0.00    +0.000 C 
ENDBRANCH  15  20
BRANCH  15  21
ATOM     21  C   UNL     1       2.177   2.490  20.243  0.00  0.00    +0.000 C 
ATOM     22  C   UNL     1       1.274   2.867  21.410  0.00  0.00    +0.000 C 
ENDBRANCH  15  21
ENDBRANCH  14  15
ENDBRANCH   1  14
TORSDOF 8
ENDMDL
MODEL 9
REMARK VINA RESULT:      -5.9      1.465      2.356
REMARK  Name = 
REMARK  11 active torsions:
REMARK  status: ('A' for Active; 'I' for Inactive)
REMARK    1  A    between atoms: C_1  and  C_2
REMARK    2  A    between atoms: C_2  and  C_3
REMARK    3  A    between atoms: C_3  and  N_4
REMARK    4  A    between atoms: C_3  and  C_5
REMARK    5  A    between atoms: C_3  and  C_7
REMARK    6  A    between atoms: C_5  and  C_6
REMARK    7  A    between atoms: C_7  and  N_8
REMARK    8  A    between atoms: N_8  and  S_9
REMARK    9  A    between atoms: S_9  and  N_12
REMARK   10  A    between atoms: N_12  and  C_13
REMARK   11  A    between atoms: N_12  and  C_14
REMARK                            x       y       z     vdW  Elec       q    Type
REMARK                         _______ _______ _______ _____ _____    ______ ____
ROOT
ATOM      1  N   UNL     1       5.815   3.760  17.620  0.00  0.00    +0.000 NA
ATOM      2  H   UNL     1       6.277   2.865  17.530  0.00  0.00    +0.000 HD
ENDROOT
BRANCH   1   3
ATOM      3  S   UNL     1       5.411   4.041  19.225  0.00  0.00    +0.000 S 
ATOM      4  O   UNL     1       5.457   2.753  19.887  0.00  0.00    +0.000 OA
ATOM      5  O   UNL     1       6.198   5.154  19.687  0.00  0.00    +0.000 OA
BRANCH   3   6
ATOM      6  N   UNL     1       3.796   4.508  19.109  0.00  0.00    +0.000 NA
ATOM      7  C   UNL     1       3.527   5.926  19.393  0.00  0.00    +0.000 C 
BRANCH   6   8
ATOM      8  C   UNL     1       3.023   3.897  17.946  0.00  0.00    +0.000 C 
ATOM      9  C   UNL     1       3.091   2.357  17.899  0.00  0.00    +0.000 C 
ATOM     10  C   UNL     1       2.102   1.639  18.821  0.00  0.00    +0.000 C 
ATOM     11  C   UNL     1       0.677   2.152  18.673  0.00  0.00    +0.000 C 
ATOM     12  C   UNL     1       0.577   3.673  18.735  0.00  0.00    +0.000 C 
ATOM     13  C   UNL     1       1.564   4.366  17.802  0.00  0.00    +0.000 C 
ENDBRANCH   6   8
ENDBRANCH   3   6
ENDBRANCH   1   3
BRANCH   1  14
ATOM     14  C   UNL     1       6.717   4.801  17.060  0.00  0.00    +0.000 C 
BRANCH  14  15
ATOM     15  C   UNL     1       6.453   5.079  15.542  0.00  0.00    +0.000 C 
BRANCH  15  16
ATOM     16  N   UNL     1       7.685   5.602  14.921  0.00  0.00    +0.000 NA
ATOM     17  H   UNL     1       7.508   6.464  14.412  0.00  0.00    +0.000 HD
ATOM     18  H   UNL     1       8.057   4.928  14.252  0.00  0.00    +0.000 HD
ENDBRANCH  15  16
BRANCH  15  20
ATOM     19  C   UNL     1       5.892   3.651  13.403  0.00  0.00    +0.000 C 
ATOM     20  C   UNL     1       6.077   3.705  14.914  0.00  0.00    +0.000 C 
ENDBRANCH  15  20
BRANCH  15  21
ATOM     21  C   UNL     1       5.368   6.168  15.300  0.00  0.00    +0.000 C 
ATOM     22  C   UNL     1       4.951   6.983  16.518  0.00  0.00    +0.000 C 
ENDBRANCH  15  21
ENDBRANCH  14  15
ENDBRANCH   1  14
TORSDOF 8
ENDMDL
