MODEL 1
REMARK VINA RESULT:      -8.8      0.000      0.000
REMARK  Name = 
REMARK  9 active torsions:
REMARK  status: ('A' for Active; 'I' for Inactive)
REMARK    1  A    between atoms: C_1  and  O_2
REMARK    2  A    between atoms: O_2  and  C_3
REMARK    3  A    between atoms: C_5  and  O_6
REMARK    4  A    between atoms: O_6  and  C_7
REMARK    5  A    between atoms: C_8  and  C_9
REMARK    6  A    between atoms: N_13  and  C_14
REMARK    7  A    between atoms: C_15  and  O_16
REMARK    8  A    between atoms: C_17  and  C_18
REMARK    9  A    between atoms: C_18  and  C_20
REMARK                            x       y       z     vdW  Elec       q    Type
REMARK                         _______ _______ _______ _____ _____    ______ ____
ROOT
ATOM      1  C   UNL     1       5.588   6.588  17.007  0.00  0.00    +0.000 A 
ATOM      2  C   UNL     1       4.488   7.041  17.746  0.00  0.00    +0.000 A 
ATOM      3  C   UNL     1       3.511   6.159  18.247  0.00  0.00    +0.000 A 
ATOM      4  C   UNL     1       3.620   4.769  18.025  0.00  0.00    +0.000 A 
ATOM      5  C   UNL     1       4.791   4.333  17.337  0.00  0.00    +0.000 A 
ATOM      6  C   UNL     1       5.774   5.219  16.824  0.00  0.00    +0.000 A 
ENDROOT
BRANCH   4   7
ATOM      7  C   UNL     1       2.588   3.765  18.458  0.00  0.00    +0.000 A 
ATOM      8  C   UNL     1       1.323   3.536  17.924  0.00  0.00    +0.000 A 
ATOM      9  C   UNL     1       0.659   2.679  18.811  0.00  0.00    +0.000 A 
ATOM     10  N   UNL     1       1.452   2.294  19.804  0.00  0.00    +0.000 NA
ATOM     11  N   UNL     1       2.630   2.905  19.547  0.00  0.00    +0.000 N 
ATOM     12  C   UNL     1       3.710   2.588  20.449  0.00  0.00    +0.000 C 
ENDBRANCH   4   7
BRANCH   1  14
ATOM     13  C   UNL     1       7.543   7.783  17.532  0.00  0.00    +0.000 C 
ATOM     14  O   UNL     1       6.463   7.568  16.623  0.00  0.00    +0.000 OA
ENDBRANCH   1  14
BRANCH   3  15
ATOM     15  O   UNL     1       2.493   6.622  19.046  0.00  0.00    +0.000 OA
ATOM     16  C   UNL     1       2.162   8.006  18.911  0.00  0.00    +0.000 C 
ENDBRANCH   3  15
BRANCH   5  17
ATOM     17  O   UNL     1       5.025   2.984  17.177  0.00  0.00    +0.000 OA
ATOM     18  H   UNL     1       5.137   2.823  16.224  0.00  0.00    +0.000 HD
ENDBRANCH   5  17
BRANCH   6  19
ATOM     19  C   UNL     1       6.879   4.655  15.995  0.00  0.00    +0.000 C 
ATOM     20  O   UNL     1       7.868   4.217  16.589  0.00  0.00    +0.000 OA
BRANCH  19  21
ATOM     21  C   UNL     1       6.841   4.495  14.514  0.00  0.00    +0.000 A 
ATOM     22  C   UNL     1       7.721   5.312  13.765  0.00  0.00    +0.000 A 
ATOM     23  C   UNL     1       7.806   5.185  12.377  0.00  0.00    +0.000 A 
ATOM     24  C   UNL     1       7.015   4.247  11.721  0.00  0.00    +0.000 A 
ATOM     25  C   UNL     1       6.140   3.453  12.459  0.00  0.00    +0.000 A 
ATOM     26  F   UNL     1       5.397   2.540  11.819  0.00  0.00    +0.000 F 
ATOM     27  C   UNL     1       6.031   3.575  13.844  0.00  0.00    +0.000 A 
ENDBRANCH  19  21
ENDBRANCH   6  19
TORSDOF 6
ENDMDL
MODEL 2
REMARK VINA RESULT:      -8.4      0.923      1.320
REMARK  Name = 
REMARK  9 active torsions:
REMARK  status: ('A' for Active; 'I' for Inactive)
REMARK    1  A    between atoms: C_1  and  O_2
REMARK    2  A    between atoms: O_2  and  C_3
REMARK    3  A    between atoms: C_5  and  O_6
REMARK    4  A    between atoms: O_6  and  C_7
REMARK    5  A    between atoms: C_8  and  C_9
REMARK    6  A    between atoms: N_13  and  C_14
REMARK    7  A    between atoms: C_15  and  O_16
REMARK    8  A    between atoms: C_17  and  C_18
REMARK    9  A    between atoms: C_18  and  C_20
REMARK                            x       y       z     vdW  Elec       q    Type
REMARK                         _______ _______ _______ _____ _____    ______ ____
ROOT
ATOM      1  C   UNL     1       5.708   6.639  17.037  0.00  0.00    +0.000 A 
ATOM      2  C   UNL     1       4.603   7.119  17.751  0.00  0.00    +0.000 A 
ATOM      3  C   UNL     1       3.599   6.260  18.240  0.00  0.00    +0.000 A 
ATOM      4  C   UNL     1       3.688   4.865  18.033  0.00  0.00    +0.000 A 
ATOM      5  C   UNL     1       4.864   4.402  17.372  0.00  0.00    +0.000 A 
ATOM      6  C   UNL     1       5.874   5.265  16.872  0.00  0.00    +0.000 A 
ENDROOT
BRANCH   4   7
ATOM      7  C   UNL     1       2.629   3.884  18.455  0.00  0.00    +0.000 A 
ATOM      8  C   UNL     1       1.361   3.692  17.914  0.00  0.00    +0.000 A 
ATOM      9  C   UNL     1       0.673   2.844  18.792  0.00  0.00    +0.000 A 
ATOM     10  N   UNL     1       1.453   2.431  19.785  0.00  0.00    +0.000 NA
ATOM     11  N   UNL     1       2.646   3.014  19.536  0.00  0.00    +0.000 N 
ATOM     12  C   UNL     1       3.715   2.662  20.439  0.00  0.00    +0.000 C 
ENDBRANCH   4   7
BRANCH   1  14
ATOM     13  C   UNL     1       7.617   7.874  17.635  0.00  0.00    +0.000 C 
ATOM     14  O   UNL     1       6.609   7.599  16.663  0.00  0.00    +0.000 OA
ENDBRANCH   1  14
BRANCH   3  15
ATOM     15  O   UNL     1       2.575   6.748  19.013  0.00  0.00    +0.000 OA
ATOM     16  C   UNL     1       2.116   8.065  18.698  0.00  0.00    +0.000 C 
ENDBRANCH   3  15
BRANCH   5  17
ATOM     17  O   UNL     1       5.077   3.047  17.230  0.00  0.00    +0.000 OA
ATOM     18  H   UNL     1       4.347   2.698  16.690  0.00  0.00    +0.000 HD
ENDBRANCH   5  17
BRANCH   6  19
ATOM     19  C   UNL     1       6.984   4.673  16.070  0.00  0.00    +0.000 C 
ATOM     20  O   UNL     1       7.915   4.151  16.689  0.00  0.00    +0.000 OA
BRANCH  19  21
ATOM     21  C   UNL     1       7.011   4.583  14.583  0.00  0.00    +0.000 A 
ATOM     22  C   UNL     1       6.227   3.561  13.996  0.00  0.00    +0.000 A 
ATOM     23  C   UNL     1       6.136   3.440  12.608  0.00  0.00    +0.000 A 
ATOM     24  C   UNL     1       6.824   4.333  11.791  0.00  0.00    +0.000 A 
ATOM     25  C   UNL     1       7.604   5.329  12.372  0.00  0.00    +0.000 A 
ATOM     26  F   UNL     1       8.248   6.195  11.576  0.00  0.00    +0.000 F 
ATOM     27  C   UNL     1       7.720   5.457  13.755  0.00  0.00    +0.000 A 
ENDBRANCH  19  21
ENDBRANCH   6  19
TORSDOF 6
ENDMDL
MODEL 3
REMARK VINA RESULT:      -7.7      0.663      1.194
REMARK  Name = 
REMARK  9 active torsions:
REMARK  status: ('A' for Active; 'I' for Inactive)
REMARK    1  A    between atoms: C_1  and  O_2
REMARK    2  A    between atoms: O_2  and  C_3
REMARK    3  A    between atoms: C_5  and  O_6
REMARK    4  A    between atoms: O_6  and  C_7
REMARK    5  A    between atoms: C_8  and  C_9
REMARK    6  A    between atoms: N_13  and  C_14
REMARK    7  A    between atoms: C_15  and  O_16
REMARK    8  A    between atoms: C_17  and  C_18
REMARK    9  A    between atoms: C_18  and  C_20
REMARK                            x       y       z     vdW  Elec       q    Type
REMARK                         _______ _______ _______ _____ _____    ______ ____
ROOT
ATOM      1  C   UNL     1       5.711   6.716  17.128  0.00  0.00    +0.000 A 
ATOM      2  C   UNL     1       4.656   7.242  17.884  0.00  0.00    +0.000 A 
ATOM      3  C   UNL     1       3.700   6.417  18.508  0.00  0.00    +0.000 A 
ATOM      4  C   UNL     1       3.787   5.012  18.400  0.00  0.00    +0.000 A 
ATOM      5  C   UNL     1       4.917   4.506  17.690  0.00  0.00    +0.000 A 
ATOM      6  C   UNL     1       5.878   5.334  17.053  0.00  0.00    +0.000 A 
ENDROOT
BRANCH   4   7
ATOM      7  C   UNL     1       2.773   4.059  18.970  0.00  0.00    +0.000 A 
ATOM      8  C   UNL     1       2.850   3.309  20.140  0.00  0.00    +0.000 A 
ATOM      9  C   UNL     1       1.779   2.407  20.112  0.00  0.00    +0.000 A 
ATOM     10  N   UNL     1       0.999   2.607  19.056  0.00  0.00    +0.000 NA
ATOM     11  N   UNL     1       1.573   3.645  18.409  0.00  0.00    +0.000 N 
ATOM     12  C   UNL     1       0.868   4.125  17.245  0.00  0.00    +0.000 C 
ENDBRANCH   4   7
BRANCH   1  14
ATOM     13  C   UNL     1       7.629   8.023  17.501  0.00  0.00    +0.000 C 
ATOM     14  O   UNL     1       6.571   7.649  16.618  0.00  0.00    +0.000 OA
ENDBRANCH   1  14
BRANCH   3  15
ATOM     15  O   UNL     1       2.730   6.957  19.317  0.00  0.00    +0.000 OA
ATOM     16  C   UNL     1       2.099   8.148  18.840  0.00  0.00    +0.000 C 
ENDBRANCH   3  15
BRANCH   5  17
ATOM     17  O   UNL     1       5.133   3.145  17.634  0.00  0.00    +0.000 OA
ATOM     18  H   UNL     1       6.092   3.004  17.720  0.00  0.00    +0.000 HD
ENDBRANCH   5  17
BRANCH   6  19
ATOM     19  C   UNL     1       6.933   4.690  16.218  0.00  0.00    +0.000 C 
ATOM     20  O   UNL     1       7.891   4.181  16.806  0.00  0.00    +0.000 OA
BRANCH  19  21
ATOM     21  C   UNL     1       6.873   4.531  14.737  0.00  0.00    +0.000 A 
ATOM     22  C   UNL     1       7.750   5.342  13.978  0.00  0.00    +0.000 A 
ATOM     23  C   UNL     1       7.815   5.217  12.589  0.00  0.00    +0.000 A 
ATOM     24  C   UNL     1       7.008   4.285  11.942  0.00  0.00    +0.000 A 
ATOM     25  C   UNL     1       6.138   3.496  12.692  0.00  0.00    +0.000 A 
ATOM     26  F   UNL     1       5.380   2.589  12.061  0.00  0.00    +0.000 F 
ATOM     27  C   UNL     1       6.049   3.617  14.077  0.00  0.00    +0.000 A 
ENDBRANCH  19  21
ENDBRANCH   6  19
TORSDOF 6
ENDMDL
MODEL 4
REMARK VINA RESULT:      -7.5      1.390      1.932
REMARK  Name = 
REMARK  9 active torsions:
REMARK  status: ('A' for Active; 'I' for Inactive)
REMARK    1  A    between atoms: C_1  and  O_2
REMARK    2  A    between atoms: O_2  and  C_3
REMARK    3  A    between atoms: C_5  and  O_6
REMARK    4  A    between atoms: O_6  and  C_7
REMARK    5  A    between atoms: C_8  and  C_9
REMARK    6  A    between atoms: N_13  and  C_14
REMARK    7  A    between atoms: C_15  and  O_16
REMARK    8  A    between atoms: C_17  and  C_18
REMARK    9  A    between atoms: C_18  and  C_20
REMARK                            x       y       z     vdW  Elec       q    Type
REMARK                         _______ _______ _______ _____ _____    ______ ____
ROOT
ATOM      1  C   UNL     1       5.214   6.687  17.486  0.00  0.00    +0.000 A 
ATOM      2  C   UNL     1       4.096   7.215  18.143  0.00  0.00    +0.000 A 
ATOM      3  C   UNL     1       3.270   6.424  18.965  0.00  0.00    +0.000 A 
ATOM      4  C   UNL     1       3.559   5.057  19.166  0.00  0.00    +0.000 A 
ATOM      5  C   UNL     1       4.748   4.569  18.547  0.00  0.00    +0.000 A 
ATOM      6  C   UNL     1       5.579   5.361  17.711  0.00  0.00    +0.000 A 
ENDROOT
BRANCH   4   7
ATOM      7  C   UNL     1       2.693   4.122  19.965  0.00  0.00    +0.000 A 
ATOM      8  C   UNL     1       2.488   4.096  21.342  0.00  0.00    +0.000 A 
ATOM      9  C   UNL     1       1.800   2.908  21.624  0.00  0.00    +0.000 A 
ATOM     10  N   UNL     1       1.491   2.247  20.514  0.00  0.00    +0.000 NA
ATOM     11  N   UNL     1       1.979   3.019  19.519  0.00  0.00    +0.000 N 
ATOM     12  C   UNL     1       1.705   2.561  18.179  0.00  0.00    +0.000 C 
ENDBRANCH   4   7
BRANCH   1  14
ATOM     13  C   UNL     1       7.152   8.013  17.364  0.00  0.00    +0.000 C 
ATOM     14  O   UNL     1       5.931   7.595  16.754  0.00  0.00    +0.000 OA
ENDBRANCH   1  14
BRANCH   3  15
ATOM     15  O   UNL     1       2.234   6.989  19.668  0.00  0.00    +0.000 OA
ATOM     16  C   UNL     1       1.855   8.313  19.283  0.00  0.00    +0.000 C 
ENDBRANCH   3  15
BRANCH   5  17
ATOM     17  O   UNL     1       5.158   3.274  18.784  0.00  0.00    +0.000 OA
ATOM     18  H   UNL     1       5.137   2.806  17.931  0.00  0.00    +0.000 HD
ENDBRANCH   5  17
BRANCH   6  19
ATOM     19  C   UNL     1       6.714   4.701  17.003  0.00  0.00    +0.000 C 
ATOM     20  O   UNL     1       7.593   4.184  17.697  0.00  0.00    +0.000 OA
BRANCH  19  21
ATOM     21  C   UNL     1       6.821   4.538  15.525  0.00  0.00    +0.000 A 
ATOM     22  C   UNL     1       5.905   3.647  14.918  0.00  0.00    +0.000 A 
ATOM     23  C   UNL     1       5.883   3.480  13.532  0.00  0.00    +0.000 A 
ATOM     24  C   UNL     1       6.774   4.196  12.737  0.00  0.00    +0.000 A 
ATOM     25  C   UNL     1       7.683   5.063  13.339  0.00  0.00    +0.000 A 
ATOM     26  F   UNL     1       8.523   5.762  12.563  0.00  0.00    +0.000 F 
ATOM     27  C   UNL     1       7.729   5.232  14.722  0.00  0.00    +0.000 A 
ENDBRANCH  19  21
ENDBRANCH   6  19
TORSDOF 6
ENDMDL
MODEL 5
REMARK VINA RESULT:      -7.0      4.040      7.884
REMARK  Name = 
REMARK  9 active torsions:
REMARK  status: ('A' for Active; 'I' for Inactive)
REMARK    1  A    between atoms: C_1  and  O_2
REMARK    2  A    between atoms: O_2  and  C_3
REMARK    3  A    between atoms: C_5  and  O_6
REMARK    4  A    between atoms: O_6  and  C_7
REMARK    5  A    between atoms: C_8  and  C_9
REMARK    6  A    between atoms: N_13  and  C_14
REMARK    7  A    between atoms: C_15  and  O_16
REMARK    8  A    between atoms: C_17  and  C_18
REMARK    9  A    between atoms: C_18  and  C_20
REMARK                            x       y       z     vdW  Elec       q    Type
REMARK                         _______ _______ _______ _____ _____    ______ ____
ROOT
ATOM      1  C   UNL     1       0.863   8.365  20.578  0.00  0.00    +0.000 A 
ATOM      2  C   UNL     1       1.363   7.138  21.031  0.00  0.00    +0.000 A 
ATOM      3  C   UNL     1       2.241   6.357  20.255  0.00  0.00    +0.000 A 
ATOM      4  C   UNL     1       2.661   6.803  18.982  0.00  0.00    +0.000 A 
ATOM      5  C   UNL     1       2.197   8.091  18.584  0.00  0.00    +0.000 A 
ATOM      6  C   UNL     1       1.305   8.878  19.360  0.00  0.00    +0.000 A 
ENDROOT
BRANCH   4   7
ATOM      7  C   UNL     1       3.536   6.002  18.057  0.00  0.00    +0.000 A 
ATOM      8  C   UNL     1       4.812   6.307  17.591  0.00  0.00    +0.000 A 
ATOM      9  C   UNL     1       5.102   5.383  16.580  0.00  0.00    +0.000 A 
ATOM     10  N   UNL     1       4.137   4.479  16.451  0.00  0.00    +0.000 NA
ATOM     11  N   UNL     1       3.229   4.826  17.389  0.00  0.00    +0.000 N 
ATOM     12  C   UNL     1       2.094   3.944  17.517  0.00  0.00    +0.000 C 
ENDBRANCH   4   7
BRANCH   1  14
ATOM     13  C   UNL     1       0.673   9.344  22.707  0.00  0.00    +0.000 C 
ATOM     14  O   UNL     1       0.049   9.016  21.465  0.00  0.00    +0.000 OA
ENDBRANCH   1  14
BRANCH   3  15
ATOM     15  O   UNL     1       2.786   5.203  20.762  0.00  0.00    +0.000 OA
ATOM     16  C   UNL     1       1.864   4.164  21.101  0.00  0.00    +0.000 C 
ENDBRANCH   3  15
BRANCH   5  17
ATOM     17  O   UNL     1       2.649   8.644  17.404  0.00  0.00    +0.000 OA
ATOM     18  H   UNL     1       3.404   8.107  17.108  0.00  0.00    +0.000 HD
ENDBRANCH   5  17
BRANCH   6  19
ATOM     19  C   UNL     1       0.776  10.143  18.772  0.00  0.00    +0.000 C 
ATOM     20  O   UNL     1       1.585  11.046  18.543  0.00  0.00    +0.000 OA
BRANCH  19  21
ATOM     21  C   UNL     1      -0.638  10.366  18.356  0.00  0.00    +0.000 A 
ATOM     22  C   UNL     1      -1.352  11.371  19.050  0.00  0.00    +0.000 A 
ATOM     23  C   UNL     1      -2.660  11.699  18.687  0.00  0.00    +0.000 A 
ATOM     24  C   UNL     1      -3.270  11.030  17.629  0.00  0.00    +0.000 A 
ATOM     25  C   UNL     1      -2.568  10.033  16.956  0.00  0.00    +0.000 A 
ATOM     26  F   UNL     1      -3.158   9.408  15.927  0.00  0.00    +0.000 F 
ATOM     27  C   UNL     1      -1.268   9.682  17.314  0.00  0.00    +0.000 A 
ENDBRANCH  19  21
ENDBRANCH   6  19
TORSDOF 6
ENDMDL
MODEL 6
REMARK VINA RESULT:      -7.0      4.606      8.035
REMARK  Name = 
REMARK  9 active torsions:
REMARK  status: ('A' for Active; 'I' for Inactive)
REMARK    1  A    between atoms: C_1  and  O_2
REMARK    2  A    between atoms: O_2  and  C_3
REMARK    3  A    between atoms: C_5  and  O_6
REMARK    4  A    between atoms: O_6  and  C_7
REMARK    5  A    between atoms: C_8  and  C_9
REMARK    6  A    between atoms: N_13  and  C_14
REMARK    7  A    between atoms: C_15  and  O_16
REMARK    8  A    between atoms: C_17  and  C_18
REMARK    9  A    between atoms: C_18  and  C_20
REMARK                            x       y       z     vdW  Elec       q    Type
REMARK                         _______ _______ _______ _____ _____    ______ ____
ROOT
ATOM      1  C   UNL     1       1.245   8.488  20.589  0.00  0.00    +0.000 A 
ATOM      2  C   UNL     1       1.613   7.235  21.092  0.00  0.00    +0.000 A 
ATOM      3  C   UNL     1       2.226   6.257  20.285  0.00  0.00    +0.000 A 
ATOM      4  C   UNL     1       2.504   6.522  18.926  0.00  0.00    +0.000 A 
ATOM      5  C   UNL     1       2.188   7.835  18.465  0.00  0.00    +0.000 A 
ATOM      6  C   UNL     1       1.564   8.820  19.274  0.00  0.00    +0.000 A 
ENDROOT
BRANCH   4   7
ATOM      7  C   UNL     1       3.087   5.514  17.974  0.00  0.00    +0.000 A 
ATOM      8  C   UNL     1       2.493   4.368  17.453  0.00  0.00    +0.000 A 
ATOM      9  C   UNL     1       3.507   3.642  16.816  0.00  0.00    +0.000 A 
ATOM     10  N   UNL     1       4.661   4.299  16.830  0.00  0.00    +0.000 NA
ATOM     11  N   UNL     1       4.381   5.452  17.475  0.00  0.00    +0.000 N 
ATOM     12  C   UNL     1       5.465   6.401  17.562  0.00  0.00    +0.000 C 
ENDBRANCH   4   7
BRANCH   1  14
ATOM     13  C   UNL     1      -0.528   8.869  22.087  0.00  0.00    +0.000 C 
ATOM     14  O   UNL     1       0.692   9.336  21.511  0.00  0.00    +0.000 OA
ENDBRANCH   1  14
BRANCH   3  15
ATOM     15  O   UNL     1       2.658   5.071  20.827  0.00  0.00    +0.000 OA
ATOM     16  C   UNL     1       1.661   4.067  21.030  0.00  0.00    +0.000 C 
ENDBRANCH   3  15
BRANCH   5  17
ATOM     17  O   UNL     1       2.530   8.208  17.182  0.00  0.00    +0.000 OA
ATOM     18  H   UNL     1       2.767   7.396  16.702  0.00  0.00    +0.000 HD
ENDBRANCH   5  17
BRANCH   6  19
ATOM     19  C   UNL     1       1.151  10.106  18.639  0.00  0.00    +0.000 C 
ATOM     20  O   UNL     1       2.038  10.807  18.145  0.00  0.00    +0.000 OA
BRANCH  19  21
ATOM     21  C   UNL     1      -0.258  10.565  18.474  0.00  0.00    +0.000 A 
ATOM     22  C   UNL     1      -1.051   9.853  17.544  0.00  0.00    +0.000 A 
ATOM     23  C   UNL     1      -2.401  10.165  17.370  0.00  0.00    +0.000 A 
ATOM     24  C   UNL     1      -2.974  11.189  18.119  0.00  0.00    +0.000 A 
ATOM     25  C   UNL     1      -2.187  11.895  19.026  0.00  0.00    +0.000 A 
ATOM     26  F   UNL     1      -2.754  12.866  19.756  0.00  0.00    +0.000 F 
ATOM     27  C   UNL     1      -0.835  11.608  19.203  0.00  0.00    +0.000 A 
ENDBRANCH  19  21
ENDBRANCH   6  19
TORSDOF 6
ENDMDL
MODEL 7
REMARK VINA RESULT:      -7.0      4.152      7.673
REMARK  Name = 
REMARK  9 active torsions:
REMARK  status: ('A' for Active; 'I' for Inactive)
REMARK    1  A    between atoms: C_1  and  O_2
REMARK    2  A    between atoms: O_2  and  C_3
REMARK    3  A    between atoms: C_5  and  O_6
REMARK    4  A    between atoms: O_6  and  C_7
REMARK    5  A    between atoms: C_8  and  C_9
REMARK    6  A    between atoms: N_13  and  C_14
REMARK    7  A    between atoms: C_15  and  O_16
REMARK    8  A    between atoms: C_17  and  C_18
REMARK    9  A    between atoms: C_18  and  C_20
REMARK                            x       y       z     vdW  Elec       q    Type
REMARK                         _______ _______ _______ _____ _____    ______ ____
ROOT
ATOM      1  C   UNL     1       1.218   8.316  20.404  0.00  0.00    +0.000 A 
ATOM      2  C   UNL     1       1.606   7.068  20.907  0.00  0.00    +0.000 A 
ATOM      3  C   UNL     1       2.333   6.143  20.133  0.00  0.00    +0.000 A 
ATOM      4  C   UNL     1       2.710   6.459  18.809  0.00  0.00    +0.000 A 
ATOM      5  C   UNL     1       2.368   7.767  18.353  0.00  0.00    +0.000 A 
ATOM      6  C   UNL     1       1.629   8.699  19.129  0.00  0.00    +0.000 A 
ENDROOT
BRANCH   4   7
ATOM      7  C   UNL     1       3.420   5.506  17.887  0.00  0.00    +0.000 A 
ATOM      8  C   UNL     1       2.945   4.323  17.328  0.00  0.00    +0.000 A 
ATOM      9  C   UNL     1       4.045   3.682  16.746  0.00  0.00    +0.000 A 
ATOM     10  N   UNL     1       5.144   4.424  16.827  0.00  0.00    +0.000 NA
ATOM     11  N   UNL     1       4.740   5.547  17.461  0.00  0.00    +0.000 N 
ATOM     12  C   UNL     1       5.742   6.575  17.612  0.00  0.00    +0.000 C 
ENDBRANCH   4   7
BRANCH   1  14
ATOM     13  C   UNL     1       1.204   9.269  22.554  0.00  0.00    +0.000 C 
ATOM     14  O   UNL     1       0.549   9.110  21.295  0.00  0.00    +0.000 OA
ENDBRANCH   1  14
BRANCH   3  15
ATOM     15  O   UNL     1       2.777   4.965  20.682  0.00  0.00    +0.000 OA
ATOM     16  C   UNL     1       1.772   4.009  21.026  0.00  0.00    +0.000 C 
ENDBRANCH   3  15
BRANCH   5  17
ATOM     17  O   UNL     1       2.796   8.190  17.113  0.00  0.00    +0.000 OA
ATOM     18  H   UNL     1       3.710   7.876  17.003  0.00  0.00    +0.000 HD
ENDBRANCH   5  17
BRANCH   6  19
ATOM     19  C   UNL     1       1.207   9.980  18.492  0.00  0.00    +0.000 C 
ATOM     20  O   UNL     1       2.094  10.710  18.042  0.00  0.00    +0.000 OA
BRANCH  19  21
ATOM     21  C   UNL     1      -0.206  10.401  18.274  0.00  0.00    +0.000 A 
ATOM     22  C   UNL     1      -0.598  11.630  18.857  0.00  0.00    +0.000 A 
ATOM     23  C   UNL     1      -1.881  12.141  18.652  0.00  0.00    +0.000 A 
ATOM     24  C   UNL     1      -2.787  11.435  17.866  0.00  0.00    +0.000 A 
ATOM     25  C   UNL     1      -2.402  10.220  17.304  0.00  0.00    +0.000 A 
ATOM     26  F   UNL     1      -3.276   9.557  16.534  0.00  0.00    +0.000 F 
ATOM     27  C   UNL     1      -1.131   9.687  17.509  0.00  0.00    +0.000 A 
ENDBRANCH  19  21
ENDBRANCH   6  19
TORSDOF 6
ENDMDL
MODEL 8
REMARK VINA RESULT:      -6.9      4.441      8.100
REMARK  Name = 
REMARK  9 active torsions:
REMARK  status: ('A' for Active; 'I' for Inactive)
REMARK    1  A    between atoms: C_1  and  O_2
REMARK    2  A    between atoms: O_2  and  C_3
REMARK    3  A    between atoms: C_5  and  O_6
REMARK    4  A    between atoms: O_6  and  C_7
REMARK    5  A    between atoms: C_8  and  C_9
REMARK    6  A    between atoms: N_13  and  C_14
REMARK    7  A    between atoms: C_15  and  O_16
REMARK    8  A    between atoms: C_17  and  C_18
REMARK    9  A    between atoms: C_18  and  C_20
REMARK                            x       y       z     vdW  Elec       q    Type
REMARK                         _______ _______ _______ _____ _____    ______ ____
ROOT
ATOM      1  C   UNL     1       0.938   8.416  20.508  0.00  0.00    +0.000 A 
ATOM      2  C   UNL     1       1.391   7.181  20.988  0.00  0.00    +0.000 A 
ATOM      3  C   UNL     1       2.244   6.354  20.233  0.00  0.00    +0.000 A 
ATOM      4  C   UNL     1       2.687   6.758  18.955  0.00  0.00    +0.000 A 
ATOM      5  C   UNL     1       2.272   8.055  18.528  0.00  0.00    +0.000 A 
ATOM      6  C   UNL     1       1.406   8.889  19.283  0.00  0.00    +0.000 A 
ENDROOT
BRANCH   4   7
ATOM      7  C   UNL     1       3.537   5.909  18.051  0.00  0.00    +0.000 A 
ATOM      8  C   UNL     1       4.827   6.157  17.588  0.00  0.00    +0.000 A 
ATOM      9  C   UNL     1       5.089   5.204  16.596  0.00  0.00    +0.000 A 
ATOM     10  N   UNL     1       4.092   4.335  16.477  0.00  0.00    +0.000 NA
ATOM     11  N   UNL     1       3.190   4.733  17.401  0.00  0.00    +0.000 N 
ATOM     12  C   UNL     1       2.022   3.897  17.537  0.00  0.00    +0.000 C 
ENDBRANCH   4   7
BRANCH   1  14
ATOM     13  C   UNL     1       0.739   9.360  22.652  0.00  0.00    +0.000 C 
ATOM     14  O   UNL     1       0.144   9.113  21.378  0.00  0.00    +0.000 OA
ENDBRANCH   1  14
BRANCH   3  15
ATOM     15  O   UNL     1       2.744   5.190  20.766  0.00  0.00    +0.000 OA
ATOM     16  C   UNL     1       1.788   4.171  21.070  0.00  0.00    +0.000 C 
ENDBRANCH   3  15
BRANCH   5  17
ATOM     17  O   UNL     1       2.751   8.568  17.341  0.00  0.00    +0.000 OA
ATOM     18  H   UNL     1       2.708   9.537  17.410  0.00  0.00    +0.000 HD
ENDBRANCH   5  17
BRANCH   6  19
ATOM     19  C   UNL     1       0.925  10.160  18.668  0.00  0.00    +0.000 C 
ATOM     20  O   UNL     1       1.779  10.957  18.272  0.00  0.00    +0.000 OA
BRANCH  19  21
ATOM     21  C   UNL     1      -0.503  10.500  18.412  0.00  0.00    +0.000 A 
ATOM     22  C   UNL     1      -1.171   9.732  17.429  0.00  0.00    +0.000 A 
ATOM     23  C   UNL     1      -2.528   9.931  17.168  0.00  0.00    +0.000 A 
ATOM     24  C   UNL     1      -3.233  10.897  17.881  0.00  0.00    +0.000 A 
ATOM     25  C   UNL     1      -2.570  11.659  18.840  0.00  0.00    +0.000 A 
ATOM     26  F   UNL     1      -3.263  12.573  19.534  0.00  0.00    +0.000 F 
ATOM     27  C   UNL     1      -1.212  11.485  19.104  0.00  0.00    +0.000 A 
ENDBRANCH  19  21
ENDBRANCH   6  19
TORSDOF 6
ENDMDL
MODEL 9
REMARK VINA RESULT:      -6.9      4.394      6.680
REMARK  Name = 
REMARK  9 active torsions:
REMARK  status: ('A' for Active; 'I' for Inactive)
REMARK    1  A    between atoms: C_1  and  O_2
REMARK    2  A    between atoms: O_2  and  C_3
REMARK    3  A    between atoms: C_5  and  O_6
REMARK    4  A    between atoms: O_6  and  C_7
REMARK    5  A    between atoms: C_8  and  C_9
REMARK    6  A    between atoms: N_13  and  C_14
REMARK    7  A    between atoms: C_15  and  O_16
REMARK    8  A    between atoms: C_17  and  C_18
REMARK    9  A    between atoms: C_18  and  C_20
REMARK                            x       y       z     vdW  Elec       q    Type
REMARK                         _______ _______ _______ _____ _____    ______ ____
ROOT
ATOM      1  C   UNL     1       1.985   6.670  20.425  0.00  0.00    +0.000 A 
ATOM      2  C   UNL     1       1.244   7.559  21.213  0.00  0.00    +0.000 A 
ATOM      3  C   UNL     1       0.896   8.847  20.761  0.00  0.00    +0.000 A 
ATOM      4  C   UNL     1       1.280   9.281  19.473  0.00  0.00    +0.000 A 
ATOM      5  C   UNL     1       1.966   8.325  18.666  0.00  0.00    +0.000 A 
ATOM      6  C   UNL     1       2.324   7.029  19.121  0.00  0.00    +0.000 A 
ENDROOT
BRANCH   4   7
ATOM      7  C   UNL     1       1.018  10.662  18.938  0.00  0.00    +0.000 A 
ATOM      8  C   UNL     1       1.903  11.730  18.821  0.00  0.00    +0.000 A 
ATOM      9  C   UNL     1       1.136  12.856  18.498  0.00  0.00    +0.000 A 
ATOM     10  N   UNL     1      -0.142  12.542  18.320  0.00  0.00    +0.000 NA
ATOM     11  N   UNL     1      -0.190  11.208  18.526  0.00  0.00    +0.000 N 
ATOM     12  C   UNL     1      -1.475  10.588  18.315  0.00  0.00    +0.000 C 
ENDBRANCH   4   7
BRANCH   1  14
ATOM     13  C   UNL     1       1.275   4.437  20.612  0.00  0.00    +0.000 C 
ATOM     14  O   UNL     1       2.208   5.447  20.996  0.00  0.00    +0.000 OA
ENDBRANCH   1  14
BRANCH   3  15
ATOM     15  O   UNL     1       0.092   9.663  21.519  0.00  0.00    +0.000 OA
ATOM     16  C   UNL     1       0.052   9.386  22.921  0.00  0.00    +0.000 C 
ENDBRANCH   3  15
BRANCH   5  17
ATOM     17  O   UNL     1       2.277   8.634  17.359  0.00  0.00    +0.000 OA
ATOM     18  H   UNL     1       3.200   8.363  17.213  0.00  0.00    +0.000 HD
ENDBRANCH   5  17
BRANCH   6  19
ATOM     19  C   UNL     1       3.167   6.171  18.238  0.00  0.00    +0.000 C 
ATOM     20  O   UNL     1       2.586   5.467  17.408  0.00  0.00    +0.000 OA
BRANCH  19  21
ATOM     21  C   UNL     1       4.657   6.169  18.218  0.00  0.00    +0.000 A 
ATOM     22  C   UNL     1       5.278   6.824  17.128  0.00  0.00    +0.000 A 
ATOM     23  C   UNL     1       6.668   6.933  17.058  0.00  0.00    +0.000 A 
ATOM     24  C   UNL     1       7.454   6.390  18.070  0.00  0.00    +0.000 A 
ATOM     25  C   UNL     1       6.841   5.735  19.136  0.00  0.00    +0.000 A 
ATOM     26  F   UNL     1       7.606   5.232  20.114  0.00  0.00    +0.000 F 
ATOM     27  C   UNL     1       5.455   5.604  19.216  0.00  0.00    +0.000 A 
ENDBRANCH  19  21
ENDBRANCH   6  19
TORSDOF 6
ENDMDL
