MODEL 1
REMARK VINA RESULT:     -10.8      0.000      0.000
REMARK  Name = 
REMARK  5 active torsions:
REMARK  status: ('A' for Active; 'I' for Inactive)
REMARK    1  A    between atoms: C_2  and  C_3
REMARK    2  A    between atoms: C_2  and  C_12
REMARK    3  A    between atoms: C_4  and  C_5
REMARK    4  A    between atoms: C_16  and  N_17
REMARK    5  A    between atoms: N_17  and  C_18
REMARK                            x       y       z     vdW  Elec       q    Type
REMARK                         _______ _______ _______ _____ _____    ______ ____
ROOT
ATOM      1  C   UNL     1       0.823   9.394  21.211  0.00  0.00    +0.000 A 
ATOM      2  C   UNL     1       0.704  10.209  20.094  0.00  0.00    +0.000 A 
ATOM      3  C   UNL     1       1.189   9.780  18.857  0.00  0.00    +0.000 A 
ATOM      4  C   UNL     1       1.805   8.533  18.745  0.00  0.00    +0.000 A 
ATOM      5  C   UNL     1       1.972   7.710  19.858  0.00  0.00    +0.000 A 
ATOM      6  C   UNL     1       1.487   8.151  21.110  0.00  0.00    +0.000 A 
ENDROOT
BRANCH   1   8
ATOM      7  O   UNL     1       0.722   9.667  23.552  0.00  0.00    +0.000 OA
ATOM      8  C   UNL     1       0.161   9.831  22.470  0.00  0.00    +0.000 C 
BRANCH   8   9
ATOM      9  C   UNL     1      -1.171  10.455  22.367  0.00  0.00    +0.000 C 
ATOM     10  C   UNL     1      -1.487  11.514  23.122  0.00  0.00    +0.000 C 
BRANCH  10  11
ATOM     11  C   UNL     1      -2.783  12.188  23.053  0.00  0.00    +0.000 A 
ATOM     12  C   UNL     1      -3.618  12.368  24.181  0.00  0.00    +0.000 A 
ATOM     13  C   UNL     1      -4.873  12.977  24.060  0.00  0.00    +0.000 A 
ATOM     14  C   UNL     1      -5.305  13.433  22.816  0.00  0.00    +0.000 A 
ATOM     15 CL   UNL     1      -6.858  14.159  22.669  0.00  0.00    +0.000 Cl
ATOM     16  C   UNL     1      -4.487  13.307  21.697  0.00  0.00    +0.000 A 
ATOM     17  C   UNL     1      -3.231  12.690  21.821  0.00  0.00    +0.000 A 
ENDBRANCH  10  11
ENDBRANCH   8   9
ENDBRANCH   1   8
BRANCH   5  18
ATOM     18  N   UNL     1       2.712   6.508  19.754  0.00  0.00    +0.000 N 
ATOM     19  H   UNL     1       2.583   5.978  20.623  0.00  0.00    +0.000 HD
BRANCH  18  20
ATOM     20  C   UNL     1       2.588   5.460  18.721  0.00  0.00    +0.000 A 
ATOM     21  C   UNL     1       3.610   5.472  17.715  0.00  0.00    +0.000 A 
ATOM     22  C   UNL     1       4.324   6.612  17.279  0.00  0.00    +0.000 A 
ATOM     23  C   UNL     1       5.296   6.510  16.281  0.00  0.00    +0.000 A 
ATOM     24  C   UNL     1       5.541   5.280  15.676  0.00  0.00    +0.000 A 
ATOM     25  C   UNL     1       4.884   4.146  16.137  0.00  0.00    +0.000 A 
ATOM     26  C   UNL     1       3.998   4.225  17.205  0.00  0.00    +0.000 A 
ATOM     27  N   UNL     1       3.699   3.100  17.850  0.00  0.00    +0.000 NA
ATOM     28  C   UNL     1       2.938   3.208  18.952  0.00  0.00    +0.000 A 
ATOM     29  C   UNL     1       3.317   2.581  20.125  0.00  0.00    +0.000 A 
ATOM     30  C   UNL     1       2.608   2.780  21.315  0.00  0.00    +0.000 A 
ATOM     31  C   UNL     1       1.363   3.388  21.250  0.00  0.00    +0.000 A 
ATOM     32  C   UNL     1       1.021   4.037  20.079  0.00  0.00    +0.000 A 
ATOM     33  C   UNL     1       2.026   4.219  19.115  0.00  0.00    +0.000 A 
ENDBRANCH  18  20
ENDBRANCH   5  18
TORSDOF 5
ENDMDL
MODEL 2
REMARK VINA RESULT:     -10.4      2.423      3.074
REMARK  Name = 
REMARK  5 active torsions:
REMARK  status: ('A' for Active; 'I' for Inactive)
REMARK    1  A    between atoms: C_2  and  C_3
REMARK    2  A    between atoms: C_2  and  C_12
REMARK    3  A    between atoms: C_4  and  C_5
REMARK    4  A    between atoms: C_16  and  N_17
REMARK    5  A    between atoms: N_17  and  C_18
REMARK                            x       y       z     vdW  Elec       q    Type
REMARK                         _______ _______ _______ _____ _____    ______ ____
ROOT
ATOM      1  C   UNL     1       0.845   9.726  19.611  0.00  0.00    +0.000 A 
ATOM      2  C   UNL     1       0.041   9.630  20.737  0.00  0.00    +0.000 A 
ATOM      3  C   UNL     1       0.176   8.546  21.606  0.00  0.00    +0.000 A 
ATOM      4  C   UNL     1       1.116   7.550  21.336  0.00  0.00    +0.000 A 
ATOM      5  C   UNL     1       1.911   7.602  20.191  0.00  0.00    +0.000 A 
ATOM      6  C   UNL     1       1.765   8.697  19.311  0.00  0.00    +0.000 A 
ENDROOT
BRANCH   1   8
ATOM      7  O   UNL     1       1.789  11.477  18.341  0.00  0.00    +0.000 OA
ATOM      8  C   UNL     1       0.766  10.971  18.798  0.00  0.00    +0.000 C 
BRANCH   8   9
ATOM      9  C   UNL     1      -0.567  11.561  18.571  0.00  0.00    +0.000 C 
ATOM     10  C   UNL     1      -1.631  10.776  18.360  0.00  0.00    +0.000 C 
BRANCH  10  11
ATOM     11  C   UNL     1      -2.980  11.298  18.147  0.00  0.00    +0.000 A 
ATOM     12  C   UNL     1      -3.733  11.924  19.169  0.00  0.00    +0.000 A 
ATOM     13  C   UNL     1      -5.040  12.366  18.933  0.00  0.00    +0.000 A 
ATOM     14  C   UNL     1      -5.609  12.210  17.671  0.00  0.00    +0.000 A 
ATOM     15 CL   UNL     1      -7.224  12.733  17.395  0.00  0.00    +0.000 Cl
ATOM     16  C   UNL     1      -4.877  11.635  16.636  0.00  0.00    +0.000 A 
ATOM     17  C   UNL     1      -3.567  11.188  16.876  0.00  0.00    +0.000 A 
ENDBRANCH  10  11
ENDBRANCH   8   9
ENDBRANCH   1   8
BRANCH   5  18
ATOM     18  N   UNL     1       2.765   6.521  19.865  0.00  0.00    +0.000 N 
ATOM     19  H   UNL     1       2.863   5.931  20.699  0.00  0.00    +0.000 HD
BRANCH  18  20
ATOM     20  C   UNL     1       2.589   5.527  18.788  0.00  0.00    +0.000 A 
ATOM     21  C   UNL     1       3.582   5.565  17.754  0.00  0.00    +0.000 A 
ATOM     22  C   UNL     1       4.309   6.709  17.352  0.00  0.00    +0.000 A 
ATOM     23  C   UNL     1       5.250   6.634  16.322  0.00  0.00    +0.000 A 
ATOM     24  C   UNL     1       5.450   5.429  15.653  0.00  0.00    +0.000 A 
ATOM     25  C   UNL     1       4.781   4.289  16.080  0.00  0.00    +0.000 A 
ATOM     26  C   UNL     1       3.928   4.335  17.175  0.00  0.00    +0.000 A 
ATOM     27  N   UNL     1       3.622   3.187  17.775  0.00  0.00    +0.000 NA
ATOM     28  C   UNL     1       2.895   3.260  18.903  0.00  0.00    +0.000 A 
ATOM     29  C   UNL     1       3.292   2.570  20.034  0.00  0.00    +0.000 A 
ATOM     30  C   UNL     1       2.622   2.727  21.252  0.00  0.00    +0.000 A 
ATOM     31  C   UNL     1       1.389   3.363  21.252  0.00  0.00    +0.000 A 
ATOM     32  C   UNL     1       1.029   4.074  20.123  0.00  0.00    +0.000 A 
ATOM     33  C   UNL     1       2.011   4.280  19.140  0.00  0.00    +0.000 A 
ENDBRANCH  18  20
ENDBRANCH   5  18
TORSDOF 5
ENDMDL
MODEL 3
REMARK VINA RESULT:     -10.2      1.442      1.569
REMARK  Name = 
REMARK  5 active torsions:
REMARK  status: ('A' for Active; 'I' for Inactive)
REMARK    1  A    between atoms: C_2  and  C_3
REMARK    2  A    between atoms: C_2  and  C_12
REMARK    3  A    between atoms: C_4  and  C_5
REMARK    4  A    between atoms: C_16  and  N_17
REMARK    5  A    between atoms: N_17  and  C_18
REMARK                            x       y       z     vdW  Elec       q    Type
REMARK                         _______ _______ _______ _____ _____    ______ ____
ROOT
ATOM      1  C   UNL     1       0.617   9.169  20.759  0.00  0.00    +0.000 A 
ATOM      2  C   UNL     1       0.633  10.069  19.703  0.00  0.00    +0.000 A 
ATOM      3  C   UNL     1       1.330   9.766  18.533  0.00  0.00    +0.000 A 
ATOM      4  C   UNL     1       2.021   8.558  18.427  0.00  0.00    +0.000 A 
ATOM      5  C   UNL     1       2.053   7.652  19.486  0.00  0.00    +0.000 A 
ATOM      6  C   UNL     1       1.353   7.966  20.672  0.00  0.00    +0.000 A 
ENDROOT
BRANCH   1   8
ATOM      7  O   UNL     1      -0.738   8.557  22.591  0.00  0.00    +0.000 OA
ATOM      8  C   UNL     1      -0.258   9.472  21.925  0.00  0.00    +0.000 C 
BRANCH   8   9
ATOM      9  C   UNL     1      -0.522  10.889  22.237  0.00  0.00    +0.000 C 
ATOM     10  C   UNL     1      -1.592  11.238  22.962  0.00  0.00    +0.000 C 
BRANCH  10  11
ATOM     11  C   UNL     1      -1.898  12.622  23.320  0.00  0.00    +0.000 A 
ATOM     12  C   UNL     1      -3.142  13.018  23.865  0.00  0.00    +0.000 A 
ATOM     13  C   UNL     1      -3.410  14.363  24.149  0.00  0.00    +0.000 A 
ATOM     14  C   UNL     1      -2.434  15.329  23.913  0.00  0.00    +0.000 A 
ATOM     15 CL   UNL     1      -2.777  16.983  24.242  0.00  0.00    +0.000 Cl
ATOM     16  C   UNL     1      -1.186  14.963  23.417  0.00  0.00    +0.000 A 
ATOM     17  C   UNL     1      -0.923  13.614  23.128  0.00  0.00    +0.000 A 
ENDBRANCH  10  11
ENDBRANCH   8   9
ENDBRANCH   1   8
BRANCH   5  18
ATOM     18  N   UNL     1       2.864   6.494  19.411  0.00  0.00    +0.000 N 
ATOM     19  H   UNL     1       2.818   6.015  20.318  0.00  0.00    +0.000 HD
BRANCH  18  20
ATOM     20  C   UNL     1       2.750   5.375  18.454  0.00  0.00    +0.000 A 
ATOM     21  C   UNL     1       3.802   5.295  17.483  0.00  0.00    +0.000 A 
ATOM     22  C   UNL     1       4.551   6.387  16.988  0.00  0.00    +0.000 A 
ATOM     23  C   UNL     1       5.551   6.195  16.030  0.00  0.00    +0.000 A 
ATOM     24  C   UNL     1       5.790   4.920  15.526  0.00  0.00    +0.000 A 
ATOM     25  C   UNL     1       5.098   3.835  16.047  0.00  0.00    +0.000 A 
ATOM     26  C   UNL     1       4.182   4.007  17.078  0.00  0.00    +0.000 A 
ATOM     27  N   UNL     1       3.842   2.938  17.794  0.00  0.00    +0.000 NA
ATOM     28  C   UNL     1       3.050   3.141  18.860  0.00  0.00    +0.000 A 
ATOM     29  C   UNL     1       3.381   2.595  20.088  0.00  0.00    +0.000 A 
ATOM     30  C   UNL     1       2.640   2.893  21.237  0.00  0.00    +0.000 A 
ATOM     31  C   UNL     1       1.410   3.516  21.088  0.00  0.00    +0.000 A 
ATOM     32  C   UNL     1       1.116   4.083  19.862  0.00  0.00    +0.000 A 
ATOM     33  C   UNL     1       2.153   4.176  18.920  0.00  0.00    +0.000 A 
ENDBRANCH  18  20
ENDBRANCH   5  18
TORSDOF 5
ENDMDL
MODEL 4
REMARK VINA RESULT:     -10.2      0.988      1.085
REMARK  Name = 
REMARK  5 active torsions:
REMARK  status: ('A' for Active; 'I' for Inactive)
REMARK    1  A    between atoms: C_2  and  C_3
REMARK    2  A    between atoms: C_2  and  C_12
REMARK    3  A    between atoms: C_4  and  C_5
REMARK    4  A    between atoms: C_16  and  N_17
REMARK    5  A    between atoms: N_17  and  C_18
REMARK                            x       y       z     vdW  Elec       q    Type
REMARK                         _______ _______ _______ _____ _____    ______ ____
ROOT
ATOM      1  C   UNL     1       1.175   9.153  20.516  0.00  0.00    +0.000 A 
ATOM      2  C   UNL     1       1.026   9.923  19.372  0.00  0.00    +0.000 A 
ATOM      3  C   UNL     1       1.444   9.430  18.135  0.00  0.00    +0.000 A 
ATOM      4  C   UNL     1       2.024   8.163  18.050  0.00  0.00    +0.000 A 
ATOM      5  C   UNL     1       2.219   7.383  19.189  0.00  0.00    +0.000 A 
ATOM      6  C   UNL     1       1.802   7.889  20.440  0.00  0.00    +0.000 A 
ENDROOT
BRANCH   1   8
ATOM      7  O   UNL     1       1.149   9.462  22.855  0.00  0.00    +0.000 OA
ATOM      8  C   UNL     1       0.581   9.660  21.784  0.00  0.00    +0.000 C 
BRANCH   8   9
ATOM      9  C   UNL     1      -0.696  10.395  21.700  0.00  0.00    +0.000 C 
ATOM     10  C   UNL     1      -1.033  11.282  22.643  0.00  0.00    +0.000 C 
BRANCH  10  11
ATOM     11  C   UNL     1      -2.274  12.055  22.607  0.00  0.00    +0.000 A 
ATOM     12  C   UNL     1      -3.132  12.186  23.725  0.00  0.00    +0.000 A 
ATOM     13  C   UNL     1      -4.335  12.896  23.631  0.00  0.00    +0.000 A 
ATOM     14  C   UNL     1      -4.691  13.503  22.429  0.00  0.00    +0.000 A 
ATOM     15 CL   UNL     1      -6.182  14.354  22.314  0.00  0.00    +0.000 Cl
ATOM     16  C   UNL     1      -3.846  13.426  21.325  0.00  0.00    +0.000 A 
ATOM     17  C   UNL     1      -2.642  12.709  21.420  0.00  0.00    +0.000 A 
ENDBRANCH  10  11
ENDBRANCH   8   9
ENDBRANCH   1   8
BRANCH   5  18
ATOM     18  N   UNL     1       2.924   6.159  19.105  0.00  0.00    +0.000 N 
ATOM     19  H   UNL     1       2.487   5.495  19.754  0.00  0.00    +0.000 HD
BRANCH  18  20
ATOM     20  C   UNL     1       3.149   5.330  17.904  0.00  0.00    +0.000 A 
ATOM     21  C   UNL     1       4.472   5.399  17.354  0.00  0.00    +0.000 A 
ATOM     22  C   UNL     1       5.345   6.507  17.446  0.00  0.00    +0.000 A 
ATOM     23  C   UNL     1       6.614   6.470  16.862  0.00  0.00    +0.000 A 
ATOM     24  C   UNL     1       7.013   5.345  16.146  0.00  0.00    +0.000 A 
ATOM     25  C   UNL     1       6.184   4.232  16.098  0.00  0.00    +0.000 A 
ATOM     26  C   UNL     1       4.968   4.224  16.771  0.00  0.00    +0.000 A 
ATOM     27  N   UNL     1       4.403   3.046  17.021  0.00  0.00    +0.000 NA
ATOM     28  C   UNL     1       3.291   3.047  17.776  0.00  0.00    +0.000 A 
ATOM     29  C   UNL     1       3.178   2.184  18.851  0.00  0.00    +0.000 A 
ATOM     30  C   UNL     1       2.086   2.252  19.724  0.00  0.00    +0.000 A 
ATOM     31  C   UNL     1       0.982   3.002  19.345  0.00  0.00    +0.000 A 
ATOM     32  C   UNL     1       1.129   3.882  18.289  0.00  0.00    +0.000 A 
ATOM     33  C   UNL     1       2.428   4.112  17.807  0.00  0.00    +0.000 A 
ENDBRANCH  18  20
ENDBRANCH   5  18
TORSDOF 5
ENDMDL
MODEL 5
REMARK VINA RESULT:     -10.2      2.848      3.573
REMARK  Name = 
REMARK  5 active torsions:
REMARK  status: ('A' for Active; 'I' for Inactive)
REMARK    1  A    between atoms: C_2  and  C_3
REMARK    2  A    between atoms: C_2  and  C_12
REMARK    3  A    between atoms: C_4  and  C_5
REMARK    4  A    between atoms: C_16  and  N_17
REMARK    5  A    between atoms: N_17  and  C_18
REMARK                            x       y       z     vdW  Elec       q    Type
REMARK                         _______ _______ _______ _____ _____    ______ ____
ROOT
ATOM      1  C   UNL     1       1.521   9.121  18.940  0.00  0.00    +0.000 A 
ATOM      2  C   UNL     1       1.390   8.785  20.280  0.00  0.00    +0.000 A 
ATOM      3  C   UNL     1       1.700   7.495  20.714  0.00  0.00    +0.000 A 
ATOM      4  C   UNL     1       2.134   6.537  19.796  0.00  0.00    +0.000 A 
ATOM      5  C   UNL     1       2.239   6.837  18.438  0.00  0.00    +0.000 A 
ATOM      6  C   UNL     1       1.916   8.142  18.002  0.00  0.00    +0.000 A 
ENDROOT
BRANCH   1   8
ATOM      7  O   UNL     1       2.285  11.244  18.252  0.00  0.00    +0.000 OA
ATOM      8  C   UNL     1       1.320  10.544  18.553  0.00  0.00    +0.000 C 
BRANCH   8   9
ATOM      9  C   UNL     1      -0.058  11.069  18.548  0.00  0.00    +0.000 C 
ATOM     10  C   UNL     1      -1.010  10.472  17.821  0.00  0.00    +0.000 C 
BRANCH  10  11
ATOM     11  C   UNL     1      -2.398  10.932  17.789  0.00  0.00    +0.000 A 
ATOM     12  C   UNL     1      -3.017  11.588  18.879  0.00  0.00    +0.000 A 
ATOM     13  C   UNL     1      -4.363  11.968  18.822  0.00  0.00    +0.000 A 
ATOM     14  C   UNL     1      -5.107  11.718  17.671  0.00  0.00    +0.000 A 
ATOM     15 CL   UNL     1      -6.768  12.165  17.616  0.00  0.00    +0.000 Cl
ATOM     16  C   UNL     1      -4.513  11.111  16.568  0.00  0.00    +0.000 A 
ATOM     17  C   UNL     1      -3.164  10.726  16.630  0.00  0.00    +0.000 A 
ENDBRANCH  10  11
ENDBRANCH   8   9
ENDBRANCH   1   8
BRANCH   5  18
ATOM     18  N   UNL     1       2.555   5.821  17.505  0.00  0.00    +0.000 N 
ATOM     19  H   UNL     1       2.664   6.259  16.583  0.00  0.00    +0.000 HD
BRANCH  18  20
ATOM     20  C   UNL     1       3.692   4.881  17.547  0.00  0.00    +0.000 A 
ATOM     21  C   UNL     1       4.981   5.489  17.714  0.00  0.00    +0.000 A 
ATOM     22  C   UNL     1       5.339   6.790  17.290  0.00  0.00    +0.000 A 
ATOM     23  C   UNL     1       6.631   7.280  17.497  0.00  0.00    +0.000 A 
ATOM     24  C   UNL     1       7.592   6.468  18.091  0.00  0.00    +0.000 A 
ATOM     25  C   UNL     1       7.234   5.211  18.561  0.00  0.00    +0.000 A 
ATOM     26  C   UNL     1       5.922   4.763  18.458  0.00  0.00    +0.000 A 
ATOM     27  N   UNL     1       5.544   3.756  19.242  0.00  0.00    +0.000 NA
ATOM     28  C   UNL     1       4.245   3.415  19.218  0.00  0.00    +0.000 A 
ATOM     29  C   UNL     1       3.543   3.259  20.399  0.00  0.00    +0.000 A 
ATOM     30  C   UNL     1       2.163   3.024  20.398  0.00  0.00    +0.000 A 
ATOM     31  C   UNL     1       1.553   2.674  19.203  0.00  0.00    +0.000 A 
ATOM     32  C   UNL     1       2.262   2.871  18.033  0.00  0.00    +0.000 A 
ATOM     33  C   UNL     1       3.460   3.600  18.109  0.00  0.00    +0.000 A 
ENDBRANCH  18  20
ENDBRANCH   5  18
TORSDOF 5
ENDMDL
MODEL 6
REMARK VINA RESULT:      -9.9      3.756      5.113
REMARK  Name = 
REMARK  5 active torsions:
REMARK  status: ('A' for Active; 'I' for Inactive)
REMARK    1  A    between atoms: C_2  and  C_3
REMARK    2  A    between atoms: C_2  and  C_12
REMARK    3  A    between atoms: C_4  and  C_5
REMARK    4  A    between atoms: C_16  and  N_17
REMARK    5  A    between atoms: N_17  and  C_18
REMARK                            x       y       z     vdW  Elec       q    Type
REMARK                         _______ _______ _______ _____ _____    ______ ____
ROOT
ATOM      1  C   UNL     1       0.721   9.668  19.547  0.00  0.00    +0.000 A 
ATOM      2  C   UNL     1      -0.036   9.598  20.708  0.00  0.00    +0.000 A 
ATOM      3  C   UNL     1       0.164   8.556  21.615  0.00  0.00    +0.000 A 
ATOM      4  C   UNL     1       1.120   7.575  21.348  0.00  0.00    +0.000 A 
ATOM      5  C   UNL     1       1.869   7.600  20.172  0.00  0.00    +0.000 A 
ATOM      6  C   UNL     1       1.657   8.653  19.253  0.00  0.00    +0.000 A 
ENDROOT
BRANCH   1   8
ATOM      7  O   UNL     1      -0.455  11.050  18.039  0.00  0.00    +0.000 OA
ATOM      8  C   UNL     1       0.574  10.875  18.688  0.00  0.00    +0.000 C 
BRANCH   8   9
ATOM      9  C   UNL     1       1.696  11.831  18.647  0.00  0.00    +0.000 C 
ATOM     10  C   UNL     1       1.497  13.126  18.920  0.00  0.00    +0.000 C 
BRANCH  10  11
ATOM     11  C   UNL     1       2.570  14.119  18.914  0.00  0.00    +0.000 A 
ATOM     12  C   UNL     1       2.855  14.938  17.796  0.00  0.00    +0.000 A 
ATOM     13  C   UNL     1       3.923  15.843  17.818  0.00  0.00    +0.000 A 
ATOM     14  C   UNL     1       4.710  15.959  18.962  0.00  0.00    +0.000 A 
ATOM     15 CL   UNL     1       6.037  17.055  18.974  0.00  0.00    +0.000 Cl
ATOM     16  C   UNL     1       4.428  15.196  20.091  0.00  0.00    +0.000 A 
ATOM     17  C   UNL     1       3.358  14.286  20.064  0.00  0.00    +0.000 A 
ENDBRANCH  10  11
ENDBRANCH   8   9
ENDBRANCH   1   8
BRANCH   5  18
ATOM     18  N   UNL     1       2.740   6.530  19.856  0.00  0.00    +0.000 N 
ATOM     19  H   UNL     1       2.843   5.947  20.694  0.00  0.00    +0.000 HD
BRANCH  18  20
ATOM     20  C   UNL     1       2.583   5.526  18.786  0.00  0.00    +0.000 A 
ATOM     21  C   UNL     1       3.584   5.566  17.760  0.00  0.00    +0.000 A 
ATOM     22  C   UNL     1       4.303   6.714  17.355  0.00  0.00    +0.000 A 
ATOM     23  C   UNL     1       5.254   6.641  16.333  0.00  0.00    +0.000 A 
ATOM     24  C   UNL     1       5.471   5.434  15.676  0.00  0.00    +0.000 A 
ATOM     25  C   UNL     1       4.811   4.290  16.105  0.00  0.00    +0.000 A 
ATOM     26  C   UNL     1       3.948   4.336  17.193  0.00  0.00    +0.000 A 
ATOM     27  N   UNL     1       3.648   3.190  17.799  0.00  0.00    +0.000 NA
ATOM     28  C   UNL     1       2.911   3.263  18.920  0.00  0.00    +0.000 A 
ATOM     29  C   UNL     1       3.306   2.586  20.060  0.00  0.00    +0.000 A 
ATOM     30  C   UNL     1       2.623   2.745  21.271  0.00  0.00    +0.000 A 
ATOM     31  C   UNL     1       1.384   3.368  21.255  0.00  0.00    +0.000 A 
ATOM     32  C   UNL     1       1.027   4.068  20.118  0.00  0.00    +0.000 A 
ATOM     33  C   UNL     1       2.014   4.276  19.142  0.00  0.00    +0.000 A 
ENDBRANCH  18  20
ENDBRANCH   5  18
TORSDOF 5
ENDMDL
MODEL 7
REMARK VINA RESULT:      -9.9      0.882      3.344
REMARK  Name = 
REMARK  5 active torsions:
REMARK  status: ('A' for Active; 'I' for Inactive)
REMARK    1  A    between atoms: C_2  and  C_3
REMARK    2  A    between atoms: C_2  and  C_12
REMARK    3  A    between atoms: C_4  and  C_5
REMARK    4  A    between atoms: C_16  and  N_17
REMARK    5  A    between atoms: N_17  and  C_18
REMARK                            x       y       z     vdW  Elec       q    Type
REMARK                         _______ _______ _______ _____ _____    ______ ____
ROOT
ATOM      1  C   UNL     1       1.179   9.463  20.439  0.00  0.00    +0.000 A 
ATOM      2  C   UNL     1       1.129  10.493  19.511  0.00  0.00    +0.000 A 
ATOM      3  C   UNL     1       1.448  10.250  18.175  0.00  0.00    +0.000 A 
ATOM      4  C   UNL     1       1.827   8.969  17.771  0.00  0.00    +0.000 A 
ATOM      5  C   UNL     1       1.921   7.924  18.689  0.00  0.00    +0.000 A 
ATOM      6  C   UNL     1       1.606   8.176  20.042  0.00  0.00    +0.000 A 
ENDROOT
BRANCH   1   8
ATOM      7  O   UNL     1       1.412   9.515  22.786  0.00  0.00    +0.000 OA
ATOM      8  C   UNL     1       0.689   9.738  21.818  0.00  0.00    +0.000 C 
BRANCH   8   9
ATOM      9  C   UNL     1      -0.676  10.276  21.969  0.00  0.00    +0.000 C 
ATOM     10  C   UNL     1      -0.869  11.557  22.305  0.00  0.00    +0.000 C 
BRANCH  10  11
ATOM     11  C   UNL     1      -2.195  12.155  22.451  0.00  0.00    +0.000 A 
ATOM     12  C   UNL     1      -2.863  12.815  21.393  0.00  0.00    +0.000 A 
ATOM     13  C   UNL     1      -4.112  13.415  21.592  0.00  0.00    +0.000 A 
ATOM     14  C   UNL     1      -4.723  13.349  22.843  0.00  0.00    +0.000 A 
ATOM     15 CL   UNL     1      -6.247  14.109  23.087  0.00  0.00    +0.000 Cl
ATOM     16  C   UNL     1      -4.108  12.670  23.891  0.00  0.00    +0.000 A 
ATOM     17  C   UNL     1      -2.852  12.074  23.690  0.00  0.00    +0.000 A 
ENDBRANCH  10  11
ENDBRANCH   8   9
ENDBRANCH   1   8
BRANCH   5  18
ATOM     18  N   UNL     1       2.431   6.666  18.289  0.00  0.00    +0.000 N 
ATOM     19  H   UNL     1       2.808   6.763  17.339  0.00  0.00    +0.000 HD
BRANCH  18  20
ATOM     20  C   UNL     1       3.468   5.858  18.962  0.00  0.00    +0.000 A 
ATOM     21  C   UNL     1       2.975   4.763  19.746  0.00  0.00    +0.000 A 
ATOM     22  C   UNL     1       1.715   4.710  20.385  0.00  0.00    +0.000 A 
ATOM     23  C   UNL     1       1.340   3.592  21.135  0.00  0.00    +0.000 A 
ATOM     24  C   UNL     1       2.229   2.533  21.291  0.00  0.00    +0.000 A 
ATOM     25  C   UNL     1       3.445   2.553  20.621  0.00  0.00    +0.000 A 
ATOM     26  C   UNL     1       3.776   3.613  19.784  0.00  0.00    +0.000 A 
ATOM     27  N   UNL     1       4.738   3.420  18.886  0.00  0.00    +0.000 NA
ATOM     28  C   UNL     1       4.964   4.410  18.006  0.00  0.00    +0.000 A 
ATOM     29  C   UNL     1       5.048   4.135  16.653  0.00  0.00    +0.000 A 
ATOM     30  C   UNL     1       5.159   5.162  15.710  0.00  0.00    +0.000 A 
ATOM     31  C   UNL     1       5.464   6.440  16.156  0.00  0.00    +0.000 A 
ATOM     32  C   UNL     1       5.340   6.700  17.508  0.00  0.00    +0.000 A 
ATOM     33  C   UNL     1       4.719   5.725  18.306  0.00  0.00    +0.000 A 
ENDBRANCH  18  20
ENDBRANCH   5  18
TORSDOF 5
ENDMDL
MODEL 8
REMARK VINA RESULT:      -9.8      1.928      2.289
REMARK  Name = 
REMARK  5 active torsions:
REMARK  status: ('A' for Active; 'I' for Inactive)
REMARK    1  A    between atoms: C_2  and  C_3
REMARK    2  A    between atoms: C_2  and  C_12
REMARK    3  A    between atoms: C_4  and  C_5
REMARK    4  A    between atoms: C_16  and  N_17
REMARK    5  A    between atoms: N_17  and  C_18
REMARK                            x       y       z     vdW  Elec       q    Type
REMARK                         _______ _______ _______ _____ _____    ______ ____
ROOT
ATOM      1  C   UNL     1       0.756   8.986  20.540  0.00  0.00    +0.000 A 
ATOM      2  C   UNL     1       0.687   9.866  19.470  0.00  0.00    +0.000 A 
ATOM      3  C   UNL     1       1.346   9.571  18.275  0.00  0.00    +0.000 A 
ATOM      4  C   UNL     1       2.084   8.392  18.160  0.00  0.00    +0.000 A 
ATOM      5  C   UNL     1       2.201   7.508  19.231  0.00  0.00    +0.000 A 
ATOM      6  C   UNL     1       1.539   7.814  20.442  0.00  0.00    +0.000 A 
ENDROOT
BRANCH   1   8
ATOM      7  O   UNL     1      -0.803   8.398  22.211  0.00  0.00    +0.000 OA
ATOM      8  C   UNL     1      -0.081   9.273  21.738  0.00  0.00    +0.000 C 
BRANCH   8   9
ATOM      9  C   UNL     1      -0.009  10.627  22.319  0.00  0.00    +0.000 C 
ATOM     10  C   UNL     1      -0.863  11.580  21.929  0.00  0.00    +0.000 C 
BRANCH  10  11
ATOM     11  C   UNL     1      -0.855  12.935  22.479  0.00  0.00    +0.000 A 
ATOM     12  C   UNL     1       0.015  13.949  22.015  0.00  0.00    +0.000 A 
ATOM     13  C   UNL     1       0.021  15.219  22.604  0.00  0.00    +0.000 A 
ATOM     14  C   UNL     1      -0.854  15.503  23.651  0.00  0.00    +0.000 A 
ATOM     15 CL   UNL     1      -0.825  17.058  24.387  0.00  0.00    +0.000 Cl
ATOM     16  C   UNL     1      -1.750  14.537  24.100  0.00  0.00    +0.000 A 
ATOM     17  C   UNL     1      -1.750  13.263  23.510  0.00  0.00    +0.000 A 
ENDBRANCH  10  11
ENDBRANCH   8   9
ENDBRANCH   1   8
BRANCH   5  18
ATOM     18  N   UNL     1       3.057   6.384  19.141  0.00  0.00    +0.000 N 
ATOM     19  H   UNL     1       3.073   5.922  20.057  0.00  0.00    +0.000 HD
BRANCH  18  20
ATOM     20  C   UNL     1       2.950   5.243  18.210  0.00  0.00    +0.000 A 
ATOM     21  C   UNL     1       4.028   5.117  17.273  0.00  0.00    +0.000 A 
ATOM     22  C   UNL     1       4.813   6.182  16.773  0.00  0.00    +0.000 A 
ATOM     23  C   UNL     1       5.837   5.946  15.851  0.00  0.00    +0.000 A 
ATOM     24  C   UNL     1       6.065   4.654  15.387  0.00  0.00    +0.000 A 
ATOM     25  C   UNL     1       5.337   3.596  15.915  0.00  0.00    +0.000 A 
ATOM     26  C   UNL     1       4.395   3.813  16.913  0.00  0.00    +0.000 A 
ATOM     27  N   UNL     1       4.013   2.769  17.646  0.00  0.00    +0.000 NA
ATOM     28  C   UNL     1       3.194   3.015  18.683  0.00  0.00    +0.000 A 
ATOM     29  C   UNL     1       3.478   2.496  19.933  0.00  0.00    +0.000 A 
ATOM     30  C   UNL     1       2.710   2.838  21.052  0.00  0.00    +0.000 A 
ATOM     31  C   UNL     1       1.497   3.479  20.850  0.00  0.00    +0.000 A 
ATOM     32  C   UNL     1       1.250   4.019  19.602  0.00  0.00    +0.000 A 
ATOM     33  C   UNL     1       2.316   4.068  18.688  0.00  0.00    +0.000 A 
ENDBRANCH  18  20
ENDBRANCH   5  18
TORSDOF 5
ENDMDL
MODEL 9
REMARK VINA RESULT:      -9.7      2.805      3.551
REMARK  Name = 
REMARK  5 active torsions:
REMARK  status: ('A' for Active; 'I' for Inactive)
REMARK    1  A    between atoms: C_2  and  C_3
REMARK    2  A    between atoms: C_2  and  C_12
REMARK    3  A    between atoms: C_4  and  C_5
REMARK    4  A    between atoms: C_16  and  N_17
REMARK    5  A    between atoms: N_17  and  C_18
REMARK                            x       y       z     vdW  Elec       q    Type
REMARK                         _______ _______ _______ _____ _____    ______ ____
ROOT
ATOM      1  C   UNL     1       1.340   9.271  19.293  0.00  0.00    +0.000 A 
ATOM      2  C   UNL     1       0.649   9.244  20.496  0.00  0.00    +0.000 A 
ATOM      3  C   UNL     1       0.775   8.151  21.354  0.00  0.00    +0.000 A 
ATOM      4  C   UNL     1       1.592   7.076  20.998  0.00  0.00    +0.000 A 
ATOM      5  C   UNL     1       2.269   7.060  19.779  0.00  0.00    +0.000 A 
ATOM      6  C   UNL     1       2.131   8.165  18.909  0.00  0.00    +0.000 A 
ENDROOT
BRANCH   1   8
ATOM      7  O   UNL     1       2.328  11.052  18.103  0.00  0.00    +0.000 OA
ATOM      8  C   UNL     1       1.288  10.519  18.483  0.00  0.00    +0.000 C 
BRANCH   8   9
ATOM      9  C   UNL     1      -0.040  11.078  18.166  0.00  0.00    +0.000 C 
ATOM     10  C   UNL     1      -1.125  10.295  18.164  0.00  0.00    +0.000 C 
BRANCH  10  11
ATOM     11  C   UNL     1      -2.469  10.792  17.876  0.00  0.00    +0.000 A 
ATOM     12  C   UNL     1      -3.086  10.655  16.610  0.00  0.00    +0.000 A 
ATOM     13  C   UNL     1      -4.357  11.189  16.365  0.00  0.00    +0.000 A 
ATOM     14  C   UNL     1      -5.040  11.850  17.384  0.00  0.00    +0.000 A 
ATOM     15 CL   UNL     1      -6.592  12.525  17.070  0.00  0.00    +0.000 Cl
ATOM     16  C   UNL     1      -4.476  11.963  18.651  0.00  0.00    +0.000 A 
ATOM     17  C   UNL     1      -3.198  11.431  18.892  0.00  0.00    +0.000 A 
ENDBRANCH  10  11
ENDBRANCH   8   9
ENDBRANCH   1   8
BRANCH   5  18
ATOM     18  N   UNL     1       2.988   5.909  19.376  0.00  0.00    +0.000 N 
ATOM     19  H   UNL     1       2.595   5.100  19.870  0.00  0.00    +0.000 HD
BRANCH  18  20
ATOM     20  C   UNL     1       3.163   5.391  18.004  0.00  0.00    +0.000 A 
ATOM     21  C   UNL     1       4.478   5.553  17.455  0.00  0.00    +0.000 A 
ATOM     22  C   UNL     1       5.391   6.579  17.792  0.00  0.00    +0.000 A 
ATOM     23  C   UNL     1       6.648   6.647  17.185  0.00  0.00    +0.000 A 
ATOM     24  C   UNL     1       6.995   5.719  16.207  0.00  0.00    +0.000 A 
ATOM     25  C   UNL     1       6.127   4.676  15.912  0.00  0.00    +0.000 A 
ATOM     26  C   UNL     1       4.923   4.541  16.593  0.00  0.00    +0.000 A 
ATOM     27  N   UNL     1       4.321   3.354  16.563  0.00  0.00    +0.000 NA
ATOM     28  C   UNL     1       3.224   3.205  17.324  0.00  0.00    +0.000 A 
ATOM     29  C   UNL     1       3.099   2.110  18.160  0.00  0.00    +0.000 A 
ATOM     30  C   UNL     1       2.024   1.996  19.050  0.00  0.00    +0.000 A 
ATOM     31  C   UNL     1       0.941   2.848  18.891  0.00  0.00    +0.000 A 
ATOM     32  C   UNL     1       1.101   3.953  18.077  0.00  0.00    +0.000 A 
ATOM     33  C   UNL     1       2.399   4.256  17.633  0.00  0.00    +0.000 A 
ENDBRANCH  18  20
ENDBRANCH   5  18
TORSDOF 5
ENDMDL
