MODEL 1
REMARK VINA RESULT:      -8.0      0.000      0.000
REMARK  Name = 
REMARK  9 active torsions:
REMARK  status: ('A' for Active; 'I' for Inactive)
REMARK    1  A    between atoms: C_1  and  C_2
REMARK    2  A    between atoms: C_4  and  N_5
REMARK    3  A    between atoms: C_9  and  C_10
REMARK    4  A    between atoms: C_19  and  N_20
REMARK    5  A    between atoms: N_20  and  C_21
REMARK    6  A    between atoms: C_23  and  C_24
REMARK    7  A    between atoms: C_24  and  O_25
REMARK    8  A    between atoms: C_26  and  O_27
REMARK    9  A    between atoms: C_28  and  O_29
REMARK                            x       y       z     vdW  Elec       q    Type
REMARK                         _______ _______ _______ _____ _____    ______ ____
ROOT
ATOM      1  N   UNL     1       0.088   9.285  19.630  0.00  0.00    +0.000 N 
ATOM      2  C   UNL     1       1.302   8.664  19.313  0.00  0.00    +0.000 A 
ATOM      3  N   UNL     1       2.025   9.061  18.268  0.00  0.00    +0.000 NA
ATOM      4  C   UNL     1       3.020   8.255  17.859  0.00  0.00    +0.000 A 
ATOM      5  C   UNL     1       3.342   7.044  18.437  0.00  0.00    +0.000 A 
ATOM      6  C   UNL     1       2.668   6.812  19.642  0.00  0.00    +0.000 A 
ATOM      7  N   UNL     1       1.641   7.598  20.056  0.00  0.00    +0.000 NA
ATOM      8  H   UNL     1      -0.372   8.735  20.344  0.00  0.00    +0.000 HD
ENDROOT
BRANCH   5   9
ATOM      9  C   UNL     1       4.277   6.186  17.672  0.00  0.00    +0.000 A 
ATOM     10  N   UNL     1       5.530   6.516  17.395  0.00  0.00    +0.000 NA
ATOM     11  C   UNL     1       6.032   5.779  16.314  0.00  0.00    +0.000 A 
ATOM     12  C   UNL     1       7.288   5.909  15.691  0.00  0.00    +0.000 A 
ATOM     13  N   UNL     1       7.613   5.169  14.596  0.00  0.00    +0.000 NA
ATOM     14  C   UNL     1       6.713   4.292  14.107  0.00  0.00    +0.000 A 
ATOM     15  C   UNL     1       5.464   4.078  14.659  0.00  0.00    +0.000 A 
ATOM     16  C   UNL     1       5.140   4.845  15.787  0.00  0.00    +0.000 A 
ATOM     17  S   UNL     1       3.688   4.864  16.732  0.00  0.00    +0.000 S 
ENDBRANCH   5   9
BRANCH   1  21
ATOM     18  C   UNL     1      -2.774   9.984  15.617  0.00  0.00    +0.000 C 
ATOM     19  C   UNL     1      -2.144  10.482  16.884  0.00  0.00    +0.000 A 
ATOM     20  C   UNL     1      -1.298   9.652  17.615  0.00  0.00    +0.000 A 
ATOM     21  C   UNL     1      -0.744  10.092  18.825  0.00  0.00    +0.000 A 
ATOM     22  C   UNL     1      -1.021  11.401  19.204  0.00  0.00    +0.000 A 
ATOM     23  C   UNL     1      -1.865  12.176  18.413  0.00  0.00    +0.000 A 
ATOM     24  N   UNL     1      -2.439  11.742  17.270  0.00  0.00    +0.000 NA
ENDBRANCH   1  21
BRANCH   6  25
ATOM     25  N   UNL     1       3.006   5.739  20.482  0.00  0.00    +0.000 N 
ATOM     26  H   UNL     1       3.758   5.231  20.013  0.00  0.00    +0.000 HD
BRANCH  25  27
ATOM     27  C   UNL     1       1.931   4.791  20.900  0.00  0.00    +0.000 C 
ATOM     28  C   UNL     1       2.434   3.621  21.794  0.00  0.00    +0.000 C 
ATOM     29  C   UNL     1       2.716   2.420  20.865  0.00  0.00    +0.000 C 
ATOM     30  C   UNL     1       2.606   3.020  19.464  0.00  0.00    +0.000 C 
ATOM     31  C   UNL     1       1.462   4.042  19.631  0.00  0.00    +0.000 C 
BRANCH  30  32
ATOM     32  O   UNL     1       2.341   2.038  18.480  0.00  0.00    +0.000 OA
ATOM     33  H   UNL     1       1.544   1.552  18.763  0.00  0.00    +0.000 HD
ENDBRANCH  30  32
BRANCH  31  34
ATOM     34  O   UNL     1       0.179   3.438  19.830  0.00  0.00    +0.000 OA
ATOM     35  H   UNL     1       0.270   2.468  19.809  0.00  0.00    +0.000 HD
ENDBRANCH  31  34
BRANCH  29  36
ATOM     36  C   UNL     1       4.031   1.725  21.193  0.00  0.00    +0.000 C 
BRANCH  36  37
ATOM     37  O   UNL     1       4.955   1.788  20.115  0.00  0.00    +0.000 OA
ATOM     38  H   UNL     1       4.480   1.536  19.301  0.00  0.00    +0.000 HD
ENDBRANCH  36  37
ENDBRANCH  29  36
ENDBRANCH  25  27
ENDBRANCH   6  25
TORSDOF 8
ENDMDL
MODEL 2
REMARK VINA RESULT:      -7.9      1.168      1.412
REMARK  Name = 
REMARK  9 active torsions:
REMARK  status: ('A' for Active; 'I' for Inactive)
REMARK    1  A    between atoms: C_1  and  C_2
REMARK    2  A    between atoms: C_4  and  N_5
REMARK    3  A    between atoms: C_9  and  C_10
REMARK    4  A    between atoms: C_19  and  N_20
REMARK    5  A    between atoms: N_20  and  C_21
REMARK    6  A    between atoms: C_23  and  C_24
REMARK    7  A    between atoms: C_24  and  O_25
REMARK    8  A    between atoms: C_26  and  O_27
REMARK    9  A    between atoms: C_28  and  O_29
REMARK                            x       y       z     vdW  Elec       q    Type
REMARK                         _______ _______ _______ _____ _____    ______ ____
ROOT
ATOM      1  N   UNL     1       0.056   9.520  20.616  0.00  0.00    +0.000 N 
ATOM      2  C   UNL     1       1.137   8.919  19.960  0.00  0.00    +0.000 A 
ATOM      3  N   UNL     1       1.648   9.447  18.849  0.00  0.00    +0.000 NA
ATOM      4  C   UNL     1       2.485   8.683  18.127  0.00  0.00    +0.000 A 
ATOM      5  C   UNL     1       2.849   7.391  18.447  0.00  0.00    +0.000 A 
ATOM      6  C   UNL     1       2.431   7.001  19.725  0.00  0.00    +0.000 A 
ATOM      7  N   UNL     1       1.562   7.745  20.457  0.00  0.00    +0.000 NA
ATOM      8  H   UNL     1      -0.275   8.883  21.328  0.00  0.00    +0.000 HD
ENDROOT
BRANCH   5   9
ATOM      9  C   UNL     1       3.550   6.631  17.386  0.00  0.00    +0.000 A 
ATOM     10  N   UNL     1       3.598   5.308  17.328  0.00  0.00    +0.000 NA
ATOM     11  C   UNL     1       4.663   4.863  16.532  0.00  0.00    +0.000 A 
ATOM     12  C   UNL     1       5.071   3.535  16.302  0.00  0.00    +0.000 A 
ATOM     13  N   UNL     1       6.176   3.256  15.558  0.00  0.00    +0.000 NA
ATOM     14  C   UNL     1       6.884   4.274  15.028  0.00  0.00    +0.000 A 
ATOM     15  C   UNL     1       6.554   5.607  15.180  0.00  0.00    +0.000 A 
ATOM     16  C   UNL     1       5.413   5.884  15.947  0.00  0.00    +0.000 A 
ATOM     17  S   UNL     1       4.702   7.409  16.361  0.00  0.00    +0.000 S 
ENDBRANCH   5   9
BRANCH   1  21
ATOM     18  C   UNL     1      -3.151  11.119  17.160  0.00  0.00    +0.000 C 
ATOM     19  C   UNL     1      -2.447  11.281  18.475  0.00  0.00    +0.000 A 
ATOM     20  C   UNL     1      -1.504  10.341  18.882  0.00  0.00    +0.000 A 
ATOM     21  C   UNL     1      -0.877  10.460  20.130  0.00  0.00    +0.000 A 
ATOM     22  C   UNL     1      -1.188  11.586  20.886  0.00  0.00    +0.000 A 
ATOM     23  C   UNL     1      -2.131  12.490  20.404  0.00  0.00    +0.000 A 
ATOM     24  N   UNL     1      -2.772  12.357  19.224  0.00  0.00    +0.000 NA
ENDBRANCH   1  21
BRANCH   6  25
ATOM     25  N   UNL     1       2.875   5.807  20.314  0.00  0.00    +0.000 N 
ATOM     26  H   UNL     1       3.484   5.356  19.630  0.00  0.00    +0.000 HD
BRANCH  25  27
ATOM     27  C   UNL     1       1.857   4.834  20.812  0.00  0.00    +0.000 C 
ATOM     28  C   UNL     1       2.446   3.712  21.714  0.00  0.00    +0.000 C 
ATOM     29  C   UNL     1       2.729   2.493  20.809  0.00  0.00    +0.000 C 
ATOM     30  C   UNL     1       2.530   3.044  19.398  0.00  0.00    +0.000 C 
ATOM     31  C   UNL     1       1.358   4.028  19.590  0.00  0.00    +0.000 C 
BRANCH  30  32
ATOM     32  O   UNL     1       2.256   2.023  18.457  0.00  0.00    +0.000 OA
ATOM     33  H   UNL     1       2.636   2.306  17.604  0.00  0.00    +0.000 HD
ENDBRANCH  30  32
BRANCH  31  34
ATOM     34  O   UNL     1       0.109   3.385  19.868  0.00  0.00    +0.000 OA
ATOM     35  H   UNL     1       0.152   2.958  20.744  0.00  0.00    +0.000 HD
ENDBRANCH  31  34
BRANCH  29  36
ATOM     36  C   UNL     1       4.084   1.857  21.093  0.00  0.00    +0.000 C 
BRANCH  36  37
ATOM     37  O   UNL     1       4.932   1.870  19.954  0.00  0.00    +0.000 OA
ATOM     38  H   UNL     1       5.855   1.898  20.269  0.00  0.00    +0.000 HD
ENDBRANCH  36  37
ENDBRANCH  29  36
ENDBRANCH  25  27
ENDBRANCH   6  25
TORSDOF 8
ENDMDL
MODEL 3
REMARK VINA RESULT:      -7.7      1.244      1.935
REMARK  Name = 
REMARK  9 active torsions:
REMARK  status: ('A' for Active; 'I' for Inactive)
REMARK    1  A    between atoms: C_1  and  C_2
REMARK    2  A    between atoms: C_4  and  N_5
REMARK    3  A    between atoms: C_9  and  C_10
REMARK    4  A    between atoms: C_19  and  N_20
REMARK    5  A    between atoms: N_20  and  C_21
REMARK    6  A    between atoms: C_23  and  C_24
REMARK    7  A    between atoms: C_24  and  O_25
REMARK    8  A    between atoms: C_26  and  O_27
REMARK    9  A    between atoms: C_28  and  O_29
REMARK                            x       y       z     vdW  Elec       q    Type
REMARK                         _______ _______ _______ _____ _____    ______ ____
ROOT
ATOM      1  N   UNL     1       0.046   9.521  20.569  0.00  0.00    +0.000 N 
ATOM      2  C   UNL     1       1.134   8.923  19.922  0.00  0.00    +0.000 A 
ATOM      3  N   UNL     1       1.649   9.450  18.813  0.00  0.00    +0.000 NA
ATOM      4  C   UNL     1       2.494   8.687  18.098  0.00  0.00    +0.000 A 
ATOM      5  C   UNL     1       2.861   7.397  18.424  0.00  0.00    +0.000 A 
ATOM      6  C   UNL     1       2.435   7.009  19.700  0.00  0.00    +0.000 A 
ATOM      7  N   UNL     1       1.560   7.752  20.424  0.00  0.00    +0.000 NA
ATOM      8  H   UNL     1      -0.287   8.885  21.282  0.00  0.00    +0.000 HD
ENDROOT
BRANCH   5   9
ATOM      9  C   UNL     1       3.571   6.637  17.369  0.00  0.00    +0.000 A 
ATOM     10  N   UNL     1       3.613   5.314  17.308  0.00  0.00    +0.000 NA
ATOM     11  C   UNL     1       4.685   4.866  16.523  0.00  0.00    +0.000 A 
ATOM     12  C   UNL     1       5.090   3.537  16.294  0.00  0.00    +0.000 A 
ATOM     13  N   UNL     1       6.202   3.254  15.563  0.00  0.00    +0.000 NA
ATOM     14  C   UNL     1       6.923   4.270  15.045  0.00  0.00    +0.000 A 
ATOM     15  C   UNL     1       6.597   5.605  15.198  0.00  0.00    +0.000 A 
ATOM     16  C   UNL     1       5.448   5.885  15.951  0.00  0.00    +0.000 A 
ATOM     17  S   UNL     1       4.739   7.412  16.362  0.00  0.00    +0.000 S 
ENDBRANCH   5   9
BRANCH   1  21
ATOM     18  C   UNL     1      -2.462  13.807  20.930  0.00  0.00    +0.000 C 
ATOM     19  C   UNL     1      -2.134  12.533  20.209  0.00  0.00    +0.000 A 
ATOM     20  C   UNL     1      -1.235  11.627  20.766  0.00  0.00    +0.000 A 
ATOM     21  C   UNL     1      -0.887  10.457  20.076  0.00  0.00    +0.000 A 
ATOM     22  C   UNL     1      -1.534  10.223  18.867  0.00  0.00    +0.000 A 
ATOM     23  C   UNL     1      -2.433  11.170  18.382  0.00  0.00    +0.000 A 
ATOM     24  N   UNL     1      -2.738  12.320  19.020  0.00  0.00    +0.000 NA
ENDBRANCH   1  21
BRANCH   6  25
ATOM     25  N   UNL     1       2.880   5.818  20.295  0.00  0.00    +0.000 N 
ATOM     26  H   UNL     1       3.482   5.359  19.610  0.00  0.00    +0.000 HD
BRANCH  25  27
ATOM     27  C   UNL     1       1.863   4.852  20.809  0.00  0.00    +0.000 C 
ATOM     28  C   UNL     1       2.457   3.725  21.701  0.00  0.00    +0.000 C 
ATOM     29  C   UNL     1       2.716   2.505  20.790  0.00  0.00    +0.000 C 
ATOM     30  C   UNL     1       2.498   3.059  19.383  0.00  0.00    +0.000 C 
ATOM     31  C   UNL     1       1.337   4.052  19.595  0.00  0.00    +0.000 C 
BRANCH  30  32
ATOM     32  O   UNL     1       2.201   2.040  18.446  0.00  0.00    +0.000 OA
ATOM     33  H   UNL     1       1.953   1.244  18.953  0.00  0.00    +0.000 HD
ENDBRANCH  30  32
BRANCH  31  34
ATOM     34  O   UNL     1       0.088   3.418  19.893  0.00  0.00    +0.000 OA
ATOM     35  H   UNL     1       0.144   2.985  20.764  0.00  0.00    +0.000 HD
ENDBRANCH  31  34
BRANCH  29  36
ATOM     36  C   UNL     1       4.070   1.858  21.052  0.00  0.00    +0.000 C 
BRANCH  36  37
ATOM     37  O   UNL     1       4.967   2.032  19.964  0.00  0.00    +0.000 OA
ATOM     38  H   UNL     1       4.735   1.378  19.279  0.00  0.00    +0.000 HD
ENDBRANCH  36  37
ENDBRANCH  29  36
ENDBRANCH  25  27
ENDBRANCH   6  25
TORSDOF 8
ENDMDL
MODEL 4
REMARK VINA RESULT:      -7.3      5.093     10.108
REMARK  Name = 
REMARK  9 active torsions:
REMARK  status: ('A' for Active; 'I' for Inactive)
REMARK    1  A    between atoms: C_1  and  C_2
REMARK    2  A    between atoms: C_4  and  N_5
REMARK    3  A    between atoms: C_9  and  C_10
REMARK    4  A    between atoms: C_19  and  N_20
REMARK    5  A    between atoms: N_20  and  C_21
REMARK    6  A    between atoms: C_23  and  C_24
REMARK    7  A    between atoms: C_24  and  O_25
REMARK    8  A    between atoms: C_26  and  O_27
REMARK    9  A    between atoms: C_28  and  O_29
REMARK                            x       y       z     vdW  Elec       q    Type
REMARK                         _______ _______ _______ _____ _____    ______ ____
ROOT
ATOM      1  N   UNL     1       2.440   7.066  18.742  0.00  0.00    +0.000 N 
ATOM      2  C   UNL     1       1.862   8.135  19.436  0.00  0.00    +0.000 A 
ATOM      3  N   UNL     1       1.336   7.965  20.647  0.00  0.00    +0.000 NA
ATOM      4  C   UNL     1       0.560   8.950  21.131  0.00  0.00    +0.000 A 
ATOM      5  C   UNL     1       0.262  10.120  20.463  0.00  0.00    +0.000 A 
ATOM      6  C   UNL     1       1.019  10.297  19.298  0.00  0.00    +0.000 A 
ATOM      7  N   UNL     1       1.784   9.304  18.779  0.00  0.00    +0.000 NA
ATOM      8  H   UNL     1       2.626   7.367  17.794  0.00  0.00    +0.000 HD
ENDROOT
BRANCH   5   9
ATOM      9  C   UNL     1      -0.827  10.941  21.044  0.00  0.00    +0.000 A 
ATOM     10  N   UNL     1      -1.536  11.825  20.358  0.00  0.00    +0.000 NA
ATOM     11  C   UNL     1      -2.155  12.758  21.202  0.00  0.00    +0.000 A 
ATOM     12  C   UNL     1      -2.920  13.881  20.831  0.00  0.00    +0.000 A 
ATOM     13  N   UNL     1      -3.403  14.745  21.766  0.00  0.00    +0.000 NA
ATOM     14  C   UNL     1      -3.145  14.512  23.069  0.00  0.00    +0.000 A 
ATOM     15  C   UNL     1      -2.422  13.429  23.533  0.00  0.00    +0.000 A 
ATOM     16  C   UNL     1      -1.932  12.544  22.562  0.00  0.00    +0.000 A 
ATOM     17  S   UNL     1      -0.990  11.103  22.755  0.00  0.00    +0.000 S 
ENDBRANCH   5   9
BRANCH   1  21
ATOM     18  C   UNL     1       2.271   3.059  21.692  0.00  0.00    +0.000 C 
ATOM     19  C   UNL     1       2.195   3.697  20.336  0.00  0.00    +0.000 A 
ATOM     20  C   UNL     1       2.400   5.067  20.196  0.00  0.00    +0.000 A 
ATOM     21  C   UNL     1       2.284   5.678  18.940  0.00  0.00    +0.000 A 
ATOM     22  C   UNL     1       2.034   4.844  17.856  0.00  0.00    +0.000 A 
ATOM     23  C   UNL     1       1.855   3.480  18.073  0.00  0.00    +0.000 A 
ATOM     24  N   UNL     1       1.920   2.892  19.287  0.00  0.00    +0.000 NA
ENDBRANCH   1  21
BRANCH   6  25
ATOM     25  N   UNL     1       1.011  11.510  18.593  0.00  0.00    +0.000 N 
ATOM     26  H   UNL     1       0.861  11.274  17.611  0.00  0.00    +0.000 HD
BRANCH  25  27
ATOM     27  C   UNL     1       2.187  12.422  18.725  0.00  0.00    +0.000 C 
ATOM     28  C   UNL     1       2.414  12.954  20.168  0.00  0.00    +0.000 C 
ATOM     29  C   UNL     1       1.717  14.330  20.267  0.00  0.00    +0.000 C 
ATOM     30  C   UNL     1       0.915  14.415  18.970  0.00  0.00    +0.000 C 
ATOM     31  C   UNL     1       1.848  13.720  17.957  0.00  0.00    +0.000 C 
BRANCH  30  32
ATOM     32  O   UNL     1       0.602  15.751  18.620  0.00  0.00    +0.000 OA
ATOM     33  H   UNL     1       0.502  16.252  19.451  0.00  0.00    +0.000 HD
ENDBRANCH  30  32
BRANCH  31  34
ATOM     34  O   UNL     1       3.030  14.471  17.659  0.00  0.00    +0.000 OA
ATOM     35  H   UNL     1       3.335  14.252  16.759  0.00  0.00    +0.000 HD
ENDBRANCH  31  34
BRANCH  29  36
ATOM     36  C   UNL     1       0.922  14.490  21.557  0.00  0.00    +0.000 C 
BRANCH  36  37
ATOM     37  O   UNL     1       0.094  15.643  21.536  0.00  0.00    +0.000 OA
ATOM     38  H   UNL     1      -0.830  15.345  21.436  0.00  0.00    +0.000 HD
ENDBRANCH  36  37
ENDBRANCH  29  36
ENDBRANCH  25  27
ENDBRANCH   6  25
TORSDOF 8
ENDMDL
MODEL 5
REMARK VINA RESULT:      -7.1      4.994      7.979
REMARK  Name = 
REMARK  9 active torsions:
REMARK  status: ('A' for Active; 'I' for Inactive)
REMARK    1  A    between atoms: C_1  and  C_2
REMARK    2  A    between atoms: C_4  and  N_5
REMARK    3  A    between atoms: C_9  and  C_10
REMARK    4  A    between atoms: C_19  and  N_20
REMARK    5  A    between atoms: N_20  and  C_21
REMARK    6  A    between atoms: C_23  and  C_24
REMARK    7  A    between atoms: C_24  and  O_25
REMARK    8  A    between atoms: C_26  and  O_27
REMARK    9  A    between atoms: C_28  and  O_29
REMARK                            x       y       z     vdW  Elec       q    Type
REMARK                         _______ _______ _______ _____ _____    ______ ____
ROOT
ATOM      1  N   UNL     1      -2.953  12.988  19.414  0.00  0.00    +0.000 N 
ATOM      2  C   UNL     1      -1.949  12.102  19.007  0.00  0.00    +0.000 A 
ATOM      3  N   UNL     1      -2.118  10.784  19.094  0.00  0.00    +0.000 NA
ATOM      4  C   UNL     1      -1.030  10.008  18.954  0.00  0.00    +0.000 A 
ATOM      5  C   UNL     1       0.250  10.476  18.734  0.00  0.00    +0.000 A 
ATOM      6  C   UNL     1       0.295  11.847  18.455  0.00  0.00    +0.000 A 
ATOM      7  N   UNL     1      -0.786  12.652  18.619  0.00  0.00    +0.000 NA
ATOM      8  H   UNL     1      -2.567  13.923  19.420  0.00  0.00    +0.000 HD
ENDROOT
BRANCH   5   9
ATOM      9  C   UNL     1       1.340   9.485  18.889  0.00  0.00    +0.000 A 
ATOM     10  N   UNL     1       2.210   9.182  17.936  0.00  0.00    +0.000 NA
ATOM     11  C   UNL     1       2.817   7.939  18.167  0.00  0.00    +0.000 A 
ATOM     12  C   UNL     1       3.729   7.259  17.336  0.00  0.00    +0.000 A 
ATOM     13  N   UNL     1       4.183   6.017  17.657  0.00  0.00    +0.000 NA
ATOM     14  C   UNL     1       3.754   5.435  18.795  0.00  0.00    +0.000 A 
ATOM     15  C   UNL     1       2.877   6.029  19.684  0.00  0.00    +0.000 A 
ATOM     16  C   UNL     1       2.416   7.309  19.344  0.00  0.00    +0.000 A 
ATOM     17  S   UNL     1       1.318   8.349  20.190  0.00  0.00    +0.000 S 
ENDBRANCH   5   9
BRANCH   1  21
ATOM     18  C   UNL     1      -5.124  13.013  23.895  0.00  0.00    +0.000 C 
ATOM     19  C   UNL     1      -5.162  12.753  22.418  0.00  0.00    +0.000 A 
ATOM     20  C   UNL     1      -4.022  12.956  21.644  0.00  0.00    +0.000 A 
ATOM     21  C   UNL     1      -4.063  12.762  20.256  0.00  0.00    +0.000 A 
ATOM     22  C   UNL     1      -5.257  12.292  19.722  0.00  0.00    +0.000 A 
ATOM     23  C   UNL     1      -6.351  12.099  20.563  0.00  0.00    +0.000 A 
ATOM     24  N   UNL     1      -6.331  12.329  21.893  0.00  0.00    +0.000 NA
ENDBRANCH   1  21
BRANCH   6  25
ATOM     25  N   UNL     1       1.470  12.470  18.005  0.00  0.00    +0.000 N 
ATOM     26  H   UNL     1       1.977  11.772  17.459  0.00  0.00    +0.000 HD
BRANCH  25  27
ATOM     27  C   UNL     1       2.381  13.091  19.013  0.00  0.00    +0.000 C 
ATOM     28  C   UNL     1       1.661  13.563  20.308  0.00  0.00    +0.000 C 
ATOM     29  C   UNL     1       1.327  15.060  20.131  0.00  0.00    +0.000 C 
ATOM     30  C   UNL     1       1.639  15.322  18.658  0.00  0.00    +0.000 C 
ATOM     31  C   UNL     1       2.875  14.430  18.418  0.00  0.00    +0.000 C 
BRANCH  30  32
ATOM     32  O   UNL     1       1.877  16.692  18.395  0.00  0.00    +0.000 OA
ATOM     33  H   UNL     1       1.651  16.851  17.460  0.00  0.00    +0.000 HD
ENDBRANCH  30  32
BRANCH  31  34
ATOM     34  O   UNL     1       4.053  14.892  19.089  0.00  0.00    +0.000 OA
ATOM     35  H   UNL     1       3.799  15.384  19.891  0.00  0.00    +0.000 HD
ENDBRANCH  31  34
BRANCH  29  36
ATOM     36  C   UNL     1      -0.086  15.401  20.585  0.00  0.00    +0.000 C 
BRANCH  36  37
ATOM     37  O   UNL     1      -1.005  15.431  19.502  0.00  0.00    +0.000 OA
ATOM     38  H   UNL     1      -0.741  14.739  18.868  0.00  0.00    +0.000 HD
ENDBRANCH  36  37
ENDBRANCH  29  36
ENDBRANCH  25  27
ENDBRANCH   6  25
TORSDOF 8
ENDMDL
MODEL 6
REMARK VINA RESULT:      -7.1      5.130     10.096
REMARK  Name = 
REMARK  9 active torsions:
REMARK  status: ('A' for Active; 'I' for Inactive)
REMARK    1  A    between atoms: C_1  and  C_2
REMARK    2  A    between atoms: C_4  and  N_5
REMARK    3  A    between atoms: C_9  and  C_10
REMARK    4  A    between atoms: C_19  and  N_20
REMARK    5  A    between atoms: N_20  and  C_21
REMARK    6  A    between atoms: C_23  and  C_24
REMARK    7  A    between atoms: C_24  and  O_25
REMARK    8  A    between atoms: C_26  and  O_27
REMARK    9  A    between atoms: C_28  and  O_29
REMARK                            x       y       z     vdW  Elec       q    Type
REMARK                         _______ _______ _______ _____ _____    ______ ____
ROOT
ATOM      1  N   UNL     1       2.410   6.993  19.149  0.00  0.00    +0.000 N 
ATOM      2  C   UNL     1       1.812   8.097  19.769  0.00  0.00    +0.000 A 
ATOM      3  N   UNL     1       1.277   7.996  20.985  0.00  0.00    +0.000 NA
ATOM      4  C   UNL     1       0.484   8.999  21.399  0.00  0.00    +0.000 A 
ATOM      5  C   UNL     1       0.178  10.122  20.656  0.00  0.00    +0.000 A 
ATOM      6  C   UNL     1       0.944  10.235  19.489  0.00  0.00    +0.000 A 
ATOM      7  N   UNL     1       1.726   9.221  19.040  0.00  0.00    +0.000 NA
ATOM      8  H   UNL     1       2.601   7.237  18.186  0.00  0.00    +0.000 HD
ENDROOT
BRANCH   5   9
ATOM      9  C   UNL     1      -0.925  10.964  21.174  0.00  0.00    +0.000 A 
ATOM     10  N   UNL     1      -1.595  11.843  20.443  0.00  0.00    +0.000 NA
ATOM     11  C   UNL     1      -2.240  12.796  21.243  0.00  0.00    +0.000 A 
ATOM     12  C   UNL     1      -2.975  13.920  20.821  0.00  0.00    +0.000 A 
ATOM     13  N   UNL     1      -3.489  14.805  21.719  0.00  0.00    +0.000 NA
ATOM     14  C   UNL     1      -3.291  14.593  23.036  0.00  0.00    +0.000 A 
ATOM     15  C   UNL     1      -2.601  13.510  23.549  0.00  0.00    +0.000 A 
ATOM     16  C   UNL     1      -2.078  12.604  22.616  0.00  0.00    +0.000 A 
ATOM     17  S   UNL     1      -1.161  11.157  22.874  0.00  0.00    +0.000 S 
ENDBRANCH   5   9
BRANCH   1  21
ATOM     18  C   UNL     1       2.410   2.214  17.754  0.00  0.00    +0.000 C 
ATOM     19  C   UNL     1       2.255   3.278  18.801  0.00  0.00    +0.000 A 
ATOM     20  C   UNL     1       2.364   4.622  18.453  0.00  0.00    +0.000 A 
ATOM     21  C   UNL     1       2.268   5.619  19.433  0.00  0.00    +0.000 A 
ATOM     22  C   UNL     1       1.987   5.201  20.729  0.00  0.00    +0.000 A 
ATOM     23  C   UNL     1       1.877   3.839  20.997  0.00  0.00    +0.000 A 
ATOM     24  N   UNL     1       2.014   2.872  20.066  0.00  0.00    +0.000 NA
ENDBRANCH   1  21
BRANCH   6  25
ATOM     25  N   UNL     1       0.929  11.401  18.708  0.00  0.00    +0.000 N 
ATOM     26  H   UNL     1       0.790  11.102  17.742  0.00  0.00    +0.000 HD
BRANCH  25  27
ATOM     27  C   UNL     1       2.092  12.334  18.793  0.00  0.00    +0.000 C 
ATOM     28  C   UNL     1       2.348  12.895  20.221  0.00  0.00    +0.000 C 
ATOM     29  C   UNL     1       1.632  14.260  20.315  0.00  0.00    +0.000 C 
ATOM     30  C   UNL     1       0.793  14.310  19.039  0.00  0.00    +0.000 C 
ATOM     31  C   UNL     1       1.710  13.613  18.013  0.00  0.00    +0.000 C 
BRANCH  30  32
ATOM     32  O   UNL     1       0.449  15.634  18.675  0.00  0.00    +0.000 OA
ATOM     33  H   UNL     1      -0.141  15.577  17.899  0.00  0.00    +0.000 HD
ENDBRANCH  30  32
BRANCH  31  34
ATOM     34  O   UNL     1       2.872  14.378  17.670  0.00  0.00    +0.000 OA
ATOM     35  H   UNL     1       2.825  15.250  18.103  0.00  0.00    +0.000 HD
ENDBRANCH  31  34
BRANCH  29  36
ATOM     36  C   UNL     1       0.869  14.430  21.623  0.00  0.00    +0.000 C 
BRANCH  36  37
ATOM     37  O   UNL     1       0.046  15.587  21.618  0.00  0.00    +0.000 OA
ATOM     38  H   UNL     1       0.312  16.139  20.859  0.00  0.00    +0.000 HD
ENDBRANCH  36  37
ENDBRANCH  29  36
ENDBRANCH  25  27
ENDBRANCH   6  25
TORSDOF 8
ENDMDL
MODEL 7
REMARK VINA RESULT:      -7.1      5.151     10.094
REMARK  Name = 
REMARK  9 active torsions:
REMARK  status: ('A' for Active; 'I' for Inactive)
REMARK    1  A    between atoms: C_1  and  C_2
REMARK    2  A    between atoms: C_4  and  N_5
REMARK    3  A    between atoms: C_9  and  C_10
REMARK    4  A    between atoms: C_19  and  N_20
REMARK    5  A    between atoms: N_20  and  C_21
REMARK    6  A    between atoms: C_23  and  C_24
REMARK    7  A    between atoms: C_24  and  O_25
REMARK    8  A    between atoms: C_26  and  O_27
REMARK    9  A    between atoms: C_28  and  O_29
REMARK                            x       y       z     vdW  Elec       q    Type
REMARK                         _______ _______ _______ _____ _____    ______ ____
ROOT
ATOM      1  N   UNL     1       2.493   7.348  18.693  0.00  0.00    +0.000 N 
ATOM      2  C   UNL     1       1.906   8.477  19.278  0.00  0.00    +0.000 A 
ATOM      3  N   UNL     1       1.244   8.388  20.430  0.00  0.00    +0.000 NA
ATOM      4  C   UNL     1       0.478   9.433  20.788  0.00  0.00    +0.000 A 
ATOM      5  C   UNL     1       0.322  10.587  20.047  0.00  0.00    +0.000 A 
ATOM      6  C   UNL     1       1.209  10.672  18.966  0.00  0.00    +0.000 A 
ATOM      7  N   UNL     1       1.967   9.618  18.572  0.00  0.00    +0.000 NA
ATOM      8  H   UNL     1       2.797   7.598  17.761  0.00  0.00    +0.000 HD
ENDROOT
BRANCH   5   9
ATOM      9  C   UNL     1      -0.774  11.490  20.472  0.00  0.00    +0.000 A 
ATOM     10  N   UNL     1      -1.082  11.738  21.737  0.00  0.00    +0.000 NA
ATOM     11  C   UNL     1      -2.389  12.231  21.863  0.00  0.00    +0.000 A 
ATOM     12  C   UNL     1      -3.085  12.532  23.049  0.00  0.00    +0.000 A 
ATOM     13  N   UNL     1      -4.385  12.937  23.020  0.00  0.00    +0.000 NA
ATOM     14  C   UNL     1      -5.008  13.057  21.831  0.00  0.00    +0.000 A 
ATOM     15  C   UNL     1      -4.405  12.804  20.613  0.00  0.00    +0.000 A 
ATOM     16  C   UNL     1      -3.066  12.389  20.654  0.00  0.00    +0.000 A 
ATOM     17  S   UNL     1      -1.996  11.976  19.355  0.00  0.00    +0.000 S 
ENDBRANCH   5   9
BRANCH   1  21
ATOM     18  C   UNL     1       2.138   3.418  21.727  0.00  0.00    +0.000 C 
ATOM     19  C   UNL     1       2.054   4.037  20.364  0.00  0.00    +0.000 A 
ATOM     20  C   UNL     1       2.360   5.384  20.188  0.00  0.00    +0.000 A 
ATOM     21  C   UNL     1       2.236   5.981  18.926  0.00  0.00    +0.000 A 
ATOM     22  C   UNL     1       1.874   5.151  17.870  0.00  0.00    +0.000 A 
ATOM     23  C   UNL     1       1.598   3.810  18.122  0.00  0.00    +0.000 A 
ATOM     24  N   UNL     1       1.670   3.239  19.343  0.00  0.00    +0.000 NA
ENDBRANCH   1  21
BRANCH   6  25
ATOM     25  N   UNL     1       1.347  11.852  18.218  0.00  0.00    +0.000 N 
ATOM     26  H   UNL     1       1.351  11.574  17.236  0.00  0.00    +0.000 HD
BRANCH  25  27
ATOM     27  C   UNL     1       2.510  12.746  18.501  0.00  0.00    +0.000 C 
ATOM     28  C   UNL     1       2.641  13.157  19.995  0.00  0.00    +0.000 C 
ATOM     29  C   UNL     1       1.936  14.522  20.160  0.00  0.00    +0.000 C 
ATOM     30  C   UNL     1       1.220  14.716  18.825  0.00  0.00    +0.000 C 
ATOM     31  C   UNL     1       2.218  14.104  17.822  0.00  0.00    +0.000 C 
BRANCH  30  32
ATOM     32  O   UNL     1       0.928  16.077  18.566  0.00  0.00    +0.000 OA
ATOM     33  H   UNL     1       0.179  16.098  17.941  0.00  0.00    +0.000 HD
ENDBRANCH  30  32
BRANCH  31  34
ATOM     34  O   UNL     1       3.416  14.872  17.664  0.00  0.00    +0.000 OA
ATOM     35  H   UNL     1       4.190  14.311  17.855  0.00  0.00    +0.000 HD
ENDBRANCH  31  34
BRANCH  29  36
ATOM     36  C   UNL     1       1.059  14.579  21.404  0.00  0.00    +0.000 C 
BRANCH  36  37
ATOM     37  O   UNL     1      -0.288  14.908  21.096  0.00  0.00    +0.000 OA
ATOM     38  H   UNL     1      -0.278  15.545  20.358  0.00  0.00    +0.000 HD
ENDBRANCH  36  37
ENDBRANCH  29  36
ENDBRANCH  25  27
ENDBRANCH   6  25
TORSDOF 8
ENDMDL
MODEL 8
REMARK VINA RESULT:      -7.1      4.988      7.773
REMARK  Name = 
REMARK  9 active torsions:
REMARK  status: ('A' for Active; 'I' for Inactive)
REMARK    1  A    between atoms: C_1  and  C_2
REMARK    2  A    between atoms: C_4  and  N_5
REMARK    3  A    between atoms: C_9  and  C_10
REMARK    4  A    between atoms: C_19  and  N_20
REMARK    5  A    between atoms: N_20  and  C_21
REMARK    6  A    between atoms: C_23  and  C_24
REMARK    7  A    between atoms: C_24  and  O_25
REMARK    8  A    between atoms: C_26  and  O_27
REMARK    9  A    between atoms: C_28  and  O_29
REMARK                            x       y       z     vdW  Elec       q    Type
REMARK                         _______ _______ _______ _____ _____    ______ ____
ROOT
ATOM      1  N   UNL     1      -3.234  12.587  18.952  0.00  0.00    +0.000 N 
ATOM      2  C   UNL     1      -2.054  11.880  18.694  0.00  0.00    +0.000 A 
ATOM      3  N   UNL     1      -2.088  10.639  18.212  0.00  0.00    +0.000 NA
ATOM      4  C   UNL     1      -0.949   9.927  18.251  0.00  0.00    +0.000 A 
ATOM      5  C   UNL     1       0.250  10.383  18.760  0.00  0.00    +0.000 A 
ATOM      6  C   UNL     1       0.240  11.753  19.050  0.00  0.00    +0.000 A 
ATOM      7  N   UNL     1      -0.905  12.482  19.045  0.00  0.00    +0.000 NA
ATOM      8  H   UNL     1      -2.993  13.429  19.459  0.00  0.00    +0.000 HD
ENDROOT
BRANCH   5   9
ATOM      9  C   UNL     1       1.301   9.359  18.968  0.00  0.00    +0.000 A 
ATOM     10  N   UNL     1       2.113   8.924  18.016  0.00  0.00    +0.000 NA
ATOM     11  C   UNL     1       2.673   7.681  18.342  0.00  0.00    +0.000 A 
ATOM     12  C   UNL     1       3.515   6.880  17.546  0.00  0.00    +0.000 A 
ATOM     13  N   UNL     1       3.927   5.653  17.969  0.00  0.00    +0.000 NA
ATOM     14  C   UNL     1       3.523   5.205  19.174  0.00  0.00    +0.000 A 
ATOM     15  C   UNL     1       2.714   5.924  20.035  0.00  0.00    +0.000 A 
ATOM     16  C   UNL     1       2.296   7.186  19.590  0.00  0.00    +0.000 A 
ATOM     17  S   UNL     1       1.285   8.356  20.373  0.00  0.00    +0.000 S 
ENDBRANCH   5   9
BRANCH   1  21
ATOM     18  C   UNL     1      -7.342  11.954  21.692  0.00  0.00    +0.000 C 
ATOM     19  C   UNL     1      -6.571  11.771  20.418  0.00  0.00    +0.000 A 
ATOM     20  C   UNL     1      -5.260  12.230  20.323  0.00  0.00    +0.000 A 
ATOM     21  C   UNL     1      -4.550  12.106  19.122  0.00  0.00    +0.000 A 
ATOM     22  C   UNL     1      -5.189  11.445  18.079  0.00  0.00    +0.000 A 
ATOM     23  C   UNL     1      -6.497  11.000  18.254  0.00  0.00    +0.000 A 
ATOM     24  N   UNL     1      -7.202  11.158  19.394  0.00  0.00    +0.000 NA
ENDBRANCH   1  21
BRANCH   6  25
ATOM     25  N   UNL     1       1.415  12.445  19.381  0.00  0.00    +0.000 N 
ATOM     26  H   UNL     1       2.028  11.771  19.841  0.00  0.00    +0.000 HD
BRANCH  25  27
ATOM     27  C   UNL     1       1.307  13.685  20.207  0.00  0.00    +0.000 C 
ATOM     28  C   UNL     1       1.306  14.999  19.375  0.00  0.00    +0.000 C 
ATOM     29  C   UNL     1       2.761  15.517  19.330  0.00  0.00    +0.000 C 
ATOM     30  C   UNL     1       3.568  14.360  19.917  0.00  0.00    +0.000 C 
ATOM     31  C   UNL     1       2.623  13.817  21.008  0.00  0.00    +0.000 C 
BRANCH  30  32
ATOM     32  O   UNL     1       4.822  14.782  20.420  0.00  0.00    +0.000 OA
ATOM     33  H   UNL     1       5.411  14.917  19.654  0.00  0.00    +0.000 HD
ENDBRANCH  30  32
BRANCH  31  34
ATOM     34  O   UNL     1       2.465  14.703  22.122  0.00  0.00    +0.000 OA
ATOM     35  H   UNL     1       2.363  15.617  21.798  0.00  0.00    +0.000 HD
ENDBRANCH  31  34
BRANCH  29  36
ATOM     36  C   UNL     1       3.172  15.980  17.938  0.00  0.00    +0.000 C 
BRANCH  36  37
ATOM     37  O   UNL     1       4.171  15.147  17.368  0.00  0.00    +0.000 OA
ATOM     38  H   UNL     1       4.146  14.290  17.834  0.00  0.00    +0.000 HD
ENDBRANCH  36  37
ENDBRANCH  29  36
ENDBRANCH  25  27
ENDBRANCH   6  25
TORSDOF 8
ENDMDL
MODEL 9
REMARK VINA RESULT:      -7.1      0.558      1.254
REMARK  Name = 
REMARK  9 active torsions:
REMARK  status: ('A' for Active; 'I' for Inactive)
REMARK    1  A    between atoms: C_1  and  C_2
REMARK    2  A    between atoms: C_4  and  N_5
REMARK    3  A    between atoms: C_9  and  C_10
REMARK    4  A    between atoms: C_19  and  N_20
REMARK    5  A    between atoms: N_20  and  C_21
REMARK    6  A    between atoms: C_23  and  C_24
REMARK    7  A    between atoms: C_24  and  O_25
REMARK    8  A    between atoms: C_26  and  O_27
REMARK    9  A    between atoms: C_28  and  O_29
REMARK                            x       y       z     vdW  Elec       q    Type
REMARK                         _______ _______ _______ _____ _____    ______ ____
ROOT
ATOM      1  N   UNL     1       0.413   9.296  19.844  0.00  0.00    +0.000 N 
ATOM      2  C   UNL     1       1.582   8.617  19.478  0.00  0.00    +0.000 A 
ATOM      3  N   UNL     1       2.333   9.040  18.463  0.00  0.00    +0.000 NA
ATOM      4  C   UNL     1       3.271   8.200  17.992  0.00  0.00    +0.000 A 
ATOM      5  C   UNL     1       3.507   6.930  18.478  0.00  0.00    +0.000 A 
ATOM      6  C   UNL     1       2.816   6.656  19.665  0.00  0.00    +0.000 A 
ATOM      7  N   UNL     1       1.846   7.478  20.139  0.00  0.00    +0.000 NA
ATOM      8  H   UNL     1      -0.085   8.727  20.517  0.00  0.00    +0.000 HD
ENDROOT
BRANCH   5   9
ATOM      9  C   UNL     1       4.382   6.069  17.648  0.00  0.00    +0.000 A 
ATOM     10  N   UNL     1       5.617   6.390  17.291  0.00  0.00    +0.000 NA
ATOM     11  C   UNL     1       6.040   5.655  16.174  0.00  0.00    +0.000 A 
ATOM     12  C   UNL     1       7.253   5.778  15.471  0.00  0.00    +0.000 A 
ATOM     13  N   UNL     1       7.499   5.041  14.353  0.00  0.00    +0.000 NA
ATOM     14  C   UNL     1       6.561   4.174  13.920  0.00  0.00    +0.000 A 
ATOM     15  C   UNL     1       5.349   3.968  14.552  0.00  0.00    +0.000 A 
ATOM     16  C   UNL     1       5.107   4.731  15.703  0.00  0.00    +0.000 A 
ATOM     17  S   UNL     1       3.721   4.756  16.742  0.00  0.00    +0.000 S 
ENDBRANCH   5   9
BRANCH   1  21
ATOM     18  C   UNL     1      -0.627  13.928  18.346  0.00  0.00    +0.000 C 
ATOM     19  C   UNL     1      -0.907  12.454  18.349  0.00  0.00    +0.000 A 
ATOM     20  C   UNL     1      -0.136  11.599  19.133  0.00  0.00    +0.000 A 
ATOM     21  C   UNL     1      -0.359  10.216  19.104  0.00  0.00    +0.000 A 
ATOM     22  C   UNL     1      -1.420   9.766  18.326  0.00  0.00    +0.000 A 
ATOM     23  C   UNL     1      -2.156  10.684  17.581  0.00  0.00    +0.000 A 
ATOM     24  N   UNL     1      -1.916  12.012  17.568  0.00  0.00    +0.000 NA
ENDBRANCH   1  21
BRANCH   6  25
ATOM     25  N   UNL     1       3.079   5.503  20.421  0.00  0.00    +0.000 N 
ATOM     26  H   UNL     1       3.765   4.961  19.895  0.00  0.00    +0.000 HD
BRANCH  25  27
ATOM     27  C   UNL     1       1.933   4.631  20.817  0.00  0.00    +0.000 C 
ATOM     28  C   UNL     1       2.312   3.513  21.830  0.00  0.00    +0.000 C 
ATOM     29  C   UNL     1       2.612   2.236  21.015  0.00  0.00    +0.000 C 
ATOM     30  C   UNL     1       2.638   2.734  19.571  0.00  0.00    +0.000 C 
ATOM     31  C   UNL     1       1.532   3.809  19.571  0.00  0.00    +0.000 C 
BRANCH  30  32
ATOM     32  O   UNL     1       2.408   1.692  18.640  0.00  0.00    +0.000 OA
ATOM     33  H   UNL     1       1.578   1.250  18.900  0.00  0.00    +0.000 HD
ENDBRANCH  30  32
BRANCH  31  34
ATOM     34  O   UNL     1       0.211   3.272  19.707  0.00  0.00    +0.000 OA
ATOM     35  H   UNL     1      -0.083   3.364  20.632  0.00  0.00    +0.000 HD
ENDBRANCH  31  34
BRANCH  29  36
ATOM     36  C   UNL     1       3.865   1.517  21.497  0.00  0.00    +0.000 C 
BRANCH  36  37
ATOM     37  O   UNL     1       4.970   1.725  20.629  0.00  0.00    +0.000 OA
ATOM     38  H   UNL     1       5.714   1.188  20.960  0.00  0.00    +0.000 HD
ENDBRANCH  36  37
ENDBRANCH  29  36
ENDBRANCH  25  27
ENDBRANCH   6  25
TORSDOF 8
ENDMDL
