MODEL 1
REMARK VINA RESULT:      -8.2      0.000      0.000
REMARK  Name = 
REMARK  9 active torsions:
REMARK  status: ('A' for Active; 'I' for Inactive)
REMARK    1  A    between atoms: C_2  and  C_3
REMARK    2  A    between atoms: C_4  and  C_5
REMARK    3  A    between atoms: C_9  and  N_10
REMARK    4  A    between atoms: N_14  and  C_15
REMARK    5  A    between atoms: C_15  and  C_16
REMARK    6  A    between atoms: C_16  and  N_17
REMARK    7  A    between atoms: C_18  and  C_20
REMARK    8  A    between atoms: C_21  and  C_22
REMARK    9  A    between atoms: C_26  and  N_27
REMARK                            x       y       z     vdW  Elec       q    Type
REMARK                         _______ _______ _______ _____ _____    ______ ____
ROOT
ATOM      1  C   UNL     1       6.776   4.702  18.978  0.00  0.00    +0.000 C 
ENDROOT
BRANCH   1   4
ATOM      2  O   UNL     1       4.282   4.379  17.640  0.00  0.00    +0.000 OA
ATOM      3  C   UNL     1       4.373   5.156  18.579  0.00  0.00    +0.000 C 
ATOM      4  N   UNL     1       5.519   5.353  19.311  0.00  0.00    +0.000 N 
ATOM      5  H   UNL     1       5.536   6.043  20.050  0.00  0.00    +0.000 HD
BRANCH   3   6
ATOM      6  C   UNL     1       3.241   6.007  19.037  0.00  0.00    +0.000 C 
ATOM      7  C   UNL     1       3.063   7.234  18.519  0.00  0.00    +0.000 C 
BRANCH   7   8
ATOM      8  C   UNL     1       2.021   8.178  18.955  0.00  0.00    +0.000 A 
ATOM      9  C   UNL     1       1.526   9.121  18.044  0.00  0.00    +0.000 A 
ATOM     10  C   UNL     1       0.588  10.082  18.437  0.00  0.00    +0.000 A 
ATOM     11  C   UNL     1       0.136  10.118  19.756  0.00  0.00    +0.000 A 
ATOM     12  C   UNL     1       0.631   9.187  20.678  0.00  0.00    +0.000 A 
ATOM     13  C   UNL     1       1.573   8.223  20.284  0.00  0.00    +0.000 A 
BRANCH  12  14
ATOM     14  N   UNL     1       0.164   9.243  22.073  0.00  0.00    +0.000 N 
ATOM     15  O   UNL     1      -0.787   8.516  22.390  0.00  0.00    +0.000 OA
ATOM     16  O   UNL     1       0.749  10.006  22.854  0.00  0.00    +0.000 OA
ENDBRANCH  12  14
ENDBRANCH   7   8
ENDBRANCH   3   6
ENDBRANCH   1   4
BRANCH   1  17
ATOM     17  C   UNL     1       7.507   5.334  17.786  0.00  0.00    +0.000 C 
BRANCH  17  18
ATOM     18  N   UNL     1       7.893   6.714  18.036  0.00  0.00    +0.000 N 
ATOM     19  C   UNL     1       7.235   7.764  17.445  0.00  0.00    +0.000 C 
ATOM     20  O   UNL     1       6.300   7.637  16.666  0.00  0.00    +0.000 OA
ATOM     21  H   UNL     1       8.683   6.878  18.645  0.00  0.00    +0.000 HD
BRANCH  19  22
ATOM     22  C   UNL     1       7.790   9.089  17.825  0.00  0.00    +0.000 C 
ATOM     23  C   UNL     1       8.859   9.154  18.637  0.00  0.00    +0.000 C 
BRANCH  23  24
ATOM     24  C   UNL     1       9.459  10.403  19.132  0.00  0.00    +0.000 A 
ATOM     25  C   UNL     1       9.306  10.746  20.484  0.00  0.00    +0.000 A 
ATOM     26  C   UNL     1       9.804  11.956  20.982  0.00  0.00    +0.000 A 
ATOM     27  C   UNL     1      10.456  12.847  20.132  0.00  0.00    +0.000 A 
ATOM     28  C   UNL     1      10.604  12.517  18.780  0.00  0.00    +0.000 A 
ATOM     29  C   UNL     1      10.105  11.305  18.277  0.00  0.00    +0.000 A 
BRANCH  28  30
ATOM     30  N   UNL     1      11.278  13.453  17.873  0.00  0.00    +0.000 N 
ATOM     31  O   UNL     1      11.768  14.481  18.363  0.00  0.00    +0.000 OA
ATOM     32  O   UNL     1      11.323  13.157  16.668  0.00  0.00    +0.000 OA
ENDBRANCH  28  30
ENDBRANCH  23  24
ENDBRANCH  19  22
ENDBRANCH  17  18
ENDBRANCH   1  17
TORSDOF 9
ENDMDL
MODEL 2
REMARK VINA RESULT:      -8.2      1.014      8.890
REMARK  Name = 
REMARK  9 active torsions:
REMARK  status: ('A' for Active; 'I' for Inactive)
REMARK    1  A    between atoms: C_2  and  C_3
REMARK    2  A    between atoms: C_4  and  C_5
REMARK    3  A    between atoms: C_9  and  N_10
REMARK    4  A    between atoms: N_14  and  C_15
REMARK    5  A    between atoms: C_15  and  C_16
REMARK    6  A    between atoms: C_16  and  N_17
REMARK    7  A    between atoms: C_18  and  C_20
REMARK    8  A    between atoms: C_21  and  C_22
REMARK    9  A    between atoms: C_26  and  N_27
REMARK                            x       y       z     vdW  Elec       q    Type
REMARK                         _______ _______ _______ _____ _____    ______ ____
ROOT
ATOM      1  C   UNL     1       7.453   5.013  17.816  0.00  0.00    +0.000 C 
ENDROOT
BRANCH   1   4
ATOM      2  O   UNL     1       7.147   7.650  16.783  0.00  0.00    +0.000 OA
ATOM      3  C   UNL     1       7.711   7.477  17.853  0.00  0.00    +0.000 C 
ATOM      4  N   UNL     1       7.874   6.251  18.452  0.00  0.00    +0.000 N 
ATOM      5  H   UNL     1       8.388   6.175  19.320  0.00  0.00    +0.000 HD
BRANCH   3   6
ATOM      6  C   UNL     1       8.313   8.588  18.638  0.00  0.00    +0.000 C 
ATOM      7  C   UNL     1       8.718   9.712  18.022  0.00  0.00    +0.000 C 
BRANCH   7   8
ATOM      8  C   UNL     1       9.390  10.836  18.696  0.00  0.00    +0.000 A 
ATOM      9  C   UNL     1       9.706  10.729  20.057  0.00  0.00    +0.000 A 
ATOM     10  C   UNL     1      10.280  11.800  20.751  0.00  0.00    +0.000 A 
ATOM     11  C   UNL     1      10.539  13.000  20.092  0.00  0.00    +0.000 A 
ATOM     12  C   UNL     1      10.220  13.123  18.734  0.00  0.00    +0.000 A 
ATOM     13  C   UNL     1       9.643  12.048  18.037  0.00  0.00    +0.000 A 
BRANCH  12  14
ATOM     14  N   UNL     1      10.479  14.399  18.049  0.00  0.00    +0.000 N 
ATOM     15  O   UNL     1      10.930  14.351  16.897  0.00  0.00    +0.000 OA
ATOM     16  O   UNL     1      10.227  15.450  18.656  0.00  0.00    +0.000 OA
ENDBRANCH  12  14
ENDBRANCH   7   8
ENDBRANCH   3   6
ENDBRANCH   1   4
BRANCH   1  17
ATOM     17  C   UNL     1       6.013   4.600  18.150  0.00  0.00    +0.000 C 
BRANCH  17  18
ATOM     18  N   UNL     1       5.125   5.744  18.297  0.00  0.00    +0.000 N 
ATOM     19  C   UNL     1       3.802   5.591  18.628  0.00  0.00    +0.000 C 
ATOM     20  O   UNL     1       3.261   4.509  18.812  0.00  0.00    +0.000 OA
ATOM     21  H   UNL     1       5.510   6.662  18.121  0.00  0.00    +0.000 HD
BRANCH  19  22
ATOM     22  C   UNL     1       3.070   6.881  18.718  0.00  0.00    +0.000 C 
ATOM     23  C   UNL     1       2.349   7.162  19.818  0.00  0.00    +0.000 C 
BRANCH  23  24
ATOM     24  C   UNL     1       1.535   8.373  19.998  0.00  0.00    +0.000 A 
ATOM     25  C   UNL     1       1.258   9.182  18.885  0.00  0.00    +0.000 A 
ATOM     26  C   UNL     1       0.542  10.378  19.022  0.00  0.00    +0.000 A 
ATOM     27  C   UNL     1       0.098  10.788  20.278  0.00  0.00    +0.000 A 
ATOM     28  C   UNL     1       0.379   9.992  21.394  0.00  0.00    +0.000 A 
ATOM     29  C   UNL     1       1.097   8.792  21.261  0.00  0.00    +0.000 A 
BRANCH  28  30
ATOM     30  N   UNL     1      -0.073  10.418  22.723  0.00  0.00    +0.000 N 
ATOM     31  O   UNL     1      -0.074   9.574  23.631  0.00  0.00    +0.000 OA
ATOM     32  O   UNL     1      -0.424  11.600  22.862  0.00  0.00    +0.000 OA
ENDBRANCH  28  30
ENDBRANCH  23  24
ENDBRANCH  19  22
ENDBRANCH  17  18
ENDBRANCH   1  17
TORSDOF 9
ENDMDL
MODEL 3
REMARK VINA RESULT:      -8.0      5.509      7.001
REMARK  Name = 
REMARK  9 active torsions:
REMARK  status: ('A' for Active; 'I' for Inactive)
REMARK    1  A    between atoms: C_2  and  C_3
REMARK    2  A    between atoms: C_4  and  C_5
REMARK    3  A    between atoms: C_9  and  N_10
REMARK    4  A    between atoms: N_14  and  C_15
REMARK    5  A    between atoms: C_15  and  C_16
REMARK    6  A    between atoms: C_16  and  N_17
REMARK    7  A    between atoms: C_18  and  C_20
REMARK    8  A    between atoms: C_21  and  C_22
REMARK    9  A    between atoms: C_26  and  N_27
REMARK                            x       y       z     vdW  Elec       q    Type
REMARK                         _______ _______ _______ _____ _____    ______ ____
ROOT
ATOM      1  C   UNL     1       2.929   2.908  20.221  0.00  0.00    +0.000 C 
ENDROOT
BRANCH   1   4
ATOM      2  O   UNL     1       2.356   3.728  17.554  0.00  0.00    +0.000 OA
ATOM      3  C   UNL     1       2.278   4.535  18.469  0.00  0.00    +0.000 C 
ATOM      4  N   UNL     1       2.497   4.228  19.791  0.00  0.00    +0.000 N 
ATOM      5  H   UNL     1       2.456   4.954  20.493  0.00  0.00    +0.000 HD
BRANCH   3   6
ATOM      6  C   UNL     1       1.950   5.970  18.256  0.00  0.00    +0.000 C 
ATOM      7  C   UNL     1       2.172   6.868  19.230  0.00  0.00    +0.000 C 
BRANCH   7   8
ATOM      8  C   UNL     1       1.816   8.295  19.145  0.00  0.00    +0.000 A 
ATOM      9  C   UNL     1       2.119   9.009  17.978  0.00  0.00    +0.000 A 
ATOM     10  C   UNL     1       1.861  10.381  17.883  0.00  0.00    +0.000 A 
ATOM     11  C   UNL     1       1.303  11.063  18.963  0.00  0.00    +0.000 A 
ATOM     12  C   UNL     1       1.005  10.362  20.139  0.00  0.00    +0.000 A 
ATOM     13  C   UNL     1       1.263   8.985  20.235  0.00  0.00    +0.000 A 
BRANCH  12  14
ATOM     14  N   UNL     1       0.433  11.091  21.282  0.00  0.00    +0.000 N 
ATOM     15  O   UNL     1       0.332  10.486  22.358  0.00  0.00    +0.000 OA
ATOM     16  O   UNL     1       0.088  12.269  21.110  0.00  0.00    +0.000 OA
ENDBRANCH  12  14
ENDBRANCH   7   8
ENDBRANCH   3   6
ENDBRANCH   1   4
BRANCH   1  17
ATOM     17  C   UNL     1       4.453   2.743  20.291  0.00  0.00    +0.000 C 
BRANCH  17  18
ATOM     18  N   UNL     1       5.106   3.068  19.032  0.00  0.00    +0.000 N 
ATOM     19  C   UNL     1       5.687   4.293  18.817  0.00  0.00    +0.000 C 
ATOM     20  O   UNL     1       5.695   5.202  19.636  0.00  0.00    +0.000 OA
ATOM     21  H   UNL     1       5.098   2.367  18.304  0.00  0.00    +0.000 HD
BRANCH  19  22
ATOM     22  C   UNL     1       6.290   4.424  17.465  0.00  0.00    +0.000 C 
ATOM     23  C   UNL     1       5.571   4.088  16.380  0.00  0.00    +0.000 C 
BRANCH  23  24
ATOM     24  C   UNL     1       6.078   4.115  15.000  0.00  0.00    +0.000 A 
ATOM     25  C   UNL     1       7.118   4.998  14.671  0.00  0.00    +0.000 A 
ATOM     26  C   UNL     1       7.586   5.103  13.355  0.00  0.00    +0.000 A 
ATOM     27  C   UNL     1       7.013   4.332  12.345  0.00  0.00    +0.000 A 
ATOM     28  C   UNL     1       5.969   3.457  12.663  0.00  0.00    +0.000 A 
ATOM     29  C   UNL     1       5.496   3.349  13.981  0.00  0.00    +0.000 A 
BRANCH  28  30
ATOM     30  N   UNL     1       5.350   2.649  11.606  0.00  0.00    +0.000 N 
ATOM     31  O   UNL     1       4.226   2.985  11.205  0.00  0.00    +0.000 OA
ATOM     32  O   UNL     1       5.990   1.678  11.173  0.00  0.00    +0.000 OA
ENDBRANCH  28  30
ENDBRANCH  23  24
ENDBRANCH  19  22
ENDBRANCH  17  18
ENDBRANCH   1  17
TORSDOF 9
ENDMDL
MODEL 4
REMARK VINA RESULT:      -7.8      1.882      8.108
REMARK  Name = 
REMARK  9 active torsions:
REMARK  status: ('A' for Active; 'I' for Inactive)
REMARK    1  A    between atoms: C_2  and  C_3
REMARK    2  A    between atoms: C_4  and  C_5
REMARK    3  A    between atoms: C_9  and  N_10
REMARK    4  A    between atoms: N_14  and  C_15
REMARK    5  A    between atoms: C_15  and  C_16
REMARK    6  A    between atoms: C_16  and  N_17
REMARK    7  A    between atoms: C_18  and  C_20
REMARK    8  A    between atoms: C_21  and  C_22
REMARK    9  A    between atoms: C_26  and  N_27
REMARK                            x       y       z     vdW  Elec       q    Type
REMARK                         _______ _______ _______ _____ _____    ______ ____
ROOT
ATOM      1  C   UNL     1       6.707   4.489  15.487  0.00  0.00    +0.000 C 
ENDROOT
BRANCH   1   4
ATOM      2  O   UNL     1       7.661   5.323  18.038  0.00  0.00    +0.000 OA
ATOM      3  C   UNL     1       7.313   6.158  17.215  0.00  0.00    +0.000 C 
ATOM      4  N   UNL     1       6.876   5.858  15.947  0.00  0.00    +0.000 N 
ATOM      5  H   UNL     1       6.564   6.596  15.331  0.00  0.00    +0.000 HD
BRANCH   3   6
ATOM      6  C   UNL     1       7.305   7.618  17.499  0.00  0.00    +0.000 C 
ATOM      7  C   UNL     1       8.440   8.246  17.852  0.00  0.00    +0.000 C 
BRANCH   7   8
ATOM      8  C   UNL     1       8.523   9.669  18.223  0.00  0.00    +0.000 A 
ATOM      9  C   UNL     1       7.854  10.621  17.442  0.00  0.00    +0.000 A 
ATOM     10  C   UNL     1       7.965  11.989  17.718  0.00  0.00    +0.000 A 
ATOM     11  C   UNL     1       8.758  12.425  18.778  0.00  0.00    +0.000 A 
ATOM     12  C   UNL     1       9.439  11.484  19.560  0.00  0.00    +0.000 A 
ATOM     13  C   UNL     1       9.329  10.111  19.283  0.00  0.00    +0.000 A 
BRANCH  12  14
ATOM     14  N   UNL     1      10.290  11.951  20.667  0.00  0.00    +0.000 N 
ATOM     15  O   UNL     1      11.495  11.669  20.624  0.00  0.00    +0.000 OA
ATOM     16  O   UNL     1       9.758  12.604  21.576  0.00  0.00    +0.000 OA
ENDBRANCH  12  14
ENDBRANCH   7   8
ENDBRANCH   3   6
ENDBRANCH   1   4
BRANCH   1  17
ATOM     17  C   UNL     1       5.487   3.776  16.087  0.00  0.00    +0.000 C 
BRANCH  17  18
ATOM     18  N   UNL     1       4.491   4.708  16.592  0.00  0.00    +0.000 N 
ATOM     19  C   UNL     1       3.743   4.428  17.708  0.00  0.00    +0.000 C 
ATOM     20  O   UNL     1       3.834   3.392  18.353  0.00  0.00    +0.000 OA
ATOM     21  H   UNL     1       4.346   5.566  16.077  0.00  0.00    +0.000 HD
BRANCH  19  22
ATOM     22  C   UNL     1       2.777   5.505  18.050  0.00  0.00    +0.000 C 
ATOM     23  C   UNL     1       3.226   6.750  18.284  0.00  0.00    +0.000 C 
BRANCH  23  24
ATOM     24  C   UNL     1       2.378   7.882  18.690  0.00  0.00    +0.000 A 
ATOM     25  C   UNL     1       2.184   8.946  17.796  0.00  0.00    +0.000 A 
ATOM     26  C   UNL     1       1.439  10.073  18.165  0.00  0.00    +0.000 A 
ATOM     27  C   UNL     1       0.882  10.156  19.440  0.00  0.00    +0.000 A 
ATOM     28  C   UNL     1       1.079   9.103  20.341  0.00  0.00    +0.000 A 
ATOM     29  C   UNL     1       1.826   7.972  19.974  0.00  0.00    +0.000 A 
BRANCH  28  30
ATOM     30  N   UNL     1       0.507   9.184  21.690  0.00  0.00    +0.000 N 
ATOM     31  O   UNL     1       1.093   9.889  22.524  0.00  0.00    +0.000 OA
ATOM     32  O   UNL     1      -0.533   8.545  21.915  0.00  0.00    +0.000 OA
ENDBRANCH  28  30
ENDBRANCH  23  24
ENDBRANCH  19  22
ENDBRANCH  17  18
ENDBRANCH   1  17
TORSDOF 9
ENDMDL
MODEL 5
REMARK VINA RESULT:      -7.8      2.798      8.025
REMARK  Name = 
REMARK  9 active torsions:
REMARK  status: ('A' for Active; 'I' for Inactive)
REMARK    1  A    between atoms: C_2  and  C_3
REMARK    2  A    between atoms: C_4  and  C_5
REMARK    3  A    between atoms: C_9  and  N_10
REMARK    4  A    between atoms: N_14  and  C_15
REMARK    5  A    between atoms: C_15  and  C_16
REMARK    6  A    between atoms: C_16  and  N_17
REMARK    7  A    between atoms: C_18  and  C_20
REMARK    8  A    between atoms: C_21  and  C_22
REMARK    9  A    between atoms: C_26  and  N_27
REMARK                            x       y       z     vdW  Elec       q    Type
REMARK                         _______ _______ _______ _____ _____    ______ ____
ROOT
ATOM      1  C   UNL     1       6.303   5.886  16.819  0.00  0.00    +0.000 C 
ENDROOT
BRANCH   1   4
ATOM      2  O   UNL     1       8.144   6.935  18.723  0.00  0.00    +0.000 OA
ATOM      3  C   UNL     1       7.724   7.649  17.824  0.00  0.00    +0.000 C 
ATOM      4  N   UNL     1       6.865   7.227  16.838  0.00  0.00    +0.000 N 
ATOM      5  H   UNL     1       6.524   7.882  16.148  0.00  0.00    +0.000 HD
BRANCH   3   6
ATOM      6  C   UNL     1       8.083   9.088  17.700  0.00  0.00    +0.000 C 
ATOM      7  C   UNL     1       8.957   9.644  18.557  0.00  0.00    +0.000 C 
BRANCH   7   8
ATOM      8  C   UNL     1       9.322  11.071  18.563  0.00  0.00    +0.000 A 
ATOM      9  C   UNL     1      10.565  11.458  19.082  0.00  0.00    +0.000 A 
ATOM     10  C   UNL     1      10.921  12.809  19.172  0.00  0.00    +0.000 A 
ATOM     11  C   UNL     1      10.030  13.795  18.751  0.00  0.00    +0.000 A 
ATOM     12  C   UNL     1       8.782  13.422  18.240  0.00  0.00    +0.000 A 
ATOM     13  C   UNL     1       8.423  12.066  18.149  0.00  0.00    +0.000 A 
BRANCH  12  14
ATOM     14  N   UNL     1       7.839  14.469  17.814  0.00  0.00    +0.000 N 
ATOM     15  O   UNL     1       8.266  15.628  17.731  0.00  0.00    +0.000 OA
ATOM     16  O   UNL     1       6.673  14.135  17.557  0.00  0.00    +0.000 OA
ENDBRANCH  12  14
ENDBRANCH   7   8
ENDBRANCH   3   6
ENDBRANCH   1   4
BRANCH   1  17
ATOM     17  C   UNL     1       4.788   5.849  16.579  0.00  0.00    +0.000 C 
BRANCH  17  18
ATOM     18  N   UNL     1       4.085   6.899  17.299  0.00  0.00    +0.000 N 
ATOM     19  C   UNL     1       2.909   6.654  17.965  0.00  0.00    +0.000 C 
ATOM     20  O   UNL     1       2.355   5.563  17.999  0.00  0.00    +0.000 OA
ATOM     21  H   UNL     1       4.478   7.830  17.275  0.00  0.00    +0.000 HD
BRANCH  19  22
ATOM     22  C   UNL     1       2.349   7.861  18.627  0.00  0.00    +0.000 C 
ATOM     23  C   UNL     1       1.834   8.852  17.878  0.00  0.00    +0.000 C 
BRANCH  23  24
ATOM     24  C   UNL     1       1.310  10.118  18.413  0.00  0.00    +0.000 A 
ATOM     25  C   UNL     1       0.043  10.132  19.014  0.00  0.00    +0.000 A 
ATOM     26  C   UNL     1      -0.523  11.327  19.477  0.00  0.00    +0.000 A 
ATOM     27  C   UNL     1       0.169  12.529  19.338  0.00  0.00    +0.000 A 
ATOM     28  C   UNL     1       1.429  12.524  18.730  0.00  0.00    +0.000 A 
ATOM     29  C   UNL     1       1.999  11.328  18.263  0.00  0.00    +0.000 A 
BRANCH  28  30
ATOM     30  N   UNL     1       2.163  13.785  18.566  0.00  0.00    +0.000 N 
ATOM     31  O   UNL     1       3.398  13.727  18.483  0.00  0.00    +0.000 OA
ATOM     32  O   UNL     1       1.502  14.834  18.516  0.00  0.00    +0.000 OA
ENDBRANCH  28  30
ENDBRANCH  23  24
ENDBRANCH  19  22
ENDBRANCH  17  18
ENDBRANCH   1  17
TORSDOF 9
ENDMDL
MODEL 6
REMARK VINA RESULT:      -7.7      4.928      7.407
REMARK  Name = 
REMARK  9 active torsions:
REMARK  status: ('A' for Active; 'I' for Inactive)
REMARK    1  A    between atoms: C_2  and  C_3
REMARK    2  A    between atoms: C_4  and  C_5
REMARK    3  A    between atoms: C_9  and  N_10
REMARK    4  A    between atoms: N_14  and  C_15
REMARK    5  A    between atoms: C_15  and  C_16
REMARK    6  A    between atoms: C_16  and  N_17
REMARK    7  A    between atoms: C_18  and  C_20
REMARK    8  A    between atoms: C_21  and  C_22
REMARK    9  A    between atoms: C_26  and  N_27
REMARK                            x       y       z     vdW  Elec       q    Type
REMARK                         _______ _______ _______ _____ _____    ______ ____
ROOT
ATOM      1  C   UNL     1       0.099  10.448  19.878  0.00  0.00    +0.000 C 
ENDROOT
BRANCH   1   4
ATOM      2  O   UNL     1       1.570   9.473  22.115  0.00  0.00    +0.000 OA
ATOM      3  C   UNL     1       1.113   8.688  21.297  0.00  0.00    +0.000 C 
ATOM      4  N   UNL     1       0.360   9.056  20.208  0.00  0.00    +0.000 N 
ATOM      5  H   UNL     1       0.048   8.357  19.548  0.00  0.00    +0.000 HD
BRANCH   3   6
ATOM      6  C   UNL     1       1.338   7.219  21.374  0.00  0.00    +0.000 C 
ATOM      7  C   UNL     1       1.686   6.528  20.275  0.00  0.00    +0.000 C 
BRANCH   7   8
ATOM      8  C   UNL     1       1.860   5.066  20.232  0.00  0.00    +0.000 A 
ATOM      9  C   UNL     1       1.389   4.287  21.297  0.00  0.00    +0.000 A 
ATOM     10  C   UNL     1       1.598   2.904  21.328  0.00  0.00    +0.000 A 
ATOM     11  C   UNL     1       2.291   2.279  20.292  0.00  0.00    +0.000 A 
ATOM     12  C   UNL     1       2.774   3.048  19.226  0.00  0.00    +0.000 A 
ATOM     13  C   UNL     1       2.566   4.437  19.195  0.00  0.00    +0.000 A 
BRANCH  12  14
ATOM     14  N   UNL     1       3.521   2.385  18.145  0.00  0.00    +0.000 N 
ATOM     15  O   UNL     1       3.770   1.179  18.274  0.00  0.00    +0.000 OA
ATOM     16  O   UNL     1       3.857   3.065  17.165  0.00  0.00    +0.000 OA
ENDBRANCH  12  14
ENDBRANCH   7   8
ENDBRANCH   3   6
ENDBRANCH   1   4
BRANCH   1  17
ATOM     17  C   UNL     1       0.982  10.996  18.749  0.00  0.00    +0.000 C 
BRANCH  17  18
ATOM     18  N   UNL     1       2.169  10.186  18.527  0.00  0.00    +0.000 N 
ATOM     19  C   UNL     1       2.118   9.014  17.814  0.00  0.00    +0.000 C 
ATOM     20  O   UNL     1       1.096   8.551  17.326  0.00  0.00    +0.000 OA
ATOM     21  H   UNL     1       3.037  10.500  18.939  0.00  0.00    +0.000 HD
BRANCH  19  22
ATOM     22  C   UNL     1       3.436   8.335  17.711  0.00  0.00    +0.000 C 
ATOM     23  C   UNL     1       3.531   7.161  17.062  0.00  0.00    +0.000 C 
BRANCH  23  24
ATOM     24  C   UNL     1       4.763   6.366  16.947  0.00  0.00    +0.000 A 
ATOM     25  C   UNL     1       5.496   6.070  18.106  0.00  0.00    +0.000 A 
ATOM     26  C   UNL     1       6.708   5.372  18.035  0.00  0.00    +0.000 A 
ATOM     27  C   UNL     1       7.210   4.967  16.800  0.00  0.00    +0.000 A 
ATOM     28  C   UNL     1       6.491   5.267  15.639  0.00  0.00    +0.000 A 
ATOM     29  C   UNL     1       5.275   5.967  15.705  0.00  0.00    +0.000 A 
BRANCH  28  30
ATOM     30  N   UNL     1       7.015   4.856  14.331  0.00  0.00    +0.000 N 
ATOM     31  O   UNL     1       7.934   5.528  13.840  0.00  0.00    +0.000 OA
ATOM     32  O   UNL     1       6.512   3.855  13.796  0.00  0.00    +0.000 OA
ENDBRANCH  28  30
ENDBRANCH  23  24
ENDBRANCH  19  22
ENDBRANCH  17  18
ENDBRANCH   1  17
TORSDOF 9
ENDMDL
MODEL 7
REMARK VINA RESULT:      -7.7      1.355      1.475
REMARK  Name = 
REMARK  9 active torsions:
REMARK  status: ('A' for Active; 'I' for Inactive)
REMARK    1  A    between atoms: C_2  and  C_3
REMARK    2  A    between atoms: C_4  and  C_5
REMARK    3  A    between atoms: C_9  and  N_10
REMARK    4  A    between atoms: N_14  and  C_15
REMARK    5  A    between atoms: C_15  and  C_16
REMARK    6  A    between atoms: C_16  and  N_17
REMARK    7  A    between atoms: C_18  and  C_20
REMARK    8  A    between atoms: C_21  and  C_22
REMARK    9  A    between atoms: C_26  and  N_27
REMARK                            x       y       z     vdW  Elec       q    Type
REMARK                         _______ _______ _______ _____ _____    ______ ____
ROOT
ATOM      1  C   UNL     1       6.153   4.518  17.864  0.00  0.00    +0.000 C 
ENDROOT
BRANCH   1   4
ATOM      2  O   UNL     1       3.365   4.684  17.297  0.00  0.00    +0.000 OA
ATOM      3  C   UNL     1       3.858   5.407  18.151  0.00  0.00    +0.000 C 
ATOM      4  N   UNL     1       5.180   5.376  18.523  0.00  0.00    +0.000 N 
ATOM      5  H   UNL     1       5.530   6.032  19.208  0.00  0.00    +0.000 HD
BRANCH   3   6
ATOM      6  C   UNL     1       3.074   6.436  18.889  0.00  0.00    +0.000 C 
ATOM      7  C   UNL     1       2.460   7.426  18.221  0.00  0.00    +0.000 C 
BRANCH   7   8
ATOM      8  C   UNL     1       1.723   8.530  18.860  0.00  0.00    +0.000 A 
ATOM      9  C   UNL     1       1.362   9.647  18.096  0.00  0.00    +0.000 A 
ATOM     10  C   UNL     1       0.725  10.747  18.681  0.00  0.00    +0.000 A 
ATOM     11  C   UNL     1       0.447  10.748  20.047  0.00  0.00    +0.000 A 
ATOM     12  C   UNL     1       0.812   9.642  20.823  0.00  0.00    +0.000 A 
ATOM     13  C   UNL     1       1.452   8.537  20.237  0.00  0.00    +0.000 A 
BRANCH  12  14
ATOM     14  N   UNL     1       0.533   9.657  22.269  0.00  0.00    +0.000 N 
ATOM     15  O   UNL     1       1.481   9.454  23.039  0.00  0.00    +0.000 OA
ATOM     16  O   UNL     1      -0.630   9.876  22.637  0.00  0.00    +0.000 OA
ENDBRANCH  12  14
ENDBRANCH   7   8
ENDBRANCH   3   6
ENDBRANCH   1   4
BRANCH   1  17
ATOM     17  C   UNL     1       7.612   4.896  18.153  0.00  0.00    +0.000 C 
BRANCH  17  18
ATOM     18  N   UNL     1       7.751   6.268  18.615  0.00  0.00    +0.000 N 
ATOM     19  C   UNL     1       7.819   7.321  17.737  0.00  0.00    +0.000 C 
ATOM     20  O   UNL     1       7.783   7.203  16.520  0.00  0.00    +0.000 OA
ATOM     21  H   UNL     1       7.821   6.423  19.612  0.00  0.00    +0.000 HD
BRANCH  19  22
ATOM     22  C   UNL     1       7.968   8.636  18.413  0.00  0.00    +0.000 C 
ATOM     23  C   UNL     1       8.888   9.511  17.969  0.00  0.00    +0.000 C 
BRANCH  23  24
ATOM     24  C   UNL     1       9.172  10.814  18.591  0.00  0.00    +0.000 A 
ATOM     25  C   UNL     1       9.760  10.850  19.864  0.00  0.00    +0.000 A 
ATOM     26  C   UNL     1       9.988  12.066  20.520  0.00  0.00    +0.000 A 
ATOM     27  C   UNL     1       9.622  13.266  19.914  0.00  0.00    +0.000 A 
ATOM     28  C   UNL     1       9.025  13.238  18.649  0.00  0.00    +0.000 A 
ATOM     29  C   UNL     1       8.795  12.021  17.988  0.00  0.00    +0.000 A 
BRANCH  28  30
ATOM     30  N   UNL     1       8.624  14.495  18.006  0.00  0.00    +0.000 N 
ATOM     31  O   UNL     1       7.443  14.610  17.648  0.00  0.00    +0.000 OA
ATOM     32  O   UNL     1       9.491  15.372  17.863  0.00  0.00    +0.000 OA
ENDBRANCH  28  30
ENDBRANCH  23  24
ENDBRANCH  19  22
ENDBRANCH  17  18
ENDBRANCH   1  17
TORSDOF 9
ENDMDL
MODEL 8
REMARK VINA RESULT:      -7.7      1.929      2.423
REMARK  Name = 
REMARK  9 active torsions:
REMARK  status: ('A' for Active; 'I' for Inactive)
REMARK    1  A    between atoms: C_2  and  C_3
REMARK    2  A    between atoms: C_4  and  C_5
REMARK    3  A    between atoms: C_9  and  N_10
REMARK    4  A    between atoms: N_14  and  C_15
REMARK    5  A    between atoms: C_15  and  C_16
REMARK    6  A    between atoms: C_16  and  N_17
REMARK    7  A    between atoms: C_18  and  C_20
REMARK    8  A    between atoms: C_21  and  C_22
REMARK    9  A    between atoms: C_26  and  N_27
REMARK                            x       y       z     vdW  Elec       q    Type
REMARK                         _______ _______ _______ _____ _____    ______ ____
ROOT
ATOM      1  C   UNL     1       4.302   5.220  17.222  0.00  0.00    +0.000 C 
ENDROOT
BRANCH   1   4
ATOM      2  O   UNL     1       2.545   5.130  19.464  0.00  0.00    +0.000 OA
ATOM      3  C   UNL     1       2.871   6.208  18.987  0.00  0.00    +0.000 C 
ATOM      4  N   UNL     1       3.740   6.357  17.934  0.00  0.00    +0.000 N 
ATOM      5  H   UNL     1       3.933   7.277  17.562  0.00  0.00    +0.000 HD
BRANCH   3   6
ATOM      6  C   UNL     1       2.342   7.506  19.488  0.00  0.00    +0.000 C 
ATOM      7  C   UNL     1       1.455   7.532  20.497  0.00  0.00    +0.000 C 
BRANCH   7   8
ATOM      8  C   UNL     1       0.819   8.755  21.015  0.00  0.00    +0.000 A 
ATOM      9  C   UNL     1       0.532   8.852  22.384  0.00  0.00    +0.000 A 
ATOM     10  C   UNL     1      -0.135   9.966  22.904  0.00  0.00    +0.000 A 
ATOM     11  C   UNL     1      -0.535  10.999  22.058  0.00  0.00    +0.000 A 
ATOM     12  C   UNL     1      -0.263  10.910  20.688  0.00  0.00    +0.000 A 
ATOM     13  C   UNL     1       0.407   9.791  20.164  0.00  0.00    +0.000 A 
BRANCH  12  14
ATOM     14  N   UNL     1      -0.703  11.995  19.796  0.00  0.00    +0.000 N 
ATOM     15  O   UNL     1      -1.919  12.117  19.596  0.00  0.00    +0.000 OA
ATOM     16  O   UNL     1       0.162  12.730  19.300  0.00  0.00    +0.000 OA
ENDBRANCH  12  14
ENDBRANCH   7   8
ENDBRANCH   3   6
ENDBRANCH   1   4
BRANCH   1  17
ATOM     17  C   UNL     1       5.753   4.902  17.605  0.00  0.00    +0.000 C 
BRANCH  17  18
ATOM     18  N   UNL     1       6.429   6.036  18.216  0.00  0.00    +0.000 N 
ATOM     19  C   UNL     1       7.313   6.814  17.510  0.00  0.00    +0.000 C 
ATOM     20  O   UNL     1       7.614   6.620  16.340  0.00  0.00    +0.000 OA
ATOM     21  H   UNL     1       6.246   6.222  19.193  0.00  0.00    +0.000 HD
BRANCH  19  22
ATOM     22  C   UNL     1       7.900   7.913  18.320  0.00  0.00    +0.000 C 
ATOM     23  C   UNL     1       8.291   9.048  17.715  0.00  0.00    +0.000 C 
BRANCH  23  24
ATOM     24  C   UNL     1       8.940  10.178  18.398  0.00  0.00    +0.000 A 
ATOM     25  C   UNL     1       9.152  10.110  19.783  0.00  0.00    +0.000 A 
ATOM     26  C   UNL     1       9.706  11.189  20.483  0.00  0.00    +0.000 A 
ATOM     27  C   UNL     1      10.050  12.358  19.808  0.00  0.00    +0.000 A 
ATOM     28  C   UNL     1       9.833  12.438  18.428  0.00  0.00    +0.000 A 
ATOM     29  C   UNL     1       9.277  11.359  17.722  0.00  0.00    +0.000 A 
BRANCH  28  30
ATOM     30  N   UNL     1      10.180  13.668  17.707  0.00  0.00    +0.000 N 
ATOM     31  O   UNL     1       9.597  14.713  18.032  0.00  0.00    +0.000 OA
ATOM     32  O   UNL     1      11.042  13.592  16.817  0.00  0.00    +0.000 OA
ENDBRANCH  28  30
ENDBRANCH  23  24
ENDBRANCH  19  22
ENDBRANCH  17  18
ENDBRANCH   1  17
TORSDOF 9
ENDMDL
MODEL 9
REMARK VINA RESULT:      -7.7      1.483      1.754
REMARK  Name = 
REMARK  9 active torsions:
REMARK  status: ('A' for Active; 'I' for Inactive)
REMARK    1  A    between atoms: C_2  and  C_3
REMARK    2  A    between atoms: C_4  and  C_5
REMARK    3  A    between atoms: C_9  and  N_10
REMARK    4  A    between atoms: N_14  and  C_15
REMARK    5  A    between atoms: C_15  and  C_16
REMARK    6  A    between atoms: C_16  and  N_17
REMARK    7  A    between atoms: C_18  and  C_20
REMARK    8  A    between atoms: C_21  and  C_22
REMARK    9  A    between atoms: C_26  and  N_27
REMARK                            x       y       z     vdW  Elec       q    Type
REMARK                         _______ _______ _______ _____ _____    ______ ____
ROOT
ATOM      1  C   UNL     1       5.382   6.395  15.809  0.00  0.00    +0.000 C 
ENDROOT
BRANCH   1   4
ATOM      2  O   UNL     1       3.423   5.828  17.799  0.00  0.00    +0.000 OA
ATOM      3  C   UNL     1       3.646   6.986  17.475  0.00  0.00    +0.000 C 
ATOM      4  N   UNL     1       4.595   7.363  16.556  0.00  0.00    +0.000 N 
ATOM      5  H   UNL     1       4.698   8.337  16.305  0.00  0.00    +0.000 HD
BRANCH   3   6
ATOM      6  C   UNL     1       2.892   8.140  18.035  0.00  0.00    +0.000 C 
ATOM      7  C   UNL     1       2.099   7.976  19.107  0.00  0.00    +0.000 C 
BRANCH   7   8
ATOM      8  C   UNL     1       1.257   9.035  19.690  0.00  0.00    +0.000 A 
ATOM      9  C   UNL     1       0.856  10.112  18.888  0.00  0.00    +0.000 A 
ATOM     10  C   UNL     1       0.116  11.173  19.421  0.00  0.00    +0.000 A 
ATOM     11  C   UNL     1      -0.226  11.177  20.772  0.00  0.00    +0.000 A 
ATOM     12  C   UNL     1       0.178  10.111  21.587  0.00  0.00    +0.000 A 
ATOM     13  C   UNL     1       0.921   9.045  21.052  0.00  0.00    +0.000 A 
BRANCH  12  14
ATOM     14  N   UNL     1      -0.170  10.130  23.017  0.00  0.00    +0.000 N 
ATOM     15  O   UNL     1       0.563   9.505  23.795  0.00  0.00    +0.000 OA
ATOM     16  O   UNL     1      -1.172  10.771  23.365  0.00  0.00    +0.000 OA
ENDBRANCH  12  14
ENDBRANCH   7   8
ENDBRANCH   3   6
ENDBRANCH   1   4
BRANCH   1  17
ATOM     17  C   UNL     1       6.671   5.960  16.519  0.00  0.00    +0.000 C 
BRANCH  17  18
ATOM     18  N   UNL     1       7.298   7.050  17.251  0.00  0.00    +0.000 N 
ATOM     19  C   UNL     1       7.938   6.839  18.448  0.00  0.00    +0.000 C 
ATOM     20  O   UNL     1       8.024   5.750  18.997  0.00  0.00    +0.000 OA
ATOM     21  H   UNL     1       7.227   7.980  16.862  0.00  0.00    +0.000 HD
BRANCH  19  22
ATOM     22  C   UNL     1       8.501   8.083  19.035  0.00  0.00    +0.000 C 
ATOM     23  C   UNL     1       8.656   9.172  18.263  0.00  0.00    +0.000 C 
BRANCH  23  24
ATOM     24  C   UNL     1       9.258  10.437  18.713  0.00  0.00    +0.000 A 
ATOM     25  C   UNL     1       9.306  10.721  20.086  0.00  0.00    +0.000 A 
ATOM     26  C   UNL     1       9.810  11.941  20.553  0.00  0.00    +0.000 A 
ATOM     27  C   UNL     1      10.267  12.901  19.652  0.00  0.00    +0.000 A 
ATOM     28  C   UNL     1      10.213  12.629  18.280  0.00  0.00    +0.000 A 
ATOM     29  C   UNL     1       9.707  11.407  17.807  0.00  0.00    +0.000 A 
BRANCH  28  30
ATOM     30  N   UNL     1      10.680  13.637  17.321  0.00  0.00    +0.000 N 
ATOM     31  O   UNL     1      10.468  14.829  17.586  0.00  0.00    +0.000 OA
ATOM     32  O   UNL     1      11.264  13.236  16.302  0.00  0.00    +0.000 OA
ENDBRANCH  28  30
ENDBRANCH  23  24
ENDBRANCH  19  22
ENDBRANCH  17  18
ENDBRANCH   1  17
TORSDOF 9
ENDMDL
