MODEL 1
REMARK VINA RESULT:      -8.2      0.000      0.000
REMARK  Name = 
REMARK  7 active torsions:
REMARK  status: ('A' for Active; 'I' for Inactive)
REMARK    1  A    between atoms: C_1  and  C_2
REMARK    2  A    between atoms: C_6  and  C_7
REMARK    3  A    between atoms: C_8  and  N_9
REMARK    4  A    between atoms: C_11  and  C_12
REMARK    5  A    between atoms: N_14  and  C_15
REMARK    6  A    between atoms: C_17  and  C_18
REMARK    7  A    between atoms: C_23  and  C_24
REMARK                            x       y       z     vdW  Elec       q    Type
REMARK                         _______ _______ _______ _____ _____    ______ ____
ROOT
ATOM      1  C   UNL     1       0.929  10.029  18.532  0.00  0.00    +0.000 C 
ATOM      2  O   UNL     1       0.099   9.441  17.844  0.00  0.00    +0.000 OA
ATOM      3  N   UNL     1       2.033   9.427  19.150  0.00  0.00    +0.000 N 
ATOM      4  H   UNL     1       2.427   9.889  19.961  0.00  0.00    +0.000 HD
ENDROOT
BRANCH   1   7
ATOM      5  N   UNL     1      -1.188  12.424  19.659  0.00  0.00    +0.000 N 
ATOM      6  C   UNL     1      -0.670  11.291  18.946  0.00  0.00    +0.000 C 
ATOM      7  C   UNL     1       0.888  11.543  18.861  0.00  0.00    +0.000 C 
ATOM      8  C   UNL     1       2.209  11.588  17.991  0.00  0.00    +0.000 C 
ATOM      9  C   UNL     1       2.839  12.909  18.333  0.00  0.00    +0.000 C 
ATOM     10  O   UNL     1       1.745  13.800  18.358  0.00  0.00    +0.000 OA
ATOM     11  C   UNL     1       0.570  12.994  18.306  0.00  0.00    +0.000 C 
ATOM     12  C   UNL     1      -0.556  13.560  19.183  0.00  0.00    +0.000 C 
ATOM     13  O   UNL     1      -0.803  14.729  19.408  0.00  0.00    +0.000 OA
BRANCH   5  21
ATOM     14  C   UNL     1      -3.493  11.855  18.026  0.00  0.00    +0.000 C 
ATOM     15  C   UNL     1      -3.587  12.160  19.498  0.00  0.00    +0.000 A 
ATOM     16  C   UNL     1      -4.862  12.291  20.065  0.00  0.00    +0.000 A 
ATOM     17  C   UNL     1      -5.005  12.553  21.423  0.00  0.00    +0.000 A 
ATOM     18  C   UNL     1      -3.875  12.681  22.229  0.00  0.00    +0.000 A 
ATOM     19  C   UNL     1      -2.581  12.582  21.690  0.00  0.00    +0.000 A 
ATOM     20  C   UNL     1      -1.413  12.819  22.609  0.00  0.00    +0.000 C 
ATOM     21  C   UNL     1      -2.438  12.337  20.310  0.00  0.00    +0.000 A 
ENDBRANCH   5  21
ENDBRANCH   1   7
BRANCH   3  22
ATOM     22  C   UNL     1       2.434   8.108  18.903  0.00  0.00    +0.000 A 
ATOM     23  C   UNL     1       3.290   7.796  17.846  0.00  0.00    +0.000 A 
ATOM     24  C   UNL     1       3.729   6.482  17.645  0.00  0.00    +0.000 A 
ATOM     25  C   UNL     1       3.236   5.468  18.482  0.00  0.00    +0.000 A 
ATOM     26  C   UNL     1       2.358   5.768  19.538  0.00  0.00    +0.000 A 
ATOM     27  C   UNL     1       1.999   7.105  19.766  0.00  0.00    +0.000 A 
BRANCH  24  28
ATOM     28  C   UNL     1       4.734   6.171  16.563  0.00  0.00    +0.000 C 
ATOM     29  F   UNL     1       4.588   4.931  16.018  0.00  0.00    +0.000 F 
ATOM     30  F   UNL     1       4.645   7.044  15.521  0.00  0.00    +0.000 F 
ATOM     31  F   UNL     1       6.018   6.242  17.004  0.00  0.00    +0.000 F 
ENDBRANCH  24  28
BRANCH  26  32
ATOM     32  C   UNL     1       1.775   4.686  20.415  0.00  0.00    +0.000 C 
ATOM     33  F   UNL     1       0.430   4.788  20.589  0.00  0.00    +0.000 F 
ATOM     34  F   UNL     1       2.001   3.440  19.916  0.00  0.00    +0.000 F 
ATOM     35  F   UNL     1       2.318   4.692  21.664  0.00  0.00    +0.000 F 
ENDBRANCH  26  32
ENDBRANCH   3  22
TORSDOF 5
ENDMDL
MODEL 2
REMARK VINA RESULT:      -8.2      1.909      4.749
REMARK  Name = 
REMARK  7 active torsions:
REMARK  status: ('A' for Active; 'I' for Inactive)
REMARK    1  A    between atoms: C_1  and  C_2
REMARK    2  A    between atoms: C_6  and  C_7
REMARK    3  A    between atoms: C_8  and  N_9
REMARK    4  A    between atoms: C_11  and  C_12
REMARK    5  A    between atoms: N_14  and  C_15
REMARK    6  A    between atoms: C_17  and  C_18
REMARK    7  A    between atoms: C_23  and  C_24
REMARK                            x       y       z     vdW  Elec       q    Type
REMARK                         _______ _______ _______ _____ _____    ______ ____
ROOT
ATOM      1  C   UNL     1       0.983   9.831  19.350  0.00  0.00    +0.000 C 
ATOM      2  O   UNL     1       1.001   9.457  20.519  0.00  0.00    +0.000 OA
ATOM      3  N   UNL     1       1.673   9.214  18.298  0.00  0.00    +0.000 N 
ATOM      4  H   UNL     1       1.893   9.778  17.485  0.00  0.00    +0.000 HD
ENDROOT
BRANCH   1   7
ATOM      5  N   UNL     1       0.889  13.203  19.682  0.00  0.00    +0.000 N 
ATOM      6  C   UNL     1       0.986  11.806  19.998  0.00  0.00    +0.000 C 
ATOM      7  C   UNL     1       0.212  11.072  18.832  0.00  0.00    +0.000 C 
ATOM      8  C   UNL     1      -0.860   9.998  18.382  0.00  0.00    +0.000 C 
ATOM      9  C   UNL     1      -1.733  10.727  17.401  0.00  0.00    +0.000 C 
ATOM     10  O   UNL     1      -1.920  11.991  18.000  0.00  0.00    +0.000 OA
ATOM     11  C   UNL     1      -1.004  12.057  19.090  0.00  0.00    +0.000 C 
ATOM     12  C   UNL     1      -0.402  13.460  19.252  0.00  0.00    +0.000 C 
ATOM     13  O   UNL     1      -0.941  14.527  19.032  0.00  0.00    +0.000 OA
BRANCH   5  21
ATOM     14  C   UNL     1       3.284  13.716  18.164  0.00  0.00    +0.000 C 
ATOM     15  C   UNL     1       3.043  14.293  19.534  0.00  0.00    +0.000 A 
ATOM     16  C   UNL     1       4.084  15.008  20.142  0.00  0.00    +0.000 A 
ATOM     17  C   UNL     1       3.908  15.577  21.398  0.00  0.00    +0.000 A 
ATOM     18  C   UNL     1       2.687  15.442  22.057  0.00  0.00    +0.000 A 
ATOM     19  C   UNL     1       1.630  14.710  21.490  0.00  0.00    +0.000 A 
ATOM     20  C   UNL     1       0.376  14.536  22.302  0.00  0.00    +0.000 C 
ATOM     21  C   UNL     1       1.818  14.116  20.226  0.00  0.00    +0.000 A 
ENDBRANCH   5  21
ENDBRANCH   1   7
BRANCH   3  22
ATOM     22  C   UNL     1       2.320   7.977  18.416  0.00  0.00    +0.000 A 
ATOM     23  C   UNL     1       1.899   7.024  19.343  0.00  0.00    +0.000 A 
ATOM     24  C   UNL     1       2.518   5.770  19.411  0.00  0.00    +0.000 A 
ATOM     25  C   UNL     1       3.620   5.513  18.580  0.00  0.00    +0.000 A 
ATOM     26  C   UNL     1       4.066   6.474  17.656  0.00  0.00    +0.000 A 
ATOM     27  C   UNL     1       3.376   7.691  17.552  0.00  0.00    +0.000 A 
BRANCH  24  28
ATOM     28  C   UNL     1       1.990   4.709  20.346  0.00  0.00    +0.000 C 
ATOM     29  F   UNL     1       2.294   3.438  19.961  0.00  0.00    +0.000 F 
ATOM     30  F   UNL     1       2.495   4.843  21.604  0.00  0.00    +0.000 F 
ATOM     31  F   UNL     1       0.638   4.752  20.477  0.00  0.00    +0.000 F 
ENDBRANCH  24  28
BRANCH  26  32
ATOM     32  C   UNL     1       5.281   6.238  16.791  0.00  0.00    +0.000 C 
ATOM     33  F   UNL     1       5.080   6.525  15.476  0.00  0.00    +0.000 F 
ATOM     34  F   UNL     1       6.348   6.985  17.186  0.00  0.00    +0.000 F 
ATOM     35  F   UNL     1       5.696   4.942  16.835  0.00  0.00    +0.000 F 
ENDBRANCH  26  32
ENDBRANCH   3  22
TORSDOF 5
ENDMDL
MODEL 3
REMARK VINA RESULT:      -8.2      0.139      3.032
REMARK  Name = 
REMARK  7 active torsions:
REMARK  status: ('A' for Active; 'I' for Inactive)
REMARK    1  A    between atoms: C_1  and  C_2
REMARK    2  A    between atoms: C_6  and  C_7
REMARK    3  A    between atoms: C_8  and  N_9
REMARK    4  A    between atoms: C_11  and  C_12
REMARK    5  A    between atoms: N_14  and  C_15
REMARK    6  A    between atoms: C_17  and  C_18
REMARK    7  A    between atoms: C_23  and  C_24
REMARK                            x       y       z     vdW  Elec       q    Type
REMARK                         _______ _______ _______ _____ _____    ______ ____
ROOT
ATOM      1  C   UNL     1       0.924  10.049  18.517  0.00  0.00    +0.000 C 
ATOM      2  O   UNL     1       0.151   9.464  17.763  0.00  0.00    +0.000 OA
ATOM      3  N   UNL     1       1.973   9.443  19.220  0.00  0.00    +0.000 N 
ATOM      4  H   UNL     1       2.303   9.902  20.062  0.00  0.00    +0.000 HD
ENDROOT
BRANCH   1   7
ATOM      5  N   UNL     1      -1.250  12.429  19.566  0.00  0.00    +0.000 N 
ATOM      6  C   UNL     1      -0.698  11.299  18.872  0.00  0.00    +0.000 C 
ATOM      7  C   UNL     1       0.861  11.562  18.845  0.00  0.00    +0.000 C 
ATOM      8  C   UNL     1       2.212  11.617  18.024  0.00  0.00    +0.000 C 
ATOM      9  C   UNL     1       2.820  12.942  18.389  0.00  0.00    +0.000 C 
ATOM     10  O   UNL     1       1.720  13.825  18.374  0.00  0.00    +0.000 OA
ATOM     11  C   UNL     1       0.553  13.011  18.279  0.00  0.00    +0.000 C 
ATOM     12  C   UNL     1      -0.608  13.568  19.114  0.00  0.00    +0.000 C 
ATOM     13  O   UNL     1      -0.872  14.736  19.329  0.00  0.00    +0.000 OA
BRANCH   5  21
ATOM     14  C   UNL     1      -3.478  11.773  17.860  0.00  0.00    +0.000 C 
ATOM     15  C   UNL     1      -3.635  12.112  19.319  0.00  0.00    +0.000 A 
ATOM     16  C   UNL     1      -4.933  12.232  19.833  0.00  0.00    +0.000 A 
ATOM     17  C   UNL     1      -5.134  12.524  21.177  0.00  0.00    +0.000 A 
ATOM     18  C   UNL     1      -4.040  12.695  22.023  0.00  0.00    +0.000 A 
ATOM     19  C   UNL     1      -2.723  12.608  21.537  0.00  0.00    +0.000 A 
ATOM     20  C   UNL     1      -1.597  12.891  22.493  0.00  0.00    +0.000 C 
ATOM     21  C   UNL     1      -2.522  12.332  20.169  0.00  0.00    +0.000 A 
ENDBRANCH   5  21
ENDBRANCH   1   7
BRANCH   3  22
ATOM     22  C   UNL     1       2.390   8.123  19.004  0.00  0.00    +0.000 A 
ATOM     23  C   UNL     1       1.944   7.079  19.814  0.00  0.00    +0.000 A 
ATOM     24  C   UNL     1       2.323   5.757  19.552  0.00  0.00    +0.000 A 
ATOM     25  C   UNL     1       3.221   5.506  18.502  0.00  0.00    +0.000 A 
ATOM     26  C   UNL     1       3.692   6.553  17.690  0.00  0.00    +0.000 A 
ATOM     27  C   UNL     1       3.232   7.857  17.925  0.00  0.00    +0.000 A 
BRANCH  24  28
ATOM     28  C   UNL     1       1.754   4.624  20.370  0.00  0.00    +0.000 C 
ATOM     29  F   UNL     1       1.987   3.392  19.839  0.00  0.00    +0.000 F 
ATOM     30  F   UNL     1       2.282   4.589  21.626  0.00  0.00    +0.000 F 
ATOM     31  F   UNL     1       0.407   4.719  20.531  0.00  0.00    +0.000 F 
ENDBRANCH  24  28
BRANCH  26  32
ATOM     32  C   UNL     1       4.698   6.311  16.591  0.00  0.00    +0.000 C 
ATOM     33  F   UNL     1       4.561   7.152  15.530  0.00  0.00    +0.000 F 
ATOM     34  F   UNL     1       5.980   6.450  17.024  0.00  0.00    +0.000 F 
ATOM     35  F   UNL     1       4.610   5.050  16.085  0.00  0.00    +0.000 F 
ENDBRANCH  26  32
ENDBRANCH   3  22
TORSDOF 5
ENDMDL
MODEL 4
REMARK VINA RESULT:      -8.0      1.907      3.773
REMARK  Name = 
REMARK  7 active torsions:
REMARK  status: ('A' for Active; 'I' for Inactive)
REMARK    1  A    between atoms: C_1  and  C_2
REMARK    2  A    between atoms: C_6  and  C_7
REMARK    3  A    between atoms: C_8  and  N_9
REMARK    4  A    between atoms: C_11  and  C_12
REMARK    5  A    between atoms: N_14  and  C_15
REMARK    6  A    between atoms: C_17  and  C_18
REMARK    7  A    between atoms: C_23  and  C_24
REMARK                            x       y       z     vdW  Elec       q    Type
REMARK                         _______ _______ _______ _____ _____    ______ ____
ROOT
ATOM      1  C   UNL     1       0.998   9.809  19.320  0.00  0.00    +0.000 C 
ATOM      2  O   UNL     1       1.046   9.422  20.484  0.00  0.00    +0.000 OA
ATOM      3  N   UNL     1       1.674   9.214  18.247  0.00  0.00    +0.000 N 
ATOM      4  H   UNL     1       1.870   9.791  17.436  0.00  0.00    +0.000 HD
ENDROOT
BRANCH   1   7
ATOM      5  N   UNL     1       0.850  13.173  19.707  0.00  0.00    +0.000 N 
ATOM      6  C   UNL     1       0.976  11.773  20.000  0.00  0.00    +0.000 C 
ATOM      7  C   UNL     1       0.198  11.043  18.833  0.00  0.00    +0.000 C 
ATOM      8  C   UNL     1      -0.861   9.958  18.381  0.00  0.00    +0.000 C 
ATOM      9  C   UNL     1      -1.761  10.687  17.424  0.00  0.00    +0.000 C 
ATOM     10  O   UNL     1      -1.961  11.938  18.045  0.00  0.00    +0.000 OA
ATOM     11  C   UNL     1      -1.030  12.003  19.124  0.00  0.00    +0.000 C 
ATOM     12  C   UNL     1      -0.450  13.413  19.300  0.00  0.00    +0.000 C 
ATOM     13  O   UNL     1      -1.011  14.475  19.105  0.00  0.00    +0.000 OA
BRANCH   5  21
ATOM     14  C   UNL     1       3.233  13.722  18.183  0.00  0.00    +0.000 C 
ATOM     15  C   UNL     1       2.991  14.288  19.557  0.00  0.00    +0.000 A 
ATOM     16  C   UNL     1       4.026  15.011  20.165  0.00  0.00    +0.000 A 
ATOM     17  C   UNL     1       3.849  15.571  21.425  0.00  0.00    +0.000 A 
ATOM     18  C   UNL     1       2.633  15.419  22.089  0.00  0.00    +0.000 A 
ATOM     19  C   UNL     1       1.581  14.677  21.521  0.00  0.00    +0.000 A 
ATOM     20  C   UNL     1       0.333  14.485  22.338  0.00  0.00    +0.000 C 
ATOM     21  C   UNL     1       1.771  14.093  20.253  0.00  0.00    +0.000 A 
ENDBRANCH   5  21
ENDBRANCH   1   7
BRANCH   3  22
ATOM     22  C   UNL     1       2.342   7.986  18.337  0.00  0.00    +0.000 A 
ATOM     23  C   UNL     1       3.436   7.693  17.522  0.00  0.00    +0.000 A 
ATOM     24  C   UNL     1       4.129   6.485  17.662  0.00  0.00    +0.000 A 
ATOM     25  C   UNL     1       3.661   5.539  18.587  0.00  0.00    +0.000 A 
ATOM     26  C   UNL     1       2.548   5.815  19.401  0.00  0.00    +0.000 A 
ATOM     27  C   UNL     1       1.922   7.066  19.296  0.00  0.00    +0.000 A 
BRANCH  24  28
ATOM     28  C   UNL     1       5.372   6.221  16.847  0.00  0.00    +0.000 C 
ATOM     29  F   UNL     1       6.440   6.985  17.212  0.00  0.00    +0.000 F 
ATOM     30  F   UNL     1       5.789   4.929  16.960  0.00  0.00    +0.000 F 
ATOM     31  F   UNL     1       5.185   6.441  15.519  0.00  0.00    +0.000 F 
ENDBRANCH  24  28
BRANCH  26  32
ATOM     32  C   UNL     1       1.998   4.791  20.364  0.00  0.00    +0.000 C 
ATOM     33  F   UNL     1       2.490   4.909  21.627  0.00  0.00    +0.000 F 
ATOM     34  F   UNL     1       0.643   4.864  20.475  0.00  0.00    +0.000 F 
ATOM     35  F   UNL     1       2.272   3.518  19.969  0.00  0.00    +0.000 F 
ENDBRANCH  26  32
ENDBRANCH   3  22
TORSDOF 5
ENDMDL
MODEL 5
REMARK VINA RESULT:      -8.0      1.912      4.795
REMARK  Name = 
REMARK  7 active torsions:
REMARK  status: ('A' for Active; 'I' for Inactive)
REMARK    1  A    between atoms: C_1  and  C_2
REMARK    2  A    between atoms: C_6  and  C_7
REMARK    3  A    between atoms: C_8  and  N_9
REMARK    4  A    between atoms: C_11  and  C_12
REMARK    5  A    between atoms: N_14  and  C_15
REMARK    6  A    between atoms: C_17  and  C_18
REMARK    7  A    between atoms: C_23  and  C_24
REMARK                            x       y       z     vdW  Elec       q    Type
REMARK                         _______ _______ _______ _____ _____    ______ ____
ROOT
ATOM      1  C   UNL     1       0.973   9.764  19.326  0.00  0.00    +0.000 C 
ATOM      2  O   UNL     1       0.946   9.378  20.491  0.00  0.00    +0.000 OA
ATOM      3  N   UNL     1       1.705   9.160  18.296  0.00  0.00    +0.000 N 
ATOM      4  H   UNL     1       1.957   9.733  17.499  0.00  0.00    +0.000 HD
ENDROOT
BRANCH   1   7
ATOM      5  N   UNL     1       0.858  13.132  19.693  0.00  0.00    +0.000 N 
ATOM      6  C   UNL     1       0.945  11.732  19.997  0.00  0.00    +0.000 C 
ATOM      7  C   UNL     1       0.221  11.009  18.792  0.00  0.00    +0.000 C 
ATOM      8  C   UNL     1      -0.829   9.939  18.286  0.00  0.00    +0.000 C 
ATOM      9  C   UNL     1      -1.663  10.678  17.278  0.00  0.00    +0.000 C 
ATOM     10  O   UNL     1      -1.877  11.934  17.883  0.00  0.00    +0.000 OA
ATOM     11  C   UNL     1      -1.006  11.989  19.011  0.00  0.00    +0.000 C 
ATOM     12  C   UNL     1      -0.415  13.391  19.213  0.00  0.00    +0.000 C 
ATOM     13  O   UNL     1      -0.947  14.461  18.984  0.00  0.00    +0.000 OA
BRANCH   5  21
ATOM     14  C   UNL     1       0.166  14.190  22.282  0.00  0.00    +0.000 C 
ATOM     15  C   UNL     1       1.378  14.641  21.510  0.00  0.00    +0.000 A 
ATOM     16  C   UNL     1       2.128  15.708  22.022  0.00  0.00    +0.000 A 
ATOM     17  C   UNL     1       3.266  16.152  21.359  0.00  0.00    +0.000 A 
ATOM     18  C   UNL     1       3.670  15.529  20.179  0.00  0.00    +0.000 A 
ATOM     19  C   UNL     1       2.927  14.474  19.621  0.00  0.00    +0.000 A 
ATOM     20  C   UNL     1       3.379  13.913  18.301  0.00  0.00    +0.000 C 
ATOM     21  C   UNL     1       1.762  14.040  20.285  0.00  0.00    +0.000 A 
ENDBRANCH   5  21
ENDBRANCH   1   7
BRANCH   3  22
ATOM     22  C   UNL     1       2.350   7.922  18.427  0.00  0.00    +0.000 A 
ATOM     23  C   UNL     1       1.916   6.973  19.352  0.00  0.00    +0.000 A 
ATOM     24  C   UNL     1       2.533   5.719  19.433  0.00  0.00    +0.000 A 
ATOM     25  C   UNL     1       3.644   5.458  18.616  0.00  0.00    +0.000 A 
ATOM     26  C   UNL     1       4.102   6.414  17.693  0.00  0.00    +0.000 A 
ATOM     27  C   UNL     1       3.414   7.631  17.576  0.00  0.00    +0.000 A 
BRANCH  24  28
ATOM     28  C   UNL     1       1.993   4.662  20.365  0.00  0.00    +0.000 C 
ATOM     29  F   UNL     1       2.300   3.389  19.989  0.00  0.00    +0.000 F 
ATOM     30  F   UNL     1       2.482   4.801  21.629  0.00  0.00    +0.000 F 
ATOM     31  F   UNL     1       0.639   4.706  20.479  0.00  0.00    +0.000 F 
ENDBRANCH  24  28
BRANCH  26  32
ATOM     32  C   UNL     1       5.326   6.173  16.843  0.00  0.00    +0.000 C 
ATOM     33  F   UNL     1       6.397   6.934  17.198  0.00  0.00    +0.000 F 
ATOM     34  F   UNL     1       5.745   4.879  16.897  0.00  0.00    +0.000 F 
ATOM     35  F   UNL     1       5.097   6.436  15.527  0.00  0.00    +0.000 F 
ENDBRANCH  26  32
ENDBRANCH   3  22
TORSDOF 5
ENDMDL
MODEL 6
REMARK VINA RESULT:      -7.9      2.192      4.612
REMARK  Name = 
REMARK  7 active torsions:
REMARK  status: ('A' for Active; 'I' for Inactive)
REMARK    1  A    between atoms: C_1  and  C_2
REMARK    2  A    between atoms: C_6  and  C_7
REMARK    3  A    between atoms: C_8  and  N_9
REMARK    4  A    between atoms: C_11  and  C_12
REMARK    5  A    between atoms: N_14  and  C_15
REMARK    6  A    between atoms: C_17  and  C_18
REMARK    7  A    between atoms: C_23  and  C_24
REMARK                            x       y       z     vdW  Elec       q    Type
REMARK                         _______ _______ _______ _____ _____    ______ ____
ROOT
ATOM      1  C   UNL     1       1.224   9.391  18.964  0.00  0.00    +0.000 C 
ATOM      2  O   UNL     1       1.375   9.009  20.121  0.00  0.00    +0.000 OA
ATOM      3  N   UNL     1       1.862   8.840  17.845  0.00  0.00    +0.000 N 
ATOM      4  H   UNL     1       1.964   9.427  17.025  0.00  0.00    +0.000 HD
ENDROOT
BRANCH   1   7
ATOM      5  N   UNL     1       0.795  12.711  19.492  0.00  0.00    +0.000 N 
ATOM      6  C   UNL     1       1.043  11.317  19.725  0.00  0.00    +0.000 C 
ATOM      7  C   UNL     1       0.315  10.571  18.537  0.00  0.00    +0.000 C 
ATOM      8  C   UNL     1      -0.654   9.418  18.050  0.00  0.00    +0.000 C 
ATOM      9  C   UNL     1      -1.625  10.106  17.133  0.00  0.00    +0.000 C 
ATOM     10  O   UNL     1      -1.923  11.309  17.808  0.00  0.00    +0.000 OA
ATOM     11  C   UNL     1      -0.987  11.409  18.879  0.00  0.00    +0.000 C 
ATOM     12  C   UNL     1      -0.527  12.856  19.108  0.00  0.00    +0.000 C 
ATOM     13  O   UNL     1      -1.179  13.872  18.962  0.00  0.00    +0.000 OA
BRANCH   5  21
ATOM     14  C   UNL     1       3.151  13.455  18.011  0.00  0.00    +0.000 C 
ATOM     15  C   UNL     1       2.853  13.977  19.392  0.00  0.00    +0.000 A 
ATOM     16  C   UNL     1       3.826  14.761  20.026  0.00  0.00    +0.000 A 
ATOM     17  C   UNL     1       3.593  15.283  21.293  0.00  0.00    +0.000 A 
ATOM     18  C   UNL     1       2.383  15.034  21.937  0.00  0.00    +0.000 A 
ATOM     19  C   UNL     1       1.394  14.230  21.342  0.00  0.00    +0.000 A 
ATOM     20  C   UNL     1       0.152  13.935  22.137  0.00  0.00    +0.000 C 
ATOM     21  C   UNL     1       1.641  13.684  20.067  0.00  0.00    +0.000 A 
ENDBRANCH   5  21
ENDBRANCH   1   7
BRANCH   3  22
ATOM     22  C   UNL     1       2.612   7.657  17.886  0.00  0.00    +0.000 A 
ATOM     23  C   UNL     1       2.022   6.435  18.211  0.00  0.00    +0.000 A 
ATOM     24  C   UNL     1       2.770   5.252  18.192  0.00  0.00    +0.000 A 
ATOM     25  C   UNL     1       4.144   5.325  17.911  0.00  0.00    +0.000 A 
ATOM     26  C   UNL     1       4.753   6.553  17.601  0.00  0.00    +0.000 A 
ATOM     27  C   UNL     1       3.963   7.711  17.547  0.00  0.00    +0.000 A 
BRANCH  24  28
ATOM     28  C   UNL     1       2.102   3.923  18.444  0.00  0.00    +0.000 C 
ATOM     29  F   UNL     1       0.897   4.025  19.073  0.00  0.00    +0.000 F 
ATOM     30  F   UNL     1       1.856   3.249  17.286  0.00  0.00    +0.000 F 
ATOM     31  F   UNL     1       2.858   3.092  19.209  0.00  0.00    +0.000 F 
ENDBRANCH  24  28
BRANCH  26  32
ATOM     32  C   UNL     1       6.238   6.660  17.347  0.00  0.00    +0.000 C 
ATOM     33  F   UNL     1       6.677   7.939  17.197  0.00  0.00    +0.000 F 
ATOM     34  F   UNL     1       6.973   6.121  18.358  0.00  0.00    +0.000 F 
ATOM     35  F   UNL     1       6.613   5.998  16.219  0.00  0.00    +0.000 F 
ENDBRANCH  26  32
ENDBRANCH   3  22
TORSDOF 5
ENDMDL
MODEL 7
REMARK VINA RESULT:      -7.9      2.052      3.895
REMARK  Name = 
REMARK  7 active torsions:
REMARK  status: ('A' for Active; 'I' for Inactive)
REMARK    1  A    between atoms: C_1  and  C_2
REMARK    2  A    between atoms: C_6  and  C_7
REMARK    3  A    between atoms: C_8  and  N_9
REMARK    4  A    between atoms: C_11  and  C_12
REMARK    5  A    between atoms: N_14  and  C_15
REMARK    6  A    between atoms: C_17  and  C_18
REMARK    7  A    between atoms: C_23  and  C_24
REMARK                            x       y       z     vdW  Elec       q    Type
REMARK                         _______ _______ _______ _____ _____    ______ ____
ROOT
ATOM      1  C   UNL     1       1.110   9.579  18.985  0.00  0.00    +0.000 C 
ATOM      2  O   UNL     1       1.202   9.149  20.132  0.00  0.00    +0.000 OA
ATOM      3  N   UNL     1       1.774   9.049  17.872  0.00  0.00    +0.000 N 
ATOM      4  H   UNL     1       1.929   9.663  17.081  0.00  0.00    +0.000 HD
ENDROOT
BRANCH   1   7
ATOM      5  N   UNL     1       0.797  12.899  19.595  0.00  0.00    +0.000 N 
ATOM      6  C   UNL     1       0.986  11.490  19.795  0.00  0.00    +0.000 C 
ATOM      7  C   UNL     1       0.258  10.806  18.570  0.00  0.00    +0.000 C 
ATOM      8  C   UNL     1      -0.742   9.706  18.029  0.00  0.00    +0.000 C 
ATOM      9  C   UNL     1      -1.663  10.455  17.108  0.00  0.00    +0.000 C 
ATOM     10  O   UNL     1      -1.930  11.650  17.808  0.00  0.00    +0.000 OA
ATOM     11  C   UNL     1      -1.018  11.686  18.904  0.00  0.00    +0.000 C 
ATOM     12  C   UNL     1      -0.508  13.106  19.183  0.00  0.00    +0.000 C 
ATOM     13  O   UNL     1      -1.116  14.151  19.050  0.00  0.00    +0.000 OA
BRANCH   5  21
ATOM     14  C   UNL     1       0.068  13.846  22.217  0.00  0.00    +0.000 C 
ATOM     15  C   UNL     1       1.261  14.369  21.459  0.00  0.00    +0.000 A 
ATOM     16  C   UNL     1       1.970  15.447  22.006  0.00  0.00    +0.000 A 
ATOM     17  C   UNL     1       3.089  15.954  21.357  0.00  0.00    +0.000 A 
ATOM     18  C   UNL     1       3.516  15.386  20.158  0.00  0.00    +0.000 A 
ATOM     19  C   UNL     1       2.814  14.321  19.567  0.00  0.00    +0.000 A 
ATOM     20  C   UNL     1       3.286  13.820  18.229  0.00  0.00    +0.000 C 
ATOM     21  C   UNL     1       1.667  13.822  20.216  0.00  0.00    +0.000 A 
ENDBRANCH   5  21
ENDBRANCH   1   7
BRANCH   3  22
ATOM     22  C   UNL     1       2.482   7.840  17.896  0.00  0.00    +0.000 A 
ATOM     23  C   UNL     1       3.811   7.769  17.476  0.00  0.00    +0.000 A 
ATOM     24  C   UNL     1       4.524   6.567  17.558  0.00  0.00    +0.000 A 
ATOM     25  C   UNL     1       3.857   5.414  18.003  0.00  0.00    +0.000 A 
ATOM     26  C   UNL     1       2.513   5.470  18.411  0.00  0.00    +0.000 A 
ATOM     27  C   UNL     1       1.847   6.704  18.395  0.00  0.00    +0.000 A 
BRANCH  24  28
ATOM     28  C   UNL     1       5.989   6.524  17.198  0.00  0.00    +0.000 C 
ATOM     29  F   UNL     1       6.599   7.741  17.235  0.00  0.00    +0.000 F 
ATOM     30  F   UNL     1       6.698   5.731  18.049  0.00  0.00    +0.000 F 
ATOM     31  F   UNL     1       6.207   6.027  15.952  0.00  0.00    +0.000 F 
ENDBRANCH  24  28
BRANCH  26  32
ATOM     32  C   UNL     1       1.765   4.232  18.842  0.00  0.00    +0.000 C 
ATOM     33  F   UNL     1       2.575   3.187  19.165  0.00  0.00    +0.000 F 
ATOM     34  F   UNL     1       0.981   4.457  19.933  0.00  0.00    +0.000 F 
ATOM     35  F   UNL     1       0.929   3.774  17.870  0.00  0.00    +0.000 F 
ENDBRANCH  26  32
ENDBRANCH   3  22
TORSDOF 5
ENDMDL
MODEL 8
REMARK VINA RESULT:      -7.8      5.272      7.571
REMARK  Name = 
REMARK  7 active torsions:
REMARK  status: ('A' for Active; 'I' for Inactive)
REMARK    1  A    between atoms: C_1  and  C_2
REMARK    2  A    between atoms: C_6  and  C_7
REMARK    3  A    between atoms: C_8  and  N_9
REMARK    4  A    between atoms: C_11  and  C_12
REMARK    5  A    between atoms: N_14  and  C_15
REMARK    6  A    between atoms: C_17  and  C_18
REMARK    7  A    between atoms: C_23  and  C_24
REMARK                            x       y       z     vdW  Elec       q    Type
REMARK                         _______ _______ _______ _____ _____    ______ ____
ROOT
ATOM      1  C   UNL     1      -1.716  13.148  21.000  0.00  0.00    +0.000 C 
ATOM      2  O   UNL     1      -1.459  12.008  21.378  0.00  0.00    +0.000 OA
ATOM      3  N   UNL     1      -2.478  13.467  19.869  0.00  0.00    +0.000 N 
ATOM      4  H   UNL     1      -2.329  14.375  19.443  0.00  0.00    +0.000 HD
ENDROOT
BRANCH   1   7
ATOM      5  N   UNL     1      -0.269  16.131  20.297  0.00  0.00    +0.000 N 
ATOM      6  C   UNL     1      -0.569  14.727  20.286  0.00  0.00    +0.000 C 
ATOM      7  C   UNL     1      -1.220  14.440  21.697  0.00  0.00    +0.000 C 
ATOM      8  C   UNL     1      -1.287  13.551  23.004  0.00  0.00    +0.000 C 
ATOM      9  C   UNL     1      -1.247  14.540  24.134  0.00  0.00    +0.000 C 
ATOM     10  O   UNL     1      -0.267  15.470  23.725  0.00  0.00    +0.000 OA
ATOM     11  C   UNL     1       0.018  15.177  22.359  0.00  0.00    +0.000 C 
ATOM     12  C   UNL     1       0.261  16.449  21.536  0.00  0.00    +0.000 C 
ATOM     13  O   UNL     1       0.780  17.484  21.908  0.00  0.00    +0.000 OA
BRANCH   5  21
ATOM     14  C   UNL     1       2.281  15.901  18.975  0.00  0.00    +0.000 C 
ATOM     15  C   UNL     1       1.179  16.801  18.479  0.00  0.00    +0.000 A 
ATOM     16  C   UNL     1       1.456  17.651  17.400  0.00  0.00    +0.000 A 
ATOM     17  C   UNL     1       0.469  18.487  16.892  0.00  0.00    +0.000 A 
ATOM     18  C   UNL     1      -0.807  18.479  17.453  0.00  0.00    +0.000 A 
ATOM     19  C   UNL     1      -1.113  17.659  18.553  0.00  0.00    +0.000 A 
ATOM     20  C   UNL     1      -2.486  17.772  19.157  0.00  0.00    +0.000 C 
ATOM     21  C   UNL     1      -0.105  16.827  19.080  0.00  0.00    +0.000 A 
ENDBRANCH   5  21
ENDBRANCH   1   7
BRANCH   3  22
ATOM     22  C   UNL     1      -3.202  12.522  19.131  0.00  0.00    +0.000 A 
ATOM     23  C   UNL     1      -2.621  11.832  18.066  0.00  0.00    +0.000 A 
ATOM     24  C   UNL     1      -3.339  10.849  17.374  0.00  0.00    +0.000 A 
ATOM     25  C   UNL     1      -4.679  10.619  17.721  0.00  0.00    +0.000 A 
ATOM     26  C   UNL     1      -5.281  11.322  18.780  0.00  0.00    +0.000 A 
ATOM     27  C   UNL     1      -4.514  12.243  19.509  0.00  0.00    +0.000 A 
BRANCH  24  28
ATOM     28  C   UNL     1      -2.669  10.038  16.292  0.00  0.00    +0.000 C 
ATOM     29  F   UNL     1      -2.337  10.763  15.188  0.00  0.00    +0.000 F 
ATOM     30  F   UNL     1      -1.507   9.474  16.725  0.00  0.00    +0.000 F 
ATOM     31  F   UNL     1      -3.444   9.011  15.852  0.00  0.00    +0.000 F 
ENDBRANCH  24  28
BRANCH  26  32
ATOM     32  C   UNL     1      -6.736  11.127  19.134  0.00  0.00    +0.000 C 
ATOM     33  F   UNL     1      -7.573  11.996  18.505  0.00  0.00    +0.000 F 
ATOM     34  F   UNL     1      -7.180   9.878  18.823  0.00  0.00    +0.000 F 
ATOM     35  F   UNL     1      -6.963  11.283  20.467  0.00  0.00    +0.000 F 
ENDBRANCH  26  32
ENDBRANCH   3  22
TORSDOF 5
ENDMDL
MODEL 9
REMARK VINA RESULT:      -7.7      3.836      6.100
REMARK  Name = 
REMARK  7 active torsions:
REMARK  status: ('A' for Active; 'I' for Inactive)
REMARK    1  A    between atoms: C_1  and  C_2
REMARK    2  A    between atoms: C_6  and  C_7
REMARK    3  A    between atoms: C_8  and  N_9
REMARK    4  A    between atoms: C_11  and  C_12
REMARK    5  A    between atoms: N_14  and  C_15
REMARK    6  A    between atoms: C_17  and  C_18
REMARK    7  A    between atoms: C_23  and  C_24
REMARK                            x       y       z     vdW  Elec       q    Type
REMARK                         _______ _______ _______ _____ _____    ______ ____
ROOT
ATOM      1  C   UNL     1      -1.477  14.098  20.596  0.00  0.00    +0.000 C 
ATOM      2  O   UNL     1      -1.014  14.677  19.617  0.00  0.00    +0.000 OA
ATOM      3  N   UNL     1      -1.890  12.760  20.618  0.00  0.00    +0.000 N 
ATOM      4  H   UNL     1      -2.571  12.489  21.318  0.00  0.00    +0.000 HD
ENDROOT
BRANCH   1   7
ATOM      5  N   UNL     1      -3.933  14.680  22.858  0.00  0.00    +0.000 N 
ATOM      6  C   UNL     1      -3.232  14.554  21.612  0.00  0.00    +0.000 C 
ATOM      7  C   UNL     1      -1.709  14.755  21.981  0.00  0.00    +0.000 C 
ATOM      8  C   UNL     1      -0.323  15.458  21.683  0.00  0.00    +0.000 C 
ATOM      9  C   UNL     1       0.129  15.980  23.017  0.00  0.00    +0.000 C 
ATOM     10  O   UNL     1      -1.051  16.513  23.579  0.00  0.00    +0.000 OA
ATOM     11  C   UNL     1      -2.124  16.080  22.747  0.00  0.00    +0.000 C 
ATOM     12  C   UNL     1      -3.381  15.739  23.558  0.00  0.00    +0.000 C 
ATOM     13  O   UNL     1      -3.771  16.273  24.579  0.00  0.00    +0.000 OA
BRANCH   5  21
ATOM     14  C   UNL     1      -6.076  15.913  21.379  0.00  0.00    +0.000 C 
ATOM     15  C   UNL     1      -6.297  14.791  22.358  0.00  0.00    +0.000 A 
ATOM     16  C   UNL     1      -7.616  14.417  22.648  0.00  0.00    +0.000 A 
ATOM     17  C   UNL     1      -7.875  13.375  23.530  0.00  0.00    +0.000 A 
ATOM     18  C   UNL     1      -6.818  12.690  24.127  0.00  0.00    +0.000 A 
ATOM     19  C   UNL     1      -5.482  13.054  23.880  0.00  0.00    +0.000 A 
ATOM     20  C   UNL     1      -4.401  12.324  24.630  0.00  0.00    +0.000 C 
ATOM     21  C   UNL     1      -5.223  14.125  23.002  0.00  0.00    +0.000 A 
ENDBRANCH   5  21
ENDBRANCH   1   7
BRANCH   3  22
ATOM     22  C   UNL     1      -1.651  11.858  19.572  0.00  0.00    +0.000 A 
ATOM     23  C   UNL     1      -2.616  11.609  18.595  0.00  0.00    +0.000 A 
ATOM     24  C   UNL     1      -2.343  10.749  17.524  0.00  0.00    +0.000 A 
ATOM     25  C   UNL     1      -1.107  10.084  17.488  0.00  0.00    +0.000 A 
ATOM     26  C   UNL     1      -0.135  10.313  18.477  0.00  0.00    +0.000 A 
ATOM     27  C   UNL     1      -0.404  11.241  19.494  0.00  0.00    +0.000 A 
BRANCH  24  28
ATOM     28  C   UNL     1      -3.353  10.565  16.419  0.00  0.00    +0.000 C 
ATOM     29  F   UNL     1      -4.639  10.795  16.806  0.00  0.00    +0.000 F 
ATOM     30  F   UNL     1      -3.126  11.412  15.376  0.00  0.00    +0.000 F 
ATOM     31  F   UNL     1      -3.335   9.311  15.895  0.00  0.00    +0.000 F 
ENDBRANCH  24  28
BRANCH  26  32
ATOM     32  C   UNL     1       1.178   9.569  18.485  0.00  0.00    +0.000 C 
ATOM     33  F   UNL     1       1.487   9.017  19.690  0.00  0.00    +0.000 F 
ATOM     34  F   UNL     1       1.199   8.549  17.584  0.00  0.00    +0.000 F 
ATOM     35  F   UNL     1       2.226  10.375  18.161  0.00  0.00    +0.000 F 
ENDBRANCH  26  32
ENDBRANCH   3  22
TORSDOF 5
ENDMDL
