MODEL 1
REMARK VINA RESULT:      -8.2      0.000      0.000
REMARK  Name = 
REMARK  10 active torsions:
REMARK  status: ('A' for Active; 'I' for Inactive)
REMARK    1  A    between atoms: C_1  and  O_2
REMARK    2  A    between atoms: O_2  and  C_3
REMARK    3  A    between atoms: C_5  and  C_6
REMARK    4  A    between atoms: C_6  and  C_7
REMARK    5  A    between atoms: C_10  and  O_11
REMARK    6  A    between atoms: C_12  and  O_13
REMARK    7  A    between atoms: O_13  and  C_14
REMARK    8  A    between atoms: N_19  and  C_20
REMARK    9  A    between atoms: N_19  and  C_21
REMARK   10  A    between atoms: C_24  and  O_25
REMARK                            x       y       z     vdW  Elec       q    Type
REMARK                         _______ _______ _______ _____ _____    ______ ____
ROOT
ATOM      1  C   UNL     1       2.855   5.268  18.758  0.00  0.00    +0.000 C 
ATOM      2  C   UNL     1       4.143   5.191  17.880  0.00  0.00    +0.000 A 
ATOM      3  C   UNL     1       5.177   6.135  17.736  0.00  0.00    +0.000 A 
ATOM      4  C   UNL     1       6.226   5.932  16.775  0.00  0.00    +0.000 A 
ATOM      5  C   UNL     1       6.197   4.853  15.883  0.00  0.00    +0.000 A 
ATOM      6  C   UNL     1       5.203   3.910  16.054  0.00  0.00    +0.000 A 
ATOM      7  C   UNL     1       4.270   4.020  17.071  0.00  0.00    +0.000 A 
ATOM      8  C   UNL     1       3.555   2.766  17.460  0.00  0.00    +0.000 C 
ATOM      9  C   UNL     1       3.541   2.758  18.979  0.00  0.00    +0.000 C 
ATOM     10  N   UNL     1       2.527   3.805  19.482  0.00  0.00    +0.000 N 
ATOM     11  C   UNL     1       2.628   3.817  21.010  0.00  0.00    +0.000 C 
ATOM     12  C   UNL     1       1.122   3.313  19.098  0.00  0.00    +0.000 C 
ENDROOT
BRANCH   4  13
ATOM     13  O   UNL     1       7.279   6.805  16.719  0.00  0.00    +0.000 OA
ATOM     14  H   UNL     1       7.216   7.462  17.430  0.00  0.00    +0.000 HD
ENDBRANCH   4  13
BRANCH   5  15
ATOM     15  O   UNL     1       6.998   4.518  14.835  0.00  0.00    +0.000 OA
ATOM     16  C   UNL     1       6.462   4.032  13.620  0.00  0.00    +0.000 C 
ENDBRANCH   5  15
BRANCH   1  17
ATOM     17  C   UNL     1       2.543   6.427  19.770  0.00  0.00    +0.000 C 
BRANCH  17  20
ATOM     18  C   UNL     1       0.751   9.830  20.015  0.00  0.00    +0.000 A 
ATOM     19  C   UNL     1       1.279   8.556  20.293  0.00  0.00    +0.000 A 
ATOM     20  C   UNL     1       2.042   7.804  19.354  0.00  0.00    +0.000 A 
ATOM     21  C   UNL     1       2.250   8.382  18.102  0.00  0.00    +0.000 A 
ATOM     22  C   UNL     1       1.730   9.655  17.810  0.00  0.00    +0.000 A 
ATOM     23  C   UNL     1       0.992  10.379  18.757  0.00  0.00    +0.000 A 
BRANCH  18  25
ATOM     24  C   UNL     1      -0.214   9.545  22.196  0.00  0.00    +0.000 C 
ATOM     25  O   UNL     1       0.051  10.368  21.061  0.00  0.00    +0.000 OA
ENDBRANCH  18  25
BRANCH  23  26
ATOM     26  O   UNL     1       0.508  11.609  18.414  0.00  0.00    +0.000 OA
ATOM     27  H   UNL     1      -0.156  11.903  19.058  0.00  0.00    +0.000 HD
ENDBRANCH  23  26
ENDBRANCH  17  20
ENDBRANCH   1  17
TORSDOF 6
ENDMDL
MODEL 2
REMARK VINA RESULT:      -8.1      1.269      6.475
REMARK  Name = 
REMARK  10 active torsions:
REMARK  status: ('A' for Active; 'I' for Inactive)
REMARK    1  A    between atoms: C_1  and  O_2
REMARK    2  A    between atoms: O_2  and  C_3
REMARK    3  A    between atoms: C_5  and  C_6
REMARK    4  A    between atoms: C_6  and  C_7
REMARK    5  A    between atoms: C_10  and  O_11
REMARK    6  A    between atoms: C_12  and  O_13
REMARK    7  A    between atoms: O_13  and  C_14
REMARK    8  A    between atoms: N_19  and  C_20
REMARK    9  A    between atoms: N_19  and  C_21
REMARK   10  A    between atoms: C_24  and  O_25
REMARK                            x       y       z     vdW  Elec       q    Type
REMARK                         _______ _______ _______ _____ _____    ______ ____
ROOT
ATOM      1  C   UNL     1       3.087   4.475  18.523  0.00  0.00    +0.000 C 
ATOM      2  C   UNL     1       2.507   5.913  18.708  0.00  0.00    +0.000 A 
ATOM      3  C   UNL     1       2.333   6.930  17.750  0.00  0.00    +0.000 A 
ATOM      4  C   UNL     1       1.896   8.241  18.145  0.00  0.00    +0.000 A 
ATOM      5  C   UNL     1       1.734   8.578  19.494  0.00  0.00    +0.000 A 
ATOM      6  C   UNL     1       1.867   7.567  20.426  0.00  0.00    +0.000 A 
ATOM      7  C   UNL     1       2.147   6.267  20.045  0.00  0.00    +0.000 A 
ATOM      8  C   UNL     1       1.818   5.195  21.034  0.00  0.00    +0.000 C 
ATOM      9  C   UNL     1       1.151   4.089  20.233  0.00  0.00    +0.000 C 
ATOM     10  N   UNL     1       2.219   3.356  19.397  0.00  0.00    +0.000 N 
ATOM     11  C   UNL     1       1.477   2.323  18.544  0.00  0.00    +0.000 C 
ATOM     12  C   UNL     1       3.136   2.601  20.373  0.00  0.00    +0.000 C 
ENDROOT
BRANCH   4  13
ATOM     13  O   UNL     1       1.631   9.187  17.193  0.00  0.00    +0.000 OA
ATOM     14  H   UNL     1       1.541   8.777  16.319  0.00  0.00    +0.000 HD
ENDBRANCH   4  13
BRANCH   5  15
ATOM     15  O   UNL     1       1.442   9.757  20.108  0.00  0.00    +0.000 OA
ATOM     16  C   UNL     1       0.110  10.122  20.415  0.00  0.00    +0.000 C 
ENDBRANCH   5  15
BRANCH   1  17
ATOM     17  C   UNL     1       3.484   3.854  17.137  0.00  0.00    +0.000 C 
BRANCH  17  20
ATOM     18  C   UNL     1       6.657   5.824  16.188  0.00  0.00    +0.000 A 
ATOM     19  C   UNL     1       5.514   5.337  16.847  0.00  0.00    +0.000 A 
ATOM     20  C   UNL     1       4.708   4.279  16.337  0.00  0.00    +0.000 A 
ATOM     21  C   UNL     1       5.092   3.726  15.115  0.00  0.00    +0.000 A 
ATOM     22  C   UNL     1       6.233   4.202  14.446  0.00  0.00    +0.000 A 
ATOM     23  C   UNL     1       7.015   5.237  14.977  0.00  0.00    +0.000 A 
BRANCH  18  25
ATOM     24  C   UNL     1       7.695   6.617  18.205  0.00  0.00    +0.000 C 
ATOM     25  O   UNL     1       7.278   6.844  16.859  0.00  0.00    +0.000 OA
ENDBRANCH  18  25
BRANCH  23  26
ATOM     26  O   UNL     1       8.109   5.660  14.278  0.00  0.00    +0.000 OA
ATOM     27  H   UNL     1       8.884   5.120  14.504  0.00  0.00    +0.000 HD
ENDBRANCH  23  26
ENDBRANCH  17  20
ENDBRANCH   1  17
TORSDOF 6
ENDMDL
MODEL 3
REMARK VINA RESULT:      -8.1      1.410      6.959
REMARK  Name = 
REMARK  10 active torsions:
REMARK  status: ('A' for Active; 'I' for Inactive)
REMARK    1  A    between atoms: C_1  and  O_2
REMARK    2  A    between atoms: O_2  and  C_3
REMARK    3  A    between atoms: C_5  and  C_6
REMARK    4  A    between atoms: C_6  and  C_7
REMARK    5  A    between atoms: C_10  and  O_11
REMARK    6  A    between atoms: C_12  and  O_13
REMARK    7  A    between atoms: O_13  and  C_14
REMARK    8  A    between atoms: N_19  and  C_20
REMARK    9  A    between atoms: N_19  and  C_21
REMARK   10  A    between atoms: C_24  and  O_25
REMARK                            x       y       z     vdW  Elec       q    Type
REMARK                         _______ _______ _______ _____ _____    ______ ____
ROOT
ATOM      1  C   UNL     1       3.200   4.483  18.514  0.00  0.00    +0.000 C 
ATOM      2  C   UNL     1       2.593   5.910  18.693  0.00  0.00    +0.000 A 
ATOM      3  C   UNL     1       2.463   6.945  17.747  0.00  0.00    +0.000 A 
ATOM      4  C   UNL     1       1.987   8.242  18.141  0.00  0.00    +0.000 A 
ATOM      5  C   UNL     1       1.741   8.550  19.484  0.00  0.00    +0.000 A 
ATOM      6  C   UNL     1       1.832   7.522  20.402  0.00  0.00    +0.000 A 
ATOM      7  C   UNL     1       2.150   6.233  20.013  0.00  0.00    +0.000 A 
ATOM      8  C   UNL     1       1.776   5.137  20.959  0.00  0.00    +0.000 C 
ATOM      9  C   UNL     1       1.171   4.041  20.099  0.00  0.00    +0.000 C 
ATOM     10  N   UNL     1       2.295   3.337  19.313  0.00  0.00    +0.000 N 
ATOM     11  C   UNL     1       1.617   2.313  18.398  0.00  0.00    +0.000 C 
ATOM     12  C   UNL     1       3.162   2.572  20.327  0.00  0.00    +0.000 C 
ENDROOT
BRANCH   4  13
ATOM     13  O   UNL     1       1.767   9.205  17.194  0.00  0.00    +0.000 OA
ATOM     14  H   UNL     1       1.310   8.830  16.425  0.00  0.00    +0.000 HD
ENDBRANCH   4  13
BRANCH   5  15
ATOM     15  O   UNL     1       1.399   9.713  20.103  0.00  0.00    +0.000 OA
ATOM     16  C   UNL     1       0.065  10.182  20.113  0.00  0.00    +0.000 C 
ENDBRANCH   5  15
BRANCH   1  17
ATOM     17  C   UNL     1       3.685   3.895  17.142  0.00  0.00    +0.000 C 
BRANCH  17  20
ATOM     18  C   UNL     1       6.286   4.231  14.318  0.00  0.00    +0.000 A 
ATOM     19  C   UNL     1       5.186   3.844  15.105  0.00  0.00    +0.000 A 
ATOM     20  C   UNL     1       4.897   4.413  16.379  0.00  0.00    +0.000 A 
ATOM     21  C   UNL     1       5.773   5.393  16.846  0.00  0.00    +0.000 A 
ATOM     22  C   UNL     1       6.876   5.791  16.069  0.00  0.00    +0.000 A 
ATOM     23  C   UNL     1       7.130   5.222  14.813  0.00  0.00    +0.000 A 
BRANCH  18  25
ATOM     24  C   UNL     1       5.202   3.459  12.317  0.00  0.00    +0.000 C 
ATOM     25  O   UNL     1       6.371   3.553  13.131  0.00  0.00    +0.000 OA
ENDBRANCH  18  25
BRANCH  23  26
ATOM     26  O   UNL     1       8.219   5.647  14.108  0.00  0.00    +0.000 OA
ATOM     27  H   UNL     1       8.875   6.043  14.705  0.00  0.00    +0.000 HD
ENDBRANCH  23  26
ENDBRANCH  17  20
ENDBRANCH   1  17
TORSDOF 6
ENDMDL
MODEL 4
REMARK VINA RESULT:      -7.5      0.822      1.785
REMARK  Name = 
REMARK  10 active torsions:
REMARK  status: ('A' for Active; 'I' for Inactive)
REMARK    1  A    between atoms: C_1  and  O_2
REMARK    2  A    between atoms: O_2  and  C_3
REMARK    3  A    between atoms: C_5  and  C_6
REMARK    4  A    between atoms: C_6  and  C_7
REMARK    5  A    between atoms: C_10  and  O_11
REMARK    6  A    between atoms: C_12  and  O_13
REMARK    7  A    between atoms: O_13  and  C_14
REMARK    8  A    between atoms: N_19  and  C_20
REMARK    9  A    between atoms: N_19  and  C_21
REMARK   10  A    between atoms: C_24  and  O_25
REMARK                            x       y       z     vdW  Elec       q    Type
REMARK                         _______ _______ _______ _____ _____    ______ ____
ROOT
ATOM      1  C   UNL     1       2.975   5.266  18.841  0.00  0.00    +0.000 C 
ATOM      2  C   UNL     1       4.202   5.347  17.879  0.00  0.00    +0.000 A 
ATOM      3  C   UNL     1       5.278   6.255  17.888  0.00  0.00    +0.000 A 
ATOM      4  C   UNL     1       6.255   6.244  16.834  0.00  0.00    +0.000 A 
ATOM      5  C   UNL     1       6.110   5.412  15.717  0.00  0.00    +0.000 A 
ATOM      6  C   UNL     1       5.075   4.497  15.731  0.00  0.00    +0.000 A 
ATOM      7  C   UNL     1       4.213   4.400  16.809  0.00  0.00    +0.000 A 
ATOM      8  C   UNL     1       3.451   3.120  16.942  0.00  0.00    +0.000 C 
ATOM      9  C   UNL     1       3.528   2.749  18.413  0.00  0.00    +0.000 C 
ATOM     10  N   UNL     1       2.607   3.686  19.220  0.00  0.00    +0.000 N 
ATOM     11  C   UNL     1       2.800   3.328  20.696  0.00  0.00    +0.000 C 
ATOM     12  C   UNL     1       1.156   3.360  18.833  0.00  0.00    +0.000 C 
ENDROOT
BRANCH   4  13
ATOM     13  O   UNL     1       7.351   7.060  16.909  0.00  0.00    +0.000 OA
ATOM     14  H   UNL     1       8.130   6.559  17.198  0.00  0.00    +0.000 HD
ENDBRANCH   4  13
BRANCH   5  15
ATOM     15  O   UNL     1       6.826   5.304  14.564  0.00  0.00    +0.000 OA
ATOM     16  C   UNL     1       6.613   4.240  13.657  0.00  0.00    +0.000 C 
ENDBRANCH   5  15
BRANCH   1  17
ATOM     17  C   UNL     1       2.792   6.160  20.118  0.00  0.00    +0.000 C 
BRANCH  17  20
ATOM     18  C   UNL     1       1.221   9.504  19.021  0.00  0.00    +0.000 A 
ATOM     19  C   UNL     1       1.977   8.319  19.079  0.00  0.00    +0.000 A 
ATOM     20  C   UNL     1       1.908   7.399  20.164  0.00  0.00    +0.000 A 
ATOM     21  C   UNL     1       1.046   7.723  21.213  0.00  0.00    +0.000 A 
ATOM     22  C   UNL     1       0.283   8.903  21.168  0.00  0.00    +0.000 A 
ATOM     23  C   UNL     1       0.362   9.785  20.081  0.00  0.00    +0.000 A 
BRANCH  18  25
ATOM     24  C   UNL     1       2.339  11.348  17.963  0.00  0.00    +0.000 C 
ATOM     25  O   UNL     1       1.446  10.237  17.887  0.00  0.00    +0.000 OA
ENDBRANCH  18  25
BRANCH  23  26
ATOM     26  O   UNL     1      -0.400  10.918  20.097  0.00  0.00    +0.000 OA
ATOM     27  H   UNL     1      -1.337  10.694  20.221  0.00  0.00    +0.000 HD
ENDBRANCH  23  26
ENDBRANCH  17  20
ENDBRANCH   1  17
TORSDOF 6
ENDMDL
MODEL 5
REMARK VINA RESULT:      -7.4      1.491      6.247
REMARK  Name = 
REMARK  10 active torsions:
REMARK  status: ('A' for Active; 'I' for Inactive)
REMARK    1  A    between atoms: C_1  and  O_2
REMARK    2  A    between atoms: O_2  and  C_3
REMARK    3  A    between atoms: C_5  and  C_6
REMARK    4  A    between atoms: C_6  and  C_7
REMARK    5  A    between atoms: C_10  and  O_11
REMARK    6  A    between atoms: C_12  and  O_13
REMARK    7  A    between atoms: O_13  and  C_14
REMARK    8  A    between atoms: N_19  and  C_20
REMARK    9  A    between atoms: N_19  and  C_21
REMARK   10  A    between atoms: C_24  and  O_25
REMARK                            x       y       z     vdW  Elec       q    Type
REMARK                         _______ _______ _______ _____ _____    ______ ____
ROOT
ATOM      1  C   UNL     1       3.722   4.312  19.661  0.00  0.00    +0.000 C 
ATOM      2  C   UNL     1       3.091   5.683  19.260  0.00  0.00    +0.000 A 
ATOM      3  C   UNL     1       3.466   6.563  18.227  0.00  0.00    +0.000 A 
ATOM      4  C   UNL     1       2.836   7.848  18.095  0.00  0.00    +0.000 A 
ATOM      5  C   UNL     1       1.915   8.307  19.045  0.00  0.00    +0.000 A 
ATOM      6  C   UNL     1       1.522   7.426  20.033  0.00  0.00    +0.000 A 
ATOM      7  C   UNL     1       2.015   6.134  20.085  0.00  0.00    +0.000 A 
ATOM      8  C   UNL     1       1.214   5.143  20.867  0.00  0.00    +0.000 C 
ATOM      9  C   UNL     1       1.168   3.887  20.014  0.00  0.00    +0.000 C 
ATOM     10  N   UNL     1       2.547   3.199  20.054  0.00  0.00    +0.000 N 
ATOM     11  C   UNL     1       2.468   2.000  19.105  0.00  0.00    +0.000 C 
ATOM     12  C   UNL     1       2.760   2.667  21.480  0.00  0.00    +0.000 C 
ENDROOT
BRANCH   4  13
ATOM     13  O   UNL     1       3.134   8.649  17.027  0.00  0.00    +0.000 OA
ATOM     14  H   UNL     1       2.334   8.851  16.517  0.00  0.00    +0.000 HD
ENDBRANCH   4  13
BRANCH   5  15
ATOM     15  O   UNL     1       1.282   9.503  19.194  0.00  0.00    +0.000 OA
ATOM     16  C   UNL     1       0.626   9.849  20.398  0.00  0.00    +0.000 C 
ENDBRANCH   5  15
BRANCH   1  17
ATOM     17  C   UNL     1       4.865   3.596  18.859  0.00  0.00    +0.000 C 
BRANCH  17  20
ATOM     18  C   UNL     1       6.913   5.669  16.337  0.00  0.00    +0.000 A 
ATOM     19  C   UNL     1       6.366   5.127  17.514  0.00  0.00    +0.000 A 
ATOM     20  C   UNL     1       5.394   4.086  17.518  0.00  0.00    +0.000 A 
ATOM     21  C   UNL     1       4.975   3.609  16.275  0.00  0.00    +0.000 A 
ATOM     22  C   UNL     1       5.514   4.141  15.090  0.00  0.00    +0.000 A 
ATOM     23  C   UNL     1       6.479   5.157  15.117  0.00  0.00    +0.000 A 
BRANCH  18  25
ATOM     24  C   UNL     1       7.629   7.520  17.691  0.00  0.00    +0.000 C 
ATOM     25  O   UNL     1       7.830   6.660  16.570  0.00  0.00    +0.000 OA
ENDBRANCH  18  25
BRANCH  23  26
ATOM     26  O   UNL     1       6.961   5.636  13.932  0.00  0.00    +0.000 OA
ATOM     27  H   UNL     1       7.093   4.910  13.302  0.00  0.00    +0.000 HD
ENDBRANCH  23  26
ENDBRANCH  17  20
ENDBRANCH   1  17
TORSDOF 6
ENDMDL
MODEL 6
REMARK VINA RESULT:      -7.2      1.549      6.615
REMARK  Name = 
REMARK  10 active torsions:
REMARK  status: ('A' for Active; 'I' for Inactive)
REMARK    1  A    between atoms: C_1  and  O_2
REMARK    2  A    between atoms: O_2  and  C_3
REMARK    3  A    between atoms: C_5  and  C_6
REMARK    4  A    between atoms: C_6  and  C_7
REMARK    5  A    between atoms: C_10  and  O_11
REMARK    6  A    between atoms: C_12  and  O_13
REMARK    7  A    between atoms: O_13  and  C_14
REMARK    8  A    between atoms: N_19  and  C_20
REMARK    9  A    between atoms: N_19  and  C_21
REMARK   10  A    between atoms: C_24  and  O_25
REMARK                            x       y       z     vdW  Elec       q    Type
REMARK                         _______ _______ _______ _____ _____    ______ ____
ROOT
ATOM      1  C   UNL     1       3.632   4.204  19.640  0.00  0.00    +0.000 C 
ATOM      2  C   UNL     1       3.063   5.597  19.225  0.00  0.00    +0.000 A 
ATOM      3  C   UNL     1       3.425   6.416  18.138  0.00  0.00    +0.000 A 
ATOM      4  C   UNL     1       2.867   7.733  17.995  0.00  0.00    +0.000 A 
ATOM      5  C   UNL     1       2.037   8.282  18.980  0.00  0.00    +0.000 A 
ATOM      6  C   UNL     1       1.654   7.462  20.024  0.00  0.00    +0.000 A 
ATOM      7  C   UNL     1       2.070   6.144  20.095  0.00  0.00    +0.000 A 
ATOM      8  C   UNL     1       1.260   5.234  20.962  0.00  0.00    +0.000 C 
ATOM      9  C   UNL     1       1.085   3.954  20.162  0.00  0.00    +0.000 C 
ATOM     10  N   UNL     1       2.419   3.182  20.145  0.00  0.00    +0.000 N 
ATOM     11  C   UNL     1       2.207   1.958  19.249  0.00  0.00    +0.000 C 
ATOM     12  C   UNL     1       2.688   2.687  21.576  0.00  0.00    +0.000 C 
ENDROOT
BRANCH   4  13
ATOM     13  O   UNL     1       3.147   8.476  16.881  0.00  0.00    +0.000 OA
ATOM     14  H   UNL     1       4.088   8.709  16.853  0.00  0.00    +0.000 HD
ENDBRANCH   4  13
BRANCH   5  15
ATOM     15  O   UNL     1       1.489   9.520  19.121  0.00  0.00    +0.000 OA
ATOM     16  C   UNL     1       0.953   9.956  20.354  0.00  0.00    +0.000 C 
ENDBRANCH   5  15
BRANCH   1  17
ATOM     17  C   UNL     1       4.677   3.390  18.798  0.00  0.00    +0.000 C 
BRANCH  17  20
ATOM     18  C   UNL     1       5.839   4.377  15.259  0.00  0.00    +0.000 A 
ATOM     19  C   UNL     1       5.114   3.870  16.352  0.00  0.00    +0.000 A 
ATOM     20  C   UNL     1       5.544   3.999  17.704  0.00  0.00    +0.000 A 
ATOM     21  C   UNL     1       6.755   4.658  17.921  0.00  0.00    +0.000 A 
ATOM     22  C   UNL     1       7.490   5.172  16.838  0.00  0.00    +0.000 A 
ATOM     23  C   UNL     1       7.037   5.040  15.518  0.00  0.00    +0.000 A 
BRANCH  18  25
ATOM     24  C   UNL     1       6.038   3.615  12.989  0.00  0.00    +0.000 C 
ATOM     25  O   UNL     1       5.241   4.138  14.051  0.00  0.00    +0.000 OA
ENDBRANCH  18  25
BRANCH  23  26
ATOM     26  O   UNL     1       7.798   5.556  14.508  0.00  0.00    +0.000 OA
ATOM     27  H   UNL     1       8.210   6.390  14.787  0.00  0.00    +0.000 HD
ENDBRANCH  23  26
ENDBRANCH  17  20
ENDBRANCH   1  17
TORSDOF 6
ENDMDL
MODEL 7
REMARK VINA RESULT:      -6.6      1.113      1.924
REMARK  Name = 
REMARK  10 active torsions:
REMARK  status: ('A' for Active; 'I' for Inactive)
REMARK    1  A    between atoms: C_1  and  O_2
REMARK    2  A    between atoms: O_2  and  C_3
REMARK    3  A    between atoms: C_5  and  C_6
REMARK    4  A    between atoms: C_6  and  C_7
REMARK    5  A    between atoms: C_10  and  O_11
REMARK    6  A    between atoms: C_12  and  O_13
REMARK    7  A    between atoms: O_13  and  C_14
REMARK    8  A    between atoms: N_19  and  C_20
REMARK    9  A    between atoms: N_19  and  C_21
REMARK   10  A    between atoms: C_24  and  O_25
REMARK                            x       y       z     vdW  Elec       q    Type
REMARK                         _______ _______ _______ _____ _____    ______ ____
ROOT
ATOM      1  C   UNL     1       2.542   5.693  19.390  0.00  0.00    +0.000 C 
ATOM      2  C   UNL     1       3.690   5.755  18.334  0.00  0.00    +0.000 A 
ATOM      3  C   UNL     1       4.736   6.690  18.214  0.00  0.00    +0.000 A 
ATOM      4  C   UNL     1       5.630   6.649  17.090  0.00  0.00    +0.000 A 
ATOM      5  C   UNL     1       5.427   5.756  16.031  0.00  0.00    +0.000 A 
ATOM      6  C   UNL     1       4.424   4.816  16.171  0.00  0.00    +0.000 A 
ATOM      7  C   UNL     1       3.649   4.754  17.316  0.00  0.00    +0.000 A 
ATOM      8  C   UNL     1       2.938   3.463  17.572  0.00  0.00    +0.000 C 
ATOM      9  C   UNL     1       3.136   3.173  19.050  0.00  0.00    +0.000 C 
ATOM     10  N   UNL     1       2.251   4.128  19.876  0.00  0.00    +0.000 N 
ATOM     11  C   UNL     1       2.565   3.853  21.350  0.00  0.00    +0.000 C 
ATOM     12  C   UNL     1       0.786   3.743  19.619  0.00  0.00    +0.000 C 
ENDROOT
BRANCH   4  13
ATOM     13  O   UNL     1       6.704   7.496  17.040  0.00  0.00    +0.000 OA
ATOM     14  H   UNL     1       7.061   7.541  16.139  0.00  0.00    +0.000 HD
ENDBRANCH   4  13
BRANCH   5  15
ATOM     15  O   UNL     1       6.057   5.605  14.834  0.00  0.00    +0.000 OA
ATOM     16  C   UNL     1       7.071   4.637  14.648  0.00  0.00    +0.000 C 
ENDBRANCH   5  15
BRANCH   1  17
ATOM     17  C   UNL     1       2.428   6.649  20.630  0.00  0.00    +0.000 C 
BRANCH  17  20
ATOM     18  C   UNL     1       0.451   9.681  19.306  0.00  0.00    +0.000 A 
ATOM     19  C   UNL     1       1.221   8.507  19.408  0.00  0.00    +0.000 A 
ATOM     20  C   UNL     1       1.576   7.911  20.652  0.00  0.00    +0.000 A 
ATOM     21  C   UNL     1       1.133   8.553  21.809  0.00  0.00    +0.000 A 
ATOM     22  C   UNL     1       0.363   9.726  21.722  0.00  0.00    +0.000 A 
ATOM     23  C   UNL     1       0.018  10.285  20.484  0.00  0.00    +0.000 A 
BRANCH  18  25
ATOM     24  C   UNL     1      -1.092   9.975  17.488  0.00  0.00    +0.000 C 
ATOM     25  O   UNL     1       0.231  10.075  18.013  0.00  0.00    +0.000 OA
ENDBRANCH  18  25
BRANCH  23  26
ATOM     26  O   UNL     1      -0.729  11.428  20.464  0.00  0.00    +0.000 OA
ATOM     27  H   UNL     1      -0.231  12.149  20.044  0.00  0.00    +0.000 HD
ENDBRANCH  23  26
ENDBRANCH  17  20
ENDBRANCH   1  17
TORSDOF 6
ENDMDL
MODEL 8
REMARK VINA RESULT:      -6.5      6.842      9.302
REMARK  Name = 
REMARK  10 active torsions:
REMARK  status: ('A' for Active; 'I' for Inactive)
REMARK    1  A    between atoms: C_1  and  O_2
REMARK    2  A    between atoms: O_2  and  C_3
REMARK    3  A    between atoms: C_5  and  C_6
REMARK    4  A    between atoms: C_6  and  C_7
REMARK    5  A    between atoms: C_10  and  O_11
REMARK    6  A    between atoms: C_12  and  O_13
REMARK    7  A    between atoms: O_13  and  C_14
REMARK    8  A    between atoms: N_19  and  C_20
REMARK    9  A    between atoms: N_19  and  C_21
REMARK   10  A    between atoms: C_24  and  O_25
REMARK                            x       y       z     vdW  Elec       q    Type
REMARK                         _______ _______ _______ _____ _____    ______ ____
ROOT
ATOM      1  C   UNL     1      -1.502  11.747  20.627  0.00  0.00    +0.000 C 
ATOM      2  C   UNL     1      -2.086  11.450  19.209  0.00  0.00    +0.000 A 
ATOM      3  C   UNL     1      -3.192  12.035  18.565  0.00  0.00    +0.000 A 
ATOM      4  C   UNL     1      -3.652  11.534  17.299  0.00  0.00    +0.000 A 
ATOM      5  C   UNL     1      -3.089  10.390  16.722  0.00  0.00    +0.000 A 
ATOM      6  C   UNL     1      -1.980   9.843  17.337  0.00  0.00    +0.000 A 
ATOM      7  C   UNL     1      -1.439  10.405  18.481  0.00  0.00    +0.000 A 
ATOM      8  C   UNL     1      -0.022  10.047  18.795  0.00  0.00    +0.000 C 
ATOM      9  C   UNL     1       0.649  11.348  19.199  0.00  0.00    +0.000 C 
ATOM     10  N   UNL     1       0.163  11.752  20.606  0.00  0.00    +0.000 N 
ATOM     11  C   UNL     1       0.796  13.112  20.916  0.00  0.00    +0.000 C 
ATOM     12  C   UNL     1       0.721  10.725  21.603  0.00  0.00    +0.000 C 
ENDROOT
BRANCH   4  13
ATOM     13  O   UNL     1      -4.661  12.178  16.636  0.00  0.00    +0.000 OA
ATOM     14  H   UNL     1      -5.363  12.439  17.253  0.00  0.00    +0.000 HD
ENDBRANCH   4  13
BRANCH   5  15
ATOM     15  O   UNL     1      -3.418   9.675  15.611  0.00  0.00    +0.000 OA
ATOM     16  C   UNL     1      -3.048  10.107  14.316  0.00  0.00    +0.000 C 
ENDBRANCH   5  15
BRANCH   1  17
ATOM     17  C   UNL     1      -2.011  12.893  21.570  0.00  0.00    +0.000 C 
BRANCH  17  20
ATOM     18  C   UNL     1      -5.754  12.931  22.488  0.00  0.00    +0.000 A 
ATOM     19  C   UNL     1      -4.530  12.985  21.797  0.00  0.00    +0.000 A 
ATOM     20  C   UNL     1      -3.267  12.791  22.426  0.00  0.00    +0.000 A 
ATOM     21  C   UNL     1      -3.277  12.547  23.800  0.00  0.00    +0.000 A 
ATOM     22  C   UNL     1      -4.492  12.489  24.504  0.00  0.00    +0.000 A 
ATOM     23  C   UNL     1      -5.722  12.672  23.857  0.00  0.00    +0.000 A 
BRANCH  18  25
ATOM     24  C   UNL     1      -7.160  12.171  20.694  0.00  0.00    +0.000 C 
ATOM     25  O   UNL     1      -6.842  13.148  21.685  0.00  0.00    +0.000 OA
ENDBRANCH  18  25
BRANCH  23  26
ATOM     26  O   UNL     1      -6.869  12.609  24.595  0.00  0.00    +0.000 OA
ATOM     27  H   UNL     1      -7.509  13.270  24.284  0.00  0.00    +0.000 HD
ENDBRANCH  23  26
ENDBRANCH  17  20
ENDBRANCH   1  17
TORSDOF 6
ENDMDL
MODEL 9
REMARK VINA RESULT:      -6.4      4.055      6.791
REMARK  Name = 
REMARK  10 active torsions:
REMARK  status: ('A' for Active; 'I' for Inactive)
REMARK    1  A    between atoms: C_1  and  O_2
REMARK    2  A    between atoms: O_2  and  C_3
REMARK    3  A    between atoms: C_5  and  C_6
REMARK    4  A    between atoms: C_6  and  C_7
REMARK    5  A    between atoms: C_10  and  O_11
REMARK    6  A    between atoms: C_12  and  O_13
REMARK    7  A    between atoms: O_13  and  C_14
REMARK    8  A    between atoms: N_19  and  C_20
REMARK    9  A    between atoms: N_19  and  C_21
REMARK   10  A    between atoms: C_24  and  O_25
REMARK                            x       y       z     vdW  Elec       q    Type
REMARK                         _______ _______ _______ _____ _____    ______ ____
ROOT
ATOM      1  C   UNL     1      -0.446  10.555  20.045  0.00  0.00    +0.000 C 
ATOM      2  C   UNL     1       0.671   9.555  19.610  0.00  0.00    +0.000 A 
ATOM      3  C   UNL     1       1.264   9.383  18.345  0.00  0.00    +0.000 A 
ATOM      4  C   UNL     1       2.196   8.313  18.112  0.00  0.00    +0.000 A 
ATOM      5  C   UNL     1       2.458   7.350  19.094  0.00  0.00    +0.000 A 
ATOM      6  C   UNL     1       1.904   7.545  20.345  0.00  0.00    +0.000 A 
ATOM      7  C   UNL     1       1.121   8.652  20.622  0.00  0.00    +0.000 A 
ATOM      8  C   UNL     1       0.963   9.015  22.064  0.00  0.00    +0.000 C 
ATOM      9  C   UNL     1       1.130  10.523  22.128  0.00  0.00    +0.000 C 
ATOM     10  N   UNL     1      -0.130  11.196  21.549  0.00  0.00    +0.000 N 
ATOM     11  C   UNL     1       0.136  12.704  21.552  0.00  0.00    +0.000 C 
ATOM     12  C   UNL     1      -1.293  10.914  22.514  0.00  0.00    +0.000 C 
ENDROOT
BRANCH   4  13
ATOM     13  O   UNL     1       2.843   8.221  16.910  0.00  0.00    +0.000 OA
ATOM     14  H   UNL     1       3.416   8.991  16.771  0.00  0.00    +0.000 HD
ENDBRANCH   4  13
BRANCH   5  15
ATOM     15  O   UNL     1       3.199   6.209  19.074  0.00  0.00    +0.000 OA
ATOM     16  C   UNL     1       2.708   5.018  18.489  0.00  0.00    +0.000 C 
ENDBRANCH   5  15
BRANCH   1  17
ATOM     17  C   UNL     1      -1.039  11.676  19.119  0.00  0.00    +0.000 C 
BRANCH  17  20
ATOM     18  C   UNL     1      -4.097  11.204  16.822  0.00  0.00    +0.000 A 
ATOM     19  C   UNL     1      -2.798  11.206  17.361  0.00  0.00    +0.000 A 
ATOM     20  C   UNL     1      -2.489  11.713  18.657  0.00  0.00    +0.000 A 
ATOM     21  C   UNL     1      -3.548  12.237  19.398  0.00  0.00    +0.000 A 
ATOM     22  C   UNL     1      -4.853  12.240  18.873  0.00  0.00    +0.000 A 
ATOM     23  C   UNL     1      -5.130  11.724  17.600  0.00  0.00    +0.000 A 
BRANCH  18  25
ATOM     24  C   UNL     1      -2.941  10.344  14.900  0.00  0.00    +0.000 C 
ATOM     25  O   UNL     1      -4.162  10.670  15.563  0.00  0.00    +0.000 OA
ENDBRANCH  18  25
BRANCH  23  26
ATOM     26  O   UNL     1      -6.416  11.759  17.142  0.00  0.00    +0.000 OA
ATOM     27  H   UNL     1      -6.996  12.183  17.795  0.00  0.00    +0.000 HD
ENDBRANCH  23  26
ENDBRANCH  17  20
ENDBRANCH   1  17
TORSDOF 6
ENDMDL
