MODEL 1
REMARK VINA RESULT:      -8.2      0.000      0.000
REMARK  Name = 
REMARK  9 active torsions:
REMARK  status: ('A' for Active; 'I' for Inactive)
REMARK    1  A    between atoms: C_1  and  C_2
REMARK    2  A    between atoms: C_2  and  C_3
REMARK    3  A    between atoms: C_2  and  N_4
REMARK    4  A    between atoms: C_2  and  C_25
REMARK    5  A    between atoms: C_5  and  C_7
REMARK    6  A    between atoms: C_9  and  C_10
REMARK    7  A    between atoms: C_14  and  O_15
REMARK    8  A    between atoms: O_15  and  C_16
REMARK    9  A    between atoms: C_23  and  N_24
REMARK                            x       y       z     vdW  Elec       q    Type
REMARK                         _______ _______ _______ _____ _____    ______ ____
ROOT
ATOM      1  C   UNL     1       3.357   4.584  18.956  0.00  0.00    +0.000 A 
ATOM      2  N   UNL     1       2.914   5.875  18.923  0.00  0.00    +0.000 NA
ATOM      3  C   UNL     1       2.186   6.280  19.997  0.00  0.00    +0.000 A 
ATOM      4  C   UNL     1       1.925   5.396  21.044  0.00  0.00    +0.000 A 
ATOM      5  N   UNL     1       2.349   4.106  21.068  0.00  0.00    +0.000 NA
ATOM      6  C   UNL     1       3.080   3.699  20.008  0.00  0.00    +0.000 A 
ENDROOT
BRANCH   3   7
ATOM      7  C   UNL     1       1.707   7.673  19.954  0.00  0.00    +0.000 A 
ATOM      8  C   UNL     1       1.723   8.439  18.774  0.00  0.00    +0.000 A 
ATOM      9  C   UNL     1       1.327   9.777  18.782  0.00  0.00    +0.000 A 
ATOM     10  C   UNL     1       0.940  10.381  19.976  0.00  0.00    +0.000 A 
ATOM     11  C   UNL     1       0.933   9.655  21.167  0.00  0.00    +0.000 A 
ATOM     12  C   UNL     1       1.260   8.301  21.137  0.00  0.00    +0.000 A 
BRANCH  11  13
ATOM     13  O   UNL     1       0.572  10.368  22.269  0.00  0.00    +0.000 OA
BRANCH  13  14
ATOM     14  C   UNL     1      -0.422   9.854  23.146  0.00  0.00    +0.000 C 
ATOM     15  F   UNL     1      -1.394  10.735  23.464  0.00  0.00    +0.000 F 
ATOM     16  F   UNL     1      -1.014   8.796  22.547  0.00  0.00    +0.000 F 
ATOM     17  F   UNL     1       0.164   9.419  24.282  0.00  0.00    +0.000 F 
ENDBRANCH  13  14
ENDBRANCH  11  13
ENDBRANCH   3   7
BRANCH   1  19
ATOM     18  N   UNL     1       4.859   5.193  17.142  0.00  0.00    +0.000 N 
ATOM     19  C   UNL     1       4.224   4.162  17.818  0.00  0.00    +0.000 C 
ATOM     20  O   UNL     1       4.359   2.971  17.546  0.00  0.00    +0.000 OA
ATOM     21  H   UNL     1       4.755   6.115  17.559  0.00  0.00    +0.000 HD
BRANCH  18  23
ATOM     22  C   UNL     1       5.587   3.607  15.440  0.00  0.00    +0.000 C 
ATOM     23  C   UNL     1       5.796   5.023  16.005  0.00  0.00    +0.000 C 
ATOM     24  C   UNL     1       5.370   6.004  14.886  0.00  0.00    +0.000 C 
BRANCH  23  25
ATOM     25  C   UNL     1       7.286   5.305  16.456  0.00  0.00    +0.000 C 
ATOM     26  C   UNL     1       7.767   4.586  17.732  0.00  0.00    +0.000 C 
ATOM     27  C   UNL     1       7.489   5.351  19.021  0.00  0.00    +0.000 C 
ATOM     28  N   UNL     1       8.082   6.682  18.983  0.00  0.00    +0.000 NA
ATOM     29  C   UNL     1       7.526   7.468  17.885  0.00  0.00    +0.000 C 
ATOM     30  C   UNL     1       7.697   6.798  16.521  0.00  0.00    +0.000 C 
ATOM     31  H   UNL     1       9.090   6.594  18.852  0.00  0.00    +0.000 HD
ENDBRANCH  23  25
ENDBRANCH  18  23
ENDBRANCH   1  19
BRANCH   6  32
ATOM     32  N   UNL     1       3.406   2.346  20.001  0.00  0.00    +0.000 N 
ATOM     33  H   UNL     1       4.386   2.230  19.768  0.00  0.00    +0.000 HD
ATOM     34  H   UNL     1       2.762   1.801  19.427  0.00  0.00    +0.000 HD
ENDBRANCH   6  32
TORSDOF 7
ENDMDL
MODEL 2
REMARK VINA RESULT:      -8.0      4.966      8.832
REMARK  Name = 
REMARK  9 active torsions:
REMARK  status: ('A' for Active; 'I' for Inactive)
REMARK    1  A    between atoms: C_1  and  C_2
REMARK    2  A    between atoms: C_2  and  C_3
REMARK    3  A    between atoms: C_2  and  N_4
REMARK    4  A    between atoms: C_2  and  C_25
REMARK    5  A    between atoms: C_5  and  C_7
REMARK    6  A    between atoms: C_9  and  C_10
REMARK    7  A    between atoms: C_14  and  O_15
REMARK    8  A    between atoms: O_15  and  C_16
REMARK    9  A    between atoms: C_23  and  N_24
REMARK                            x       y       z     vdW  Elec       q    Type
REMARK                         _______ _______ _______ _____ _____    ______ ____
ROOT
ATOM      1  C   UNL     1       5.586   5.367  17.550  0.00  0.00    +0.000 A 
ATOM      2  N   UNL     1       5.666   5.193  16.199  0.00  0.00    +0.000 NA
ATOM      3  C   UNL     1       6.847   4.707  15.733  0.00  0.00    +0.000 A 
ATOM      4  C   UNL     1       7.890   4.425  16.615  0.00  0.00    +0.000 A 
ATOM      5  N   UNL     1       7.817   4.619  17.958  0.00  0.00    +0.000 NA
ATOM      6  C   UNL     1       6.644   5.093  18.429  0.00  0.00    +0.000 A 
ENDROOT
BRANCH   3   7
ATOM      7  C   UNL     1       6.930   4.524  14.272  0.00  0.00    +0.000 A 
ATOM      8  C   UNL     1       7.775   5.303  13.462  0.00  0.00    +0.000 A 
ATOM      9  C   UNL     1       7.779   5.152  12.075  0.00  0.00    +0.000 A 
ATOM     10  C   UNL     1       6.912   4.243  11.472  0.00  0.00    +0.000 A 
ATOM     11  C   UNL     1       6.045   3.471  12.245  0.00  0.00    +0.000 A 
ATOM     12  C   UNL     1       6.101   3.576  13.633  0.00  0.00    +0.000 A 
BRANCH  11  13
ATOM     13  O   UNL     1       5.223   2.651  11.536  0.00  0.00    +0.000 OA
BRANCH  13  14
ATOM     14  C   UNL     1       3.919   3.094  11.183  0.00  0.00    +0.000 C 
ATOM     15  F   UNL     1       3.279   2.297  10.301  0.00  0.00    +0.000 F 
ATOM     16  F   UNL     1       3.166   3.141  12.307  0.00  0.00    +0.000 F 
ATOM     17  F   UNL     1       3.991   4.342  10.674  0.00  0.00    +0.000 F 
ENDBRANCH  13  14
ENDBRANCH  11  13
ENDBRANCH   3   7
BRANCH   1  19
ATOM     18  N   UNL     1       3.743   5.061  19.108  0.00  0.00    +0.000 N 
ATOM     19  C   UNL     1       4.265   5.822  18.073  0.00  0.00    +0.000 C 
ATOM     20  O   UNL     1       3.721   6.820  17.606  0.00  0.00    +0.000 OA
ATOM     21  H   UNL     1       4.363   4.343  19.475  0.00  0.00    +0.000 HD
BRANCH  18  23
ATOM     22  C   UNL     1       2.702   5.068  21.312  0.00  0.00    +0.000 C 
ATOM     23  C   UNL     1       2.468   5.335  19.814  0.00  0.00    +0.000 C 
ATOM     24  C   UNL     1       2.167   6.847  19.684  0.00  0.00    +0.000 C 
BRANCH  23  25
ATOM     25  C   UNL     1       1.288   4.476  19.202  0.00  0.00    +0.000 C 
ATOM     26  C   UNL     1       0.743   3.332  20.078  0.00  0.00    +0.000 C 
ATOM     27  C   UNL     1       1.475   2.006  19.900  0.00  0.00    +0.000 C 
ATOM     28  N   UNL     1       1.458   1.577  18.507  0.00  0.00    +0.000 NA
ATOM     29  C   UNL     1       2.123   2.558  17.653  0.00  0.00    +0.000 C 
ATOM     30  C   UNL     1       1.515   3.957  17.759  0.00  0.00    +0.000 C 
ATOM     31  H   UNL     1       0.490   1.473  18.202  0.00  0.00    +0.000 HD
ENDBRANCH  23  25
ENDBRANCH  18  23
ENDBRANCH   1  19
BRANCH   6  32
ATOM     32  N   UNL     1       6.630   5.388  19.788  0.00  0.00    +0.000 N 
ATOM     33  H   UNL     1       5.865   6.018  19.997  0.00  0.00    +0.000 HD
ATOM     34  H   UNL     1       7.544   5.699  20.120  0.00  0.00    +0.000 HD
ENDBRANCH   6  32
TORSDOF 7
ENDMDL
MODEL 3
REMARK VINA RESULT:      -7.9      4.411      6.535
REMARK  Name = 
REMARK  9 active torsions:
REMARK  status: ('A' for Active; 'I' for Inactive)
REMARK    1  A    between atoms: C_1  and  C_2
REMARK    2  A    between atoms: C_2  and  C_3
REMARK    3  A    between atoms: C_2  and  N_4
REMARK    4  A    between atoms: C_2  and  C_25
REMARK    5  A    between atoms: C_5  and  C_7
REMARK    6  A    between atoms: C_9  and  C_10
REMARK    7  A    between atoms: C_14  and  O_15
REMARK    8  A    between atoms: O_15  and  C_16
REMARK    9  A    between atoms: C_23  and  N_24
REMARK                            x       y       z     vdW  Elec       q    Type
REMARK                         _______ _______ _______ _____ _____    ______ ____
ROOT
ATOM      1  C   UNL     1       1.038   8.812  20.392  0.00  0.00    +0.000 A 
ATOM      2  N   UNL     1       0.021   9.215  19.577  0.00  0.00    +0.000 NA
ATOM      3  C   UNL     1      -0.671  10.310  19.990  0.00  0.00    +0.000 A 
ATOM      4  C   UNL     1      -0.334  10.947  21.184  0.00  0.00    +0.000 A 
ATOM      5  N   UNL     1       0.666  10.532  22.005  0.00  0.00    +0.000 NA
ATOM      6  C   UNL     1       1.363   9.451  21.597  0.00  0.00    +0.000 A 
ENDROOT
BRANCH   3   7
ATOM      7  C   UNL     1      -1.772  10.739  19.108  0.00  0.00    +0.000 A 
ATOM      8  C   UNL     1      -2.592  11.842  19.407  0.00  0.00    +0.000 A 
ATOM      9  C   UNL     1      -3.668  12.180  18.587  0.00  0.00    +0.000 A 
ATOM     10  C   UNL     1      -3.963  11.400  17.470  0.00  0.00    +0.000 A 
ATOM     11  C   UNL     1      -3.183  10.288  17.157  0.00  0.00    +0.000 A 
ATOM     12  C   UNL     1      -2.067  10.001  17.940  0.00  0.00    +0.000 A 
BRANCH  11  13
ATOM     13  O   UNL     1      -3.597   9.588  16.066  0.00  0.00    +0.000 OA
BRANCH  13  14
ATOM     14  C   UNL     1      -3.404  10.130  14.766  0.00  0.00    +0.000 C 
ATOM     15  F   UNL     1      -4.452   9.966  13.932  0.00  0.00    +0.000 F 
ATOM     16  F   UNL     1      -3.187  11.460  14.886  0.00  0.00    +0.000 F 
ATOM     17  F   UNL     1      -2.308   9.575  14.207  0.00  0.00    +0.000 F 
ENDBRANCH  13  14
ENDBRANCH  11  13
ENDBRANCH   3   7
BRANCH   1  19
ATOM     18  N   UNL     1       1.636   6.459  20.558  0.00  0.00    +0.000 N 
ATOM     19  C   UNL     1       1.851   7.661  19.901  0.00  0.00    +0.000 C 
ATOM     20  O   UNL     1       2.630   7.805  18.961  0.00  0.00    +0.000 OA
ATOM     21  H   UNL     1       0.870   6.461  21.228  0.00  0.00    +0.000 HD
BRANCH  18  23
ATOM     22  C   UNL     1       3.755   5.481  19.858  0.00  0.00    +0.000 C 
ATOM     23  C   UNL     1       2.293   5.172  20.228  0.00  0.00    +0.000 C 
ATOM     24  C   UNL     1       2.343   4.318  21.518  0.00  0.00    +0.000 C 
BRANCH  23  25
ATOM     25  C   UNL     1       1.505   4.412  19.086  0.00  0.00    +0.000 C 
ATOM     26  C   UNL     1       1.001   2.995  19.423  0.00  0.00    +0.000 C 
ATOM     27  C   UNL     1       2.008   1.889  19.128  0.00  0.00    +0.000 C 
ATOM     28  N   UNL     1       2.429   1.916  17.732  0.00  0.00    +0.000 NA
ATOM     29  C   UNL     1       3.073   3.186  17.409  0.00  0.00    +0.000 C 
ATOM     30  C   UNL     1       2.186   4.399  17.694  0.00  0.00    +0.000 C 
ATOM     31  H   UNL     1       1.610   1.796  17.136  0.00  0.00    +0.000 HD
ENDBRANCH  23  25
ENDBRANCH  18  23
ENDBRANCH   1  19
BRANCH   6  32
ATOM     32  N   UNL     1       2.305   8.979  22.506  0.00  0.00    +0.000 N 
ATOM     33  H   UNL     1       2.427   7.980  22.388  0.00  0.00    +0.000 HD
ATOM     34  H   UNL     1       2.097   9.276  23.460  0.00  0.00    +0.000 HD
ENDBRANCH   6  32
TORSDOF 7
ENDMDL
MODEL 4
REMARK VINA RESULT:      -7.9      6.667     11.267
REMARK  Name = 
REMARK  9 active torsions:
REMARK  status: ('A' for Active; 'I' for Inactive)
REMARK    1  A    between atoms: C_1  and  C_2
REMARK    2  A    between atoms: C_2  and  C_3
REMARK    3  A    between atoms: C_2  and  N_4
REMARK    4  A    between atoms: C_2  and  C_25
REMARK    5  A    between atoms: C_5  and  C_7
REMARK    6  A    between atoms: C_9  and  C_10
REMARK    7  A    between atoms: C_14  and  O_15
REMARK    8  A    between atoms: O_15  and  C_16
REMARK    9  A    between atoms: C_23  and  N_24
REMARK                            x       y       z     vdW  Elec       q    Type
REMARK                         _______ _______ _______ _____ _____    ______ ____
ROOT
ATOM      1  C   UNL     1      -4.696  12.230  18.705  0.00  0.00    +0.000 A 
ATOM      2  N   UNL     1      -3.482  11.837  19.190  0.00  0.00    +0.000 NA
ATOM      3  C   UNL     1      -2.673  11.190  18.309  0.00  0.00    +0.000 A 
ATOM      4  C   UNL     1      -3.100  10.955  17.002  0.00  0.00    +0.000 A 
ATOM      5  N   UNL     1      -4.317  11.329  16.527  0.00  0.00    +0.000 NA
ATOM      6  C   UNL     1      -5.123  11.979  17.393  0.00  0.00    +0.000 A 
ENDROOT
BRANCH   3   7
ATOM      7  C   UNL     1      -1.365  10.765  18.838  0.00  0.00    +0.000 A 
ATOM      8  C   UNL     1      -0.400  10.126  18.039  0.00  0.00    +0.000 A 
ATOM      9  C   UNL     1       0.801   9.675  18.587  0.00  0.00    +0.000 A 
ATOM     10  C   UNL     1       1.043   9.823  19.951  0.00  0.00    +0.000 A 
ATOM     11  C   UNL     1       0.098  10.432  20.775  0.00  0.00    +0.000 A 
ATOM     12  C   UNL     1      -1.066  10.946  20.207  0.00  0.00    +0.000 A 
BRANCH  11  13
ATOM     13  O   UNL     1       0.435  10.482  22.093  0.00  0.00    +0.000 OA
BRANCH  13  14
ATOM     14  C   UNL     1      -0.306   9.723  23.039  0.00  0.00    +0.000 C 
ATOM     15  F   UNL     1       0.385   9.390  24.150  0.00  0.00    +0.000 F 
ATOM     16  F   UNL     1      -1.374  10.455  23.431  0.00  0.00    +0.000 F 
ATOM     17  F   UNL     1      -0.761   8.596  22.452  0.00  0.00    +0.000 F 
ENDBRANCH  13  14
ENDBRANCH  11  13
ENDBRANCH   3   7
BRANCH   1  19
ATOM     18  N   UNL     1      -5.071  14.269  19.977  0.00  0.00    +0.000 N 
ATOM     19  C   UNL     1      -5.552  13.011  19.645  0.00  0.00    +0.000 C 
ATOM     20  O   UNL     1      -6.612  12.546  20.055  0.00  0.00    +0.000 OA
ATOM     21  H   UNL     1      -4.247  14.570  19.463  0.00  0.00    +0.000 HD
BRANCH  18  23
ATOM     22  C   UNL     1      -5.455  16.652  20.318  0.00  0.00    +0.000 C 
ATOM     23  C   UNL     1      -5.758  15.243  20.859  0.00  0.00    +0.000 C 
ATOM     24  C   UNL     1      -7.284  15.037  20.700  0.00  0.00    +0.000 C 
BRANCH  23  25
ATOM     25  C   UNL     1      -5.323  15.044  22.367  0.00  0.00    +0.000 C 
ATOM     26  C   UNL     1      -3.960  14.366  22.606  0.00  0.00    +0.000 C 
ATOM     27  C   UNL     1      -4.025  12.844  22.678  0.00  0.00    +0.000 C 
ATOM     28  N   UNL     1      -4.954  12.404  23.712  0.00  0.00    +0.000 NA
ATOM     29  C   UNL     1      -6.306  12.883  23.433  0.00  0.00    +0.000 C 
ATOM     30  C   UNL     1      -6.387  14.403  23.294  0.00  0.00    +0.000 C 
ATOM     31  H   UNL     1      -4.650  12.773  24.612  0.00  0.00    +0.000 HD
ENDBRANCH  23  25
ENDBRANCH  18  23
ENDBRANCH   1  19
BRANCH   6  32
ATOM     32  N   UNL     1      -6.402  12.251  16.919  0.00  0.00    +0.000 N 
ATOM     33  H   UNL     1      -6.873  11.385  16.683  0.00  0.00    +0.000 HD
ATOM     34  H   UNL     1      -6.393  12.950  16.176  0.00  0.00    +0.000 HD
ENDBRANCH   6  32
TORSDOF 7
ENDMDL
MODEL 5
REMARK VINA RESULT:      -7.9      5.364      9.181
REMARK  Name = 
REMARK  9 active torsions:
REMARK  status: ('A' for Active; 'I' for Inactive)
REMARK    1  A    between atoms: C_1  and  C_2
REMARK    2  A    between atoms: C_2  and  C_3
REMARK    3  A    between atoms: C_2  and  N_4
REMARK    4  A    between atoms: C_2  and  C_25
REMARK    5  A    between atoms: C_5  and  C_7
REMARK    6  A    between atoms: C_9  and  C_10
REMARK    7  A    between atoms: C_14  and  O_15
REMARK    8  A    between atoms: O_15  and  C_16
REMARK    9  A    between atoms: C_23  and  N_24
REMARK                            x       y       z     vdW  Elec       q    Type
REMARK                         _______ _______ _______ _____ _____    ______ ____
ROOT
ATOM      1  C   UNL     1       5.869   4.512  16.517  0.00  0.00    +0.000 A 
ATOM      2  N   UNL     1       5.583   3.829  15.370  0.00  0.00    +0.000 NA
ATOM      3  C   UNL     1       6.327   4.159  14.282  0.00  0.00    +0.000 A 
ATOM      4  C   UNL     1       7.308   5.146  14.373  0.00  0.00    +0.000 A 
ATOM      5  N   UNL     1       7.579   5.840  15.510  0.00  0.00    +0.000 NA
ATOM      6  C   UNL     1       6.849   5.512  16.597  0.00  0.00    +0.000 A 
ENDROOT
BRANCH   3   7
ATOM      7  C   UNL     1       6.011   3.421  13.046  0.00  0.00    +0.000 A 
ATOM      8  C   UNL     1       6.989   2.725  12.313  0.00  0.00    +0.000 A 
ATOM      9  C   UNL     1       6.670   2.094  11.110  0.00  0.00    +0.000 A 
ATOM     10  C   UNL     1       5.375   2.178  10.602  0.00  0.00    +0.000 A 
ATOM     11  C   UNL     1       4.387   2.879  11.293  0.00  0.00    +0.000 A 
ATOM     12  C   UNL     1       4.697   3.443  12.529  0.00  0.00    +0.000 A 
BRANCH  11  13
ATOM     13  O   UNL     1       3.176   2.919  10.675  0.00  0.00    +0.000 OA
BRANCH  13  14
ATOM     14  C   UNL     1       2.891   3.961   9.750  0.00  0.00    +0.000 C 
ATOM     15  F   UNL     1       1.587   4.071   9.418  0.00  0.00    +0.000 F 
ATOM     16  F   UNL     1       3.269   5.137  10.303  0.00  0.00    +0.000 F 
ATOM     17  F   UNL     1       3.615   3.773   8.626  0.00  0.00    +0.000 F 
ENDBRANCH  13  14
ENDBRANCH  11  13
ENDBRANCH   3   7
BRANCH   1  19
ATOM     18  N   UNL     1       3.816   3.653  17.501  0.00  0.00    +0.000 N 
ATOM     19  C   UNL     1       5.110   4.094  17.732  0.00  0.00    +0.000 C 
ATOM     20  O   UNL     1       5.639   4.133  18.841  0.00  0.00    +0.000 OA
ATOM     21  H   UNL     1       3.559   3.555  16.522  0.00  0.00    +0.000 HD
BRANCH  18  23
ATOM     22  C   UNL     1       2.336   1.798  18.055  0.00  0.00    +0.000 C 
ATOM     23  C   UNL     1       2.883   3.153  18.539  0.00  0.00    +0.000 C 
ATOM     24  C   UNL     1       3.705   2.858  19.816  0.00  0.00    +0.000 C 
BRANCH  23  25
ATOM     25  C   UNL     1       1.749   4.216  18.837  0.00  0.00    +0.000 C 
ATOM     26  C   UNL     1       1.936   5.614  18.216  0.00  0.00    +0.000 C 
ATOM     27  C   UNL     1       2.733   6.581  19.084  0.00  0.00    +0.000 C 
ATOM     28  N   UNL     1       2.126   6.731  20.401  0.00  0.00    +0.000 NA
ATOM     29  C   UNL     1       2.084   5.452  21.103  0.00  0.00    +0.000 C 
ATOM     30  C   UNL     1       1.343   4.364  20.326  0.00  0.00    +0.000 C 
ATOM     31  H   UNL     1       1.175   7.082  20.291  0.00  0.00    +0.000 HD
ENDBRANCH  23  25
ENDBRANCH  18  23
ENDBRANCH   1  19
BRANCH   6  32
ATOM     32  N   UNL     1       7.065   6.310  17.716  0.00  0.00    +0.000 N 
ATOM     33  H   UNL     1       7.538   7.164  17.444  0.00  0.00    +0.000 HD
ATOM     34  H   UNL     1       7.516   5.793  18.471  0.00  0.00    +0.000 HD
ENDBRANCH   6  32
TORSDOF 7
ENDMDL
MODEL 6
REMARK VINA RESULT:      -7.9      1.923      2.410
REMARK  Name = 
REMARK  9 active torsions:
REMARK  status: ('A' for Active; 'I' for Inactive)
REMARK    1  A    between atoms: C_1  and  C_2
REMARK    2  A    between atoms: C_2  and  C_3
REMARK    3  A    between atoms: C_2  and  N_4
REMARK    4  A    between atoms: C_2  and  C_25
REMARK    5  A    between atoms: C_5  and  C_7
REMARK    6  A    between atoms: C_9  and  C_10
REMARK    7  A    between atoms: C_14  and  O_15
REMARK    8  A    between atoms: O_15  and  C_16
REMARK    9  A    between atoms: C_23  and  N_24
REMARK                            x       y       z     vdW  Elec       q    Type
REMARK                         _______ _______ _______ _____ _____    ______ ____
ROOT
ATOM      1  C   UNL     1       3.011   4.908  18.844  0.00  0.00    +0.000 A 
ATOM      2  N   UNL     1       2.610   6.198  19.044  0.00  0.00    +0.000 NA
ATOM      3  C   UNL     1       2.011   6.454  20.237  0.00  0.00    +0.000 A 
ATOM      4  C   UNL     1       1.829   5.432  21.168  0.00  0.00    +0.000 A 
ATOM      5  N   UNL     1       2.210   4.144  20.960  0.00  0.00    +0.000 NA
ATOM      6  C   UNL     1       2.813   3.884  19.781  0.00  0.00    +0.000 A 
ENDROOT
BRANCH   3   7
ATOM      7  C   UNL     1       1.576   7.848  20.445  0.00  0.00    +0.000 A 
ATOM      8  C   UNL     1       1.436   8.409  21.727  0.00  0.00    +0.000 A 
ATOM      9  C   UNL     1       0.956   9.709  21.892  0.00  0.00    +0.000 A 
ATOM     10  C   UNL     1       0.577  10.457  20.780  0.00  0.00    +0.000 A 
ATOM     11  C   UNL     1       0.684   9.922  19.496  0.00  0.00    +0.000 A 
ATOM     12  C   UNL     1       1.232   8.651  19.336  0.00  0.00    +0.000 A 
BRANCH  11  13
ATOM     13  O   UNL     1       0.246  10.737  18.499  0.00  0.00    +0.000 OA
BRANCH  13  14
ATOM     14  C   UNL     1      -1.073  10.584  17.991  0.00  0.00    +0.000 C 
ATOM     15  F   UNL     1      -1.602  11.708  17.463  0.00  0.00    +0.000 F 
ATOM     16  F   UNL     1      -1.048   9.650  17.013  0.00  0.00    +0.000 F 
ATOM     17  F   UNL     1      -1.883  10.139  18.975  0.00  0.00    +0.000 F 
ENDBRANCH  13  14
ENDBRANCH  11  13
ENDBRANCH   3   7
BRANCH   1  19
ATOM     18  N   UNL     1       4.741   5.551  17.259  0.00  0.00    +0.000 N 
ATOM     19  C   UNL     1       3.742   4.641  17.571  0.00  0.00    +0.000 C 
ATOM     20  O   UNL     1       3.462   3.660  16.886  0.00  0.00    +0.000 OA
ATOM     21  H   UNL     1       4.945   6.237  17.981  0.00  0.00    +0.000 HD
BRANCH  18  23
ATOM     22  C   UNL     1       5.274   4.187  15.311  0.00  0.00    +0.000 C 
ATOM     23  C   UNL     1       5.626   5.478  16.072  0.00  0.00    +0.000 C 
ATOM     24  C   UNL     1       5.260   6.650  15.131  0.00  0.00    +0.000 C 
BRANCH  23  25
ATOM     25  C   UNL     1       7.148   5.559  16.498  0.00  0.00    +0.000 C 
ATOM     26  C   UNL     1       7.569   4.710  17.713  0.00  0.00    +0.000 C 
ATOM     27  C   UNL     1       7.408   5.418  19.054  0.00  0.00    +0.000 C 
ATOM     28  N   UNL     1       8.150   6.673  19.081  0.00  0.00    +0.000 NA
ATOM     29  C   UNL     1       7.665   7.584  18.048  0.00  0.00    +0.000 C 
ATOM     30  C   UNL     1       7.730   6.988  16.642  0.00  0.00    +0.000 C 
ATOM     31  H   UNL     1       9.138   6.479  18.916  0.00  0.00    +0.000 HD
ENDBRANCH  23  25
ENDBRANCH  18  23
ENDBRANCH   1  19
BRANCH   6  32
ATOM     32  N   UNL     1       3.092   2.541  19.545  0.00  0.00    +0.000 N 
ATOM     33  H   UNL     1       2.780   1.981  20.330  0.00  0.00    +0.000 HD
ATOM     34  H   UNL     1       4.066   2.396  19.277  0.00  0.00    +0.000 HD
ENDBRANCH   6  32
TORSDOF 7
ENDMDL
MODEL 7
REMARK VINA RESULT:      -7.9      3.789      7.538
REMARK  Name = 
REMARK  9 active torsions:
REMARK  status: ('A' for Active; 'I' for Inactive)
REMARK    1  A    between atoms: C_1  and  C_2
REMARK    2  A    between atoms: C_2  and  C_3
REMARK    3  A    between atoms: C_2  and  N_4
REMARK    4  A    between atoms: C_2  and  C_25
REMARK    5  A    between atoms: C_5  and  C_7
REMARK    6  A    between atoms: C_9  and  C_10
REMARK    7  A    between atoms: C_14  and  O_15
REMARK    8  A    between atoms: O_15  and  C_16
REMARK    9  A    between atoms: C_23  and  N_24
REMARK                            x       y       z     vdW  Elec       q    Type
REMARK                         _______ _______ _______ _____ _____    ______ ____
ROOT
ATOM      1  C   UNL     1       2.249   4.952  19.305  0.00  0.00    +0.000 A 
ATOM      2  N   UNL     1       3.306   5.204  18.479  0.00  0.00    +0.000 NA
ATOM      3  C   UNL     1       3.559   4.261  17.533  0.00  0.00    +0.000 A 
ATOM      4  C   UNL     1       2.767   3.116  17.452  0.00  0.00    +0.000 A 
ATOM      5  N   UNL     1       1.727   2.855  18.288  0.00  0.00    +0.000 NA
ATOM      6  C   UNL     1       1.465   3.792  19.224  0.00  0.00    +0.000 A 
ENDROOT
BRANCH   3   7
ATOM      7  C   UNL     1       4.704   4.537  16.646  0.00  0.00    +0.000 A 
ATOM      8  C   UNL     1       4.986   3.753  15.514  0.00  0.00    +0.000 A 
ATOM      9  C   UNL     1       6.116   3.999  14.734  0.00  0.00    +0.000 A 
ATOM     10  C   UNL     1       7.002   5.012  15.094  0.00  0.00    +0.000 A 
ATOM     11  C   UNL     1       6.763   5.794  16.223  0.00  0.00    +0.000 A 
ATOM     12  C   UNL     1       5.594   5.589  16.953  0.00  0.00    +0.000 A 
BRANCH  11  13
ATOM     13  O   UNL     1       7.721   6.724  16.489  0.00  0.00    +0.000 OA
BRANCH  13  14
ATOM     14  C   UNL     1       7.601   7.551  17.639  0.00  0.00    +0.000 C 
ATOM     15  F   UNL     1       7.921   6.941  18.800  0.00  0.00    +0.000 F 
ATOM     16  F   UNL     1       8.433   8.607  17.494  0.00  0.00    +0.000 F 
ATOM     17  F   UNL     1       6.338   8.020  17.724  0.00  0.00    +0.000 F 
ENDBRANCH  13  14
ENDBRANCH  11  13
ENDBRANCH   3   7
BRANCH   1  19
ATOM     18  N   UNL     1       1.561   7.244  19.739  0.00  0.00    +0.000 N 
ATOM     19  C   UNL     1       1.920   6.023  20.290  0.00  0.00    +0.000 C 
ATOM     20  O   UNL     1       1.953   5.792  21.496  0.00  0.00    +0.000 OA
ATOM     21  H   UNL     1       1.453   7.251  18.728  0.00  0.00    +0.000 HD
BRANCH  18  23
ATOM     22  C   UNL     1      -0.260   8.189  21.054  0.00  0.00    +0.000 C 
ATOM     23  C   UNL     1       1.156   8.445  20.509  0.00  0.00    +0.000 C 
ATOM     24  C   UNL     1       2.083   8.555  21.743  0.00  0.00    +0.000 C 
BRANCH  23  25
ATOM     25  C   UNL     1       1.258   9.748  19.616  0.00  0.00    +0.000 C 
ATOM     26  C   UNL     1       0.722  11.052  20.239  0.00  0.00    +0.000 C 
ATOM     27  C   UNL     1      -0.763  11.295  19.995  0.00  0.00    +0.000 C 
ATOM     28  N   UNL     1      -1.071  11.296  18.570  0.00  0.00    +0.000 NA
ATOM     29  C   UNL     1      -0.737  10.010  17.965  0.00  0.00    +0.000 C 
ATOM     30  C   UNL     1       0.725   9.613  18.167  0.00  0.00    +0.000 C 
ATOM     31  H   UNL     1      -0.529  12.029  18.113  0.00  0.00    +0.000 HD
ENDBRANCH  23  25
ENDBRANCH  18  23
ENDBRANCH   1  19
BRANCH   6  32
ATOM     32  N   UNL     1       0.472   3.452  20.136  0.00  0.00    +0.000 N 
ATOM     33  H   UNL     1       0.481   2.452  20.300  0.00  0.00    +0.000 HD
ATOM     34  H   UNL     1      -0.437   3.834  19.871  0.00  0.00    +0.000 HD
ENDBRANCH   6  32
TORSDOF 7
ENDMDL
MODEL 8
REMARK VINA RESULT:      -7.9      5.319      9.474
REMARK  Name = 
REMARK  9 active torsions:
REMARK  status: ('A' for Active; 'I' for Inactive)
REMARK    1  A    between atoms: C_1  and  C_2
REMARK    2  A    between atoms: C_2  and  C_3
REMARK    3  A    between atoms: C_2  and  N_4
REMARK    4  A    between atoms: C_2  and  C_25
REMARK    5  A    between atoms: C_5  and  C_7
REMARK    6  A    between atoms: C_9  and  C_10
REMARK    7  A    between atoms: C_14  and  O_15
REMARK    8  A    between atoms: O_15  and  C_16
REMARK    9  A    between atoms: C_23  and  N_24
REMARK                            x       y       z     vdW  Elec       q    Type
REMARK                         _______ _______ _______ _____ _____    ______ ____
ROOT
ATOM      1  C   UNL     1      -0.478  10.835  19.791  0.00  0.00    +0.000 A 
ATOM      2  N   UNL     1       0.192   9.717  19.386  0.00  0.00    +0.000 NA
ATOM      3  C   UNL     1       1.024   9.159  20.304  0.00  0.00    +0.000 A 
ATOM      4  C   UNL     1       1.162   9.730  21.569  0.00  0.00    +0.000 A 
ATOM      5  N   UNL     1       0.511  10.855  21.965  0.00  0.00    +0.000 NA
ATOM      6  C   UNL     1      -0.324  11.410  21.061  0.00  0.00    +0.000 A 
ENDROOT
BRANCH   3   7
ATOM      7  C   UNL     1       1.748   7.953  19.860  0.00  0.00    +0.000 A 
ATOM      8  C   UNL     1       2.333   7.853  18.585  0.00  0.00    +0.000 A 
ATOM      9  C   UNL     1       2.951   6.674  18.169  0.00  0.00    +0.000 A 
ATOM     10  C   UNL     1       2.964   5.562  19.010  0.00  0.00    +0.000 A 
ATOM     11  C   UNL     1       2.374   5.622  20.272  0.00  0.00    +0.000 A 
ATOM     12  C   UNL     1       1.825   6.826  20.706  0.00  0.00    +0.000 A 
BRANCH  11  13
ATOM     13  O   UNL     1       2.420   4.460  20.980  0.00  0.00    +0.000 OA
BRANCH  13  14
ATOM     14  C   UNL     1       1.430   3.463  20.763  0.00  0.00    +0.000 C 
ATOM     15  F   UNL     1       1.042   2.811  21.879  0.00  0.00    +0.000 F 
ATOM     16  F   UNL     1       0.334   4.058  20.239  0.00  0.00    +0.000 F 
ATOM     17  F   UNL     1       1.889   2.564  19.867  0.00  0.00    +0.000 F 
ENDBRANCH  13  14
ENDBRANCH  11  13
ENDBRANCH   3   7
BRANCH   1  19
ATOM     18  N   UNL     1      -2.536  10.589  18.519  0.00  0.00    +0.000 N 
ATOM     19  C   UNL     1      -1.453  11.402  18.815  0.00  0.00    +0.000 C 
ATOM     20  O   UNL     1      -1.283  12.525  18.346  0.00  0.00    +0.000 OA
ATOM     21  H   UNL     1      -2.611   9.743  19.078  0.00  0.00    +0.000 HD
BRANCH  18  23
ATOM     22  C   UNL     1      -3.058  11.152  16.205  0.00  0.00    +0.000 C 
ATOM     23  C   UNL     1      -3.653  10.946  17.610  0.00  0.00    +0.000 C 
ATOM     24  C   UNL     1      -4.593   9.721  17.508  0.00  0.00    +0.000 C 
BRANCH  23  25
ATOM     25  C   UNL     1      -4.438  12.209  18.150  0.00  0.00    +0.000 C 
ATOM     26  C   UNL     1      -4.764  12.224  19.656  0.00  0.00    +0.000 C 
ATOM     27  C   UNL     1      -6.085  11.553  20.015  0.00  0.00    +0.000 C 
ATOM     28  N   UNL     1      -7.197  12.155  19.290  0.00  0.00    +0.000 NA
ATOM     29  C   UNL     1      -7.015  12.011  17.848  0.00  0.00    +0.000 C 
ATOM     30  C   UNL     1      -5.701  12.609  17.346  0.00  0.00    +0.000 C 
ATOM     31  H   UNL     1      -7.248  13.147  19.521  0.00  0.00    +0.000 HD
ENDBRANCH  23  25
ENDBRANCH  18  23
ENDBRANCH   1  19
BRANCH   6  32
ATOM     32  N   UNL     1      -0.892  12.620  21.448  0.00  0.00    +0.000 N 
ATOM     33  H   UNL     1      -1.497  12.967  20.713  0.00  0.00    +0.000 HD
ATOM     34  H   UNL     1      -0.190  13.284  21.773  0.00  0.00    +0.000 HD
ENDBRANCH   6  32
TORSDOF 7
ENDMDL
MODEL 9
REMARK VINA RESULT:      -7.8      6.664     11.026
REMARK  Name = 
REMARK  9 active torsions:
REMARK  status: ('A' for Active; 'I' for Inactive)
REMARK    1  A    between atoms: C_1  and  C_2
REMARK    2  A    between atoms: C_2  and  C_3
REMARK    3  A    between atoms: C_2  and  N_4
REMARK    4  A    between atoms: C_2  and  C_25
REMARK    5  A    between atoms: C_5  and  C_7
REMARK    6  A    between atoms: C_9  and  C_10
REMARK    7  A    between atoms: C_14  and  O_15
REMARK    8  A    between atoms: O_15  and  C_16
REMARK    9  A    between atoms: C_23  and  N_24
REMARK                            x       y       z     vdW  Elec       q    Type
REMARK                         _______ _______ _______ _____ _____    ______ ____
ROOT
ATOM      1  C   UNL     1      -4.736  12.187  18.659  0.00  0.00    +0.000 A 
ATOM      2  N   UNL     1      -3.518  11.796  19.133  0.00  0.00    +0.000 NA
ATOM      3  C   UNL     1      -2.705  11.174  18.239  0.00  0.00    +0.000 A 
ATOM      4  C   UNL     1      -3.132  10.961  16.929  0.00  0.00    +0.000 A 
ATOM      5  N   UNL     1      -4.353  11.332  16.462  0.00  0.00    +0.000 NA
ATOM      6  C   UNL     1      -5.163  11.958  17.342  0.00  0.00    +0.000 A 
ENDROOT
BRANCH   3   7
ATOM      7  C   UNL     1      -1.391  10.750  18.758  0.00  0.00    +0.000 A 
ATOM      8  C   UNL     1      -0.437  10.100  17.955  0.00  0.00    +0.000 A 
ATOM      9  C   UNL     1       0.768   9.651  18.494  0.00  0.00    +0.000 A 
ATOM     10  C   UNL     1       1.026   9.814  19.853  0.00  0.00    +0.000 A 
ATOM     11  C   UNL     1       0.092  10.435  20.682  0.00  0.00    +0.000 A 
ATOM     12  C   UNL     1      -1.076  10.946  20.121  0.00  0.00    +0.000 A 
BRANCH  11  13
ATOM     13  O   UNL     1       0.445  10.499  21.995  0.00  0.00    +0.000 OA
BRANCH  13  14
ATOM     14  C   UNL     1      -0.291   9.757  22.959  0.00  0.00    +0.000 C 
ATOM     15  F   UNL     1      -0.809   8.600  22.495  0.00  0.00    +0.000 F 
ATOM     16  F   UNL     1       0.538   9.448  23.982  0.00  0.00    +0.000 F 
ATOM     17  F   UNL     1      -1.291  10.522  23.445  0.00  0.00    +0.000 F 
ENDBRANCH  13  14
ENDBRANCH  11  13
ENDBRANCH   3   7
BRANCH   1  19
ATOM     18  N   UNL     1      -5.402  12.641  20.954  0.00  0.00    +0.000 N 
ATOM     19  C   UNL     1      -5.598  12.942  19.614  0.00  0.00    +0.000 C 
ATOM     20  O   UNL     1      -6.397  13.780  19.204  0.00  0.00    +0.000 OA
ATOM     21  H   UNL     1      -4.619  12.023  21.151  0.00  0.00    +0.000 HD
BRANCH  18  23
ATOM     22  C   UNL     1      -6.629  14.646  21.598  0.00  0.00    +0.000 C 
ATOM     23  C   UNL     1      -6.108  13.284  22.089  0.00  0.00    +0.000 C 
ATOM     24  C   UNL     1      -7.358  12.432  22.415  0.00  0.00    +0.000 C 
BRANCH  23  25
ATOM     25  C   UNL     1      -5.162  13.393  23.352  0.00  0.00    +0.000 C 
ATOM     26  C   UNL     1      -4.935  14.807  23.922  0.00  0.00    +0.000 C 
ATOM     27  C   UNL     1      -3.768  15.556  23.287  0.00  0.00    +0.000 C 
ATOM     28  N   UNL     1      -2.528  14.799  23.407  0.00  0.00    +0.000 NA
ATOM     29  C   UNL     1      -2.638  13.510  22.728  0.00  0.00    +0.000 C 
ATOM     30  C   UNL     1      -3.801  12.660  23.238  0.00  0.00    +0.000 C 
ATOM     31  H   UNL     1      -2.330  14.639  24.394  0.00  0.00    +0.000 HD
ENDBRANCH  23  25
ENDBRANCH  18  23
ENDBRANCH   1  19
BRANCH   6  32
ATOM     32  N   UNL     1      -6.445  12.227  16.876  0.00  0.00    +0.000 N 
ATOM     33  H   UNL     1      -6.535  13.214  16.664  0.00  0.00    +0.000 HD
ATOM     34  H   UNL     1      -7.163  11.856  17.499  0.00  0.00    +0.000 HD
ENDBRANCH   6  32
TORSDOF 7
ENDMDL
