MODEL 1
REMARK VINA RESULT:      -7.9      0.000      0.000
REMARK  Name = 
REMARK  7 active torsions:
REMARK  status: ('A' for Active; 'I' for Inactive)
REMARK    1  A    between atoms: C_1  and  C_2
REMARK    2  A    between atoms: C_2  and  N_3
REMARK    3  A    between atoms: C_2  and  C_17
REMARK    4  A    between atoms: C_4  and  C_6
REMARK    5  A    between atoms: C_6  and  O_7
REMARK    6  A    between atoms: O_7  and  C_8
REMARK    7  A    between atoms: C_8  and  C_10
REMARK                            x       y       z     vdW  Elec       q    Type
REMARK                         _______ _______ _______ _____ _____    ______ ____
ROOT
ATOM      1  N   UNL     1       4.922   3.247  18.371  0.00  0.00    +0.000 N 
ATOM      2  C   UNL     1       4.439   2.308  19.264  0.00  0.00    +0.000 C 
ATOM      3  O   UNL     1       4.927   2.109  20.374  0.00  0.00    +0.000 OA
ATOM      4  H   UNL     1       4.475   3.320  17.460  0.00  0.00    +0.000 HD
ENDROOT
BRANCH   1   6
ATOM      5  C   UNL     1       5.536   5.389  19.378  0.00  0.00    +0.000 C 
ATOM      6  C   UNL     1       6.052   4.119  18.690  0.00  0.00    +0.000 C 
BRANCH   6   7
ATOM      7  C   UNL     1       6.886   4.460  17.432  0.00  0.00    +0.000 C 
ATOM      8  C   UNL     1       7.207   5.960  17.205  0.00  0.00    +0.000 C 
ATOM      9  C   UNL     1       6.781   6.207  15.748  0.00  0.00    +0.000 C 
ATOM     10  C   UNL     1       5.244   6.220  15.685  0.00  0.00    +0.000 C 
ATOM     11  C   UNL     1       4.883   4.738  15.859  0.00  0.00    +0.000 C 
ATOM     12  C   UNL     1       6.254   4.067  16.066  0.00  0.00    +0.000 C 
ATOM     13  C   UNL     1       7.119   4.874  15.091  0.00  0.00    +0.000 C 
ENDBRANCH   6   7
ENDBRANCH   1   6
BRANCH   2  14
ATOM     14  C   UNL     1       3.271   1.475  18.745  0.00  0.00    +0.000 C 
BRANCH  14  15
ATOM     15  O   UNL     1       2.409   2.225  17.898  0.00  0.00    +0.000 OA
BRANCH  15  16
ATOM     16  C   UNL     1       1.331   2.758  18.517  0.00  0.00    +0.000 C 
ATOM     17  O   UNL     1       0.250   2.226  18.679  0.00  0.00    +0.000 OA
BRANCH  16  18
ATOM     18  C   UNL     1       1.630   4.148  18.931  0.00  0.00    +0.000 A 
ATOM     19  C   UNL     1       1.981   5.080  17.937  0.00  0.00    +0.000 A 
ATOM     20  C   UNL     1       2.272   6.396  18.290  0.00  0.00    +0.000 A 
ATOM     21  C   UNL     1       2.200   6.798  19.625  0.00  0.00    +0.000 A 
ATOM     22  C   UNL     1       1.833   5.882  20.611  0.00  0.00    +0.000 A 
ATOM     23  C   UNL     1       1.544   4.565  20.260  0.00  0.00    +0.000 A 
ATOM     24  F   UNL     1       1.152   3.729  21.236  0.00  0.00    +0.000 F 
ENDBRANCH  16  18
ENDBRANCH  15  16
ENDBRANCH  14  15
ENDBRANCH   2  14
TORSDOF 6
ENDMDL
MODEL 2
REMARK VINA RESULT:      -7.8      3.361      6.428
REMARK  Name = 
REMARK  7 active torsions:
REMARK  status: ('A' for Active; 'I' for Inactive)
REMARK    1  A    between atoms: C_1  and  C_2
REMARK    2  A    between atoms: C_2  and  N_3
REMARK    3  A    between atoms: C_2  and  C_17
REMARK    4  A    between atoms: C_4  and  C_6
REMARK    5  A    between atoms: C_6  and  O_7
REMARK    6  A    between atoms: O_7  and  C_8
REMARK    7  A    between atoms: C_8  and  C_10
REMARK                            x       y       z     vdW  Elec       q    Type
REMARK                         _______ _______ _______ _____ _____    ______ ____
ROOT
ATOM      1  N   UNL     1       5.675   3.804  18.724  0.00  0.00    +0.000 N 
ATOM      2  C   UNL     1       6.718   4.698  18.882  0.00  0.00    +0.000 C 
ATOM      3  O   UNL     1       6.803   5.489  19.819  0.00  0.00    +0.000 OA
ATOM      4  H   UNL     1       5.671   3.209  17.899  0.00  0.00    +0.000 HD
ENDROOT
BRANCH   1   6
ATOM      5  C   UNL     1       4.376   2.225  20.066  0.00  0.00    +0.000 C 
ATOM      6  C   UNL     1       4.585   3.698  19.693  0.00  0.00    +0.000 C 
BRANCH   6   7
ATOM      7  C   UNL     1       3.279   4.332  19.157  0.00  0.00    +0.000 C 
ATOM      8  C   UNL     1       1.999   4.087  19.998  0.00  0.00    +0.000 C 
ATOM      9  C   UNL     1       0.979   3.577  18.967  0.00  0.00    +0.000 C 
ATOM     10  C   UNL     1       1.357   2.138  18.576  0.00  0.00    +0.000 C 
ATOM     11  C   UNL     1       2.601   2.339  17.699  0.00  0.00    +0.000 C 
ATOM     12  C   UNL     1       2.820   3.863  17.748  0.00  0.00    +0.000 C 
ATOM     13  C   UNL     1       1.370   4.362  17.721  0.00  0.00    +0.000 C 
ENDBRANCH   6   7
ENDBRANCH   1   6
BRANCH   2  14
ATOM     14  C   UNL     1       7.749   4.680  17.758  0.00  0.00    +0.000 C 
BRANCH  14  15
ATOM     15  O   UNL     1       7.194   4.243  16.524  0.00  0.00    +0.000 OA
BRANCH  15  16
ATOM     16  C   UNL     1       6.864   5.237  15.668  0.00  0.00    +0.000 C 
ATOM     17  O   UNL     1       6.718   6.413  15.942  0.00  0.00    +0.000 OA
BRANCH  16  18
ATOM     18  C   UNL     1       6.637   4.676  14.317  0.00  0.00    +0.000 A 
ATOM     19  C   UNL     1       5.469   3.923  14.095  0.00  0.00    +0.000 A 
ATOM     20  C   UNL     1       5.222   3.378  12.837  0.00  0.00    +0.000 A 
ATOM     21  C   UNL     1       6.122   3.589  11.791  0.00  0.00    +0.000 A 
ATOM     22  C   UNL     1       7.271   4.352  12.001  0.00  0.00    +0.000 A 
ATOM     23  C   UNL     1       7.520   4.897  13.259  0.00  0.00    +0.000 A 
ATOM     24  F   UNL     1       8.615   5.660  13.405  0.00  0.00    +0.000 F 
ENDBRANCH  16  18
ENDBRANCH  15  16
ENDBRANCH  14  15
ENDBRANCH   2  14
TORSDOF 6
ENDMDL
MODEL 3
REMARK VINA RESULT:      -7.6      3.414      6.760
REMARK  Name = 
REMARK  7 active torsions:
REMARK  status: ('A' for Active; 'I' for Inactive)
REMARK    1  A    between atoms: C_1  and  C_2
REMARK    2  A    between atoms: C_2  and  N_3
REMARK    3  A    between atoms: C_2  and  C_17
REMARK    4  A    between atoms: C_4  and  C_6
REMARK    5  A    between atoms: C_6  and  O_7
REMARK    6  A    between atoms: O_7  and  C_8
REMARK    7  A    between atoms: C_8  and  C_10
REMARK                            x       y       z     vdW  Elec       q    Type
REMARK                         _______ _______ _______ _____ _____    ______ ____
ROOT
ATOM      1  N   UNL     1       4.490   4.267  17.828  0.00  0.00    +0.000 N 
ATOM      2  C   UNL     1       5.322   5.371  17.844  0.00  0.00    +0.000 C 
ATOM      3  O   UNL     1       5.980   5.715  18.823  0.00  0.00    +0.000 OA
ATOM      4  H   UNL     1       3.957   4.077  16.983  0.00  0.00    +0.000 HD
ENDROOT
BRANCH   1   6
ATOM      5  C   UNL     1       4.051   1.956  18.498  0.00  0.00    +0.000 C 
ATOM      6  C   UNL     1       4.346   3.381  18.983  0.00  0.00    +0.000 C 
BRANCH   6   7
ATOM      7  C   UNL     1       3.253   3.882  19.957  0.00  0.00    +0.000 C 
ATOM      8  C   UNL     1       2.540   2.798  20.806  0.00  0.00    +0.000 C 
ATOM      9  C   UNL     1       1.046   3.087  20.584  0.00  0.00    +0.000 C 
ATOM     10  C   UNL     1       0.669   2.643  19.159  0.00  0.00    +0.000 C 
ATOM     11  C   UNL     1       1.321   3.722  18.283  0.00  0.00    +0.000 C 
ATOM     12  C   UNL     1       2.045   4.615  19.308  0.00  0.00    +0.000 C 
ATOM     13  C   UNL     1       1.033   4.606  20.461  0.00  0.00    +0.000 C 
ENDBRANCH   6   7
ENDBRANCH   1   6
BRANCH   2  14
ATOM     14  C   UNL     1       5.323   6.188  16.556  0.00  0.00    +0.000 C 
BRANCH  14  15
ATOM     15  O   UNL     1       6.614   6.263  15.966  0.00  0.00    +0.000 OA
BRANCH  15  16
ATOM     16  C   UNL     1       7.201   5.067  15.733  0.00  0.00    +0.000 C 
ATOM     17  O   UNL     1       7.940   4.462  16.485  0.00  0.00    +0.000 OA
BRANCH  16  18
ATOM     18  C   UNL     1       6.862   4.602  14.369  0.00  0.00    +0.000 A 
ATOM     19  C   UNL     1       5.719   3.798  14.202  0.00  0.00    +0.000 A 
ATOM     20  C   UNL     1       5.371   3.341  12.933  0.00  0.00    +0.000 A 
ATOM     21  C   UNL     1       6.142   3.691  11.824  0.00  0.00    +0.000 A 
ATOM     22  C   UNL     1       7.264   4.505  11.982  0.00  0.00    +0.000 A 
ATOM     23  C   UNL     1       7.615   4.961  13.250  0.00  0.00    +0.000 A 
ATOM     24  F   UNL     1       8.677   5.778  13.349  0.00  0.00    +0.000 F 
ENDBRANCH  16  18
ENDBRANCH  15  16
ENDBRANCH  14  15
ENDBRANCH   2  14
TORSDOF 6
ENDMDL
MODEL 4
REMARK VINA RESULT:      -7.6      3.011      6.415
REMARK  Name = 
REMARK  7 active torsions:
REMARK  status: ('A' for Active; 'I' for Inactive)
REMARK    1  A    between atoms: C_1  and  C_2
REMARK    2  A    between atoms: C_2  and  N_3
REMARK    3  A    between atoms: C_2  and  C_17
REMARK    4  A    between atoms: C_4  and  C_6
REMARK    5  A    between atoms: C_6  and  O_7
REMARK    6  A    between atoms: O_7  and  C_8
REMARK    7  A    between atoms: C_8  and  C_10
REMARK                            x       y       z     vdW  Elec       q    Type
REMARK                         _______ _______ _______ _____ _____    ______ ____
ROOT
ATOM      1  N   UNL     1       4.495   5.739  17.968  0.00  0.00    +0.000 N 
ATOM      2  C   UNL     1       5.099   6.655  17.125  0.00  0.00    +0.000 C 
ATOM      3  O   UNL     1       4.501   7.269  16.245  0.00  0.00    +0.000 OA
ATOM      4  H   UNL     1       5.076   5.252  18.647  0.00  0.00    +0.000 HD
ENDROOT
BRANCH   1   6
ATOM      5  C   UNL     1       2.380   5.962  19.174  0.00  0.00    +0.000 C 
ATOM      6  C   UNL     1       3.064   5.444  17.903  0.00  0.00    +0.000 C 
BRANCH   6   7
ATOM      7  C   UNL     1       2.799   3.933  17.698  0.00  0.00    +0.000 C 
ATOM      8  C   UNL     1       1.494   3.373  18.319  0.00  0.00    +0.000 C 
ATOM      9  C   UNL     1       1.967   2.148  19.118  0.00  0.00    +0.000 C 
ATOM     10  C   UNL     1       2.706   2.640  20.375  0.00  0.00    +0.000 C 
ATOM     11  C   UNL     1       4.033   3.164  19.806  0.00  0.00    +0.000 C 
ATOM     12  C   UNL     1       3.865   2.967  18.288  0.00  0.00    +0.000 C 
ATOM     13  C   UNL     1       3.112   1.631  18.254  0.00  0.00    +0.000 C 
ENDBRANCH   6   7
ENDBRANCH   1   6
BRANCH   2  14
ATOM     14  C   UNL     1       6.603   6.811  17.326  0.00  0.00    +0.000 C 
BRANCH  14  15
ATOM     15  O   UNL     1       7.343   6.434  16.172  0.00  0.00    +0.000 OA
BRANCH  15  16
ATOM     16  C   UNL     1       7.507   5.100  16.017  0.00  0.00    +0.000 C 
ATOM     17  O   UNL     1       7.981   4.327  16.827  0.00  0.00    +0.000 OA
BRANCH  16  18
ATOM     18  C   UNL     1       7.076   4.700  14.658  0.00  0.00    +0.000 A 
ATOM     19  C   UNL     1       7.860   5.108  13.562  0.00  0.00    +0.000 A 
ATOM     20  C   UNL     1       7.484   4.752  12.268  0.00  0.00    +0.000 A 
ATOM     21  C   UNL     1       6.342   3.979  12.056  0.00  0.00    +0.000 A 
ATOM     22  C   UNL     1       5.573   3.556  13.141  0.00  0.00    +0.000 A 
ATOM     23  C   UNL     1       5.946   3.912  14.435  0.00  0.00    +0.000 A 
ATOM     24  F   UNL     1       5.202   3.447  15.452  0.00  0.00    +0.000 F 
ENDBRANCH  16  18
ENDBRANCH  15  16
ENDBRANCH  14  15
ENDBRANCH   2  14
TORSDOF 6
ENDMDL
MODEL 5
REMARK VINA RESULT:      -7.6      2.861      6.112
REMARK  Name = 
REMARK  7 active torsions:
REMARK  status: ('A' for Active; 'I' for Inactive)
REMARK    1  A    between atoms: C_1  and  C_2
REMARK    2  A    between atoms: C_2  and  N_3
REMARK    3  A    between atoms: C_2  and  C_17
REMARK    4  A    between atoms: C_4  and  C_6
REMARK    5  A    between atoms: C_6  and  O_7
REMARK    6  A    between atoms: O_7  and  C_8
REMARK    7  A    between atoms: C_8  and  C_10
REMARK                            x       y       z     vdW  Elec       q    Type
REMARK                         _______ _______ _______ _____ _____    ______ ____
ROOT
ATOM      1  N   UNL     1       5.638   3.654  18.597  0.00  0.00    +0.000 N 
ATOM      2  C   UNL     1       6.564   4.669  18.434  0.00  0.00    +0.000 C 
ATOM      3  O   UNL     1       6.608   5.672  19.142  0.00  0.00    +0.000 OA
ATOM      4  H   UNL     1       5.655   2.876  17.942  0.00  0.00    +0.000 HD
ENDROOT
BRANCH   1   6
ATOM      5  C   UNL     1       4.408   2.246  20.173  0.00  0.00    +0.000 C 
ATOM      6  C   UNL     1       4.638   3.674  19.664  0.00  0.00    +0.000 C 
BRANCH   6   7
ATOM      7  C   UNL     1       3.315   4.326  19.198  0.00  0.00    +0.000 C 
ATOM      8  C   UNL     1       2.058   4.016  20.051  0.00  0.00    +0.000 C 
ATOM      9  C   UNL     1       1.018   3.559  19.015  0.00  0.00    +0.000 C 
ATOM     10  C   UNL     1       1.400   2.150  18.529  0.00  0.00    +0.000 C 
ATOM     11  C   UNL     1       2.621   2.417  17.637  0.00  0.00    +0.000 C 
ATOM     12  C   UNL     1       2.827   3.937  17.773  0.00  0.00    +0.000 C 
ATOM     13  C   UNL     1       1.373   4.422  17.810  0.00  0.00    +0.000 C 
ENDBRANCH   6   7
ENDBRANCH   1   6
BRANCH   2  14
ATOM     14  C   UNL     1       7.510   4.484  17.252  0.00  0.00    +0.000 C 
BRANCH  14  15
ATOM     15  O   UNL     1       7.638   5.667  16.474  0.00  0.00    +0.000 OA
BRANCH  15  16
ATOM     16  C   UNL     1       6.555   5.970  15.722  0.00  0.00    +0.000 C 
ATOM     17  O   UNL     1       5.664   6.746  16.009  0.00  0.00    +0.000 OA
BRANCH  16  18
ATOM     18  C   UNL     1       6.566   5.158  14.484  0.00  0.00    +0.000 A 
ATOM     19  C   UNL     1       7.583   5.392  13.540  0.00  0.00    +0.000 A 
ATOM     20  C   UNL     1       7.623   4.648  12.363  0.00  0.00    +0.000 A 
ATOM     21  C   UNL     1       6.667   3.660  12.123  0.00  0.00    +0.000 A 
ATOM     22  C   UNL     1       5.668   3.411  13.064  0.00  0.00    +0.000 A 
ATOM     23  C   UNL     1       5.625   4.155  14.241  0.00  0.00    +0.000 A 
ATOM     24  F   UNL     1       4.673   3.852  15.139  0.00  0.00    +0.000 F 
ENDBRANCH  16  18
ENDBRANCH  15  16
ENDBRANCH  14  15
ENDBRANCH   2  14
TORSDOF 6
ENDMDL
MODEL 6
REMARK VINA RESULT:      -7.5      3.381      6.732
REMARK  Name = 
REMARK  7 active torsions:
REMARK  status: ('A' for Active; 'I' for Inactive)
REMARK    1  A    between atoms: C_1  and  C_2
REMARK    2  A    between atoms: C_2  and  N_3
REMARK    3  A    between atoms: C_2  and  C_17
REMARK    4  A    between atoms: C_4  and  C_6
REMARK    5  A    between atoms: C_6  and  O_7
REMARK    6  A    between atoms: O_7  and  C_8
REMARK    7  A    between atoms: C_8  and  C_10
REMARK                            x       y       z     vdW  Elec       q    Type
REMARK                         _______ _______ _______ _____ _____    ______ ____
ROOT
ATOM      1  N   UNL     1       4.751   5.279  18.485  0.00  0.00    +0.000 N 
ATOM      2  C   UNL     1       5.454   4.342  17.750  0.00  0.00    +0.000 C 
ATOM      3  O   UNL     1       4.927   3.396  17.169  0.00  0.00    +0.000 OA
ATOM      4  H   UNL     1       5.275   6.010  18.961  0.00  0.00    +0.000 HD
ENDROOT
BRANCH   1   6
ATOM      5  C   UNL     1       2.735   6.663  18.466  0.00  0.00    +0.000 C 
ATOM      6  C   UNL     1       3.294   5.242  18.608  0.00  0.00    +0.000 C 
BRANCH   6   7
ATOM      7  C   UNL     1       2.847   4.592  19.939  0.00  0.00    +0.000 C 
ATOM      8  C   UNL     1       3.507   3.234  20.297  0.00  0.00    +0.000 C 
ATOM      9  C   UNL     1       2.311   2.324  20.624  0.00  0.00    +0.000 C 
ATOM     10  C   UNL     1       1.594   1.969  19.310  0.00  0.00    +0.000 C 
ATOM     11  C   UNL     1       0.886   3.280  18.942  0.00  0.00    +0.000 C 
ATOM     12  C   UNL     1       1.336   4.244  20.056  0.00  0.00    +0.000 C 
ATOM     13  C   UNL     1       1.336   3.304  21.267  0.00  0.00    +0.000 C 
ENDBRANCH   6   7
ENDBRANCH   1   6
BRANCH   2  14
ATOM     14  C   UNL     1       6.968   4.530  17.758  0.00  0.00    +0.000 C 
BRANCH  14  15
ATOM     15  O   UNL     1       7.509   4.599  16.445  0.00  0.00    +0.000 OA
BRANCH  15  16
ATOM     16  C   UNL     1       6.857   5.436  15.607  0.00  0.00    +0.000 C 
ATOM     17  O   UNL     1       6.394   6.526  15.883  0.00  0.00    +0.000 OA
BRANCH  16  18
ATOM     18  C   UNL     1       6.720   4.802  14.276  0.00  0.00    +0.000 A 
ATOM     19  C   UNL     1       5.593   3.994  14.034  0.00  0.00    +0.000 A 
ATOM     20  C   UNL     1       5.432   3.379  12.794  0.00  0.00    +0.000 A 
ATOM     21  C   UNL     1       6.376   3.575  11.785  0.00  0.00    +0.000 A 
ATOM     22  C   UNL     1       7.484   4.391  12.014  0.00  0.00    +0.000 A 
ATOM     23  C   UNL     1       7.648   5.005  13.253  0.00  0.00    +0.000 A 
ATOM     24  F   UNL     1       8.706   5.817  13.415  0.00  0.00    +0.000 F 
ENDBRANCH  16  18
ENDBRANCH  15  16
ENDBRANCH  14  15
ENDBRANCH   2  14
TORSDOF 6
ENDMDL
MODEL 7
REMARK VINA RESULT:      -7.5      3.058      6.422
REMARK  Name = 
REMARK  7 active torsions:
REMARK  status: ('A' for Active; 'I' for Inactive)
REMARK    1  A    between atoms: C_1  and  C_2
REMARK    2  A    between atoms: C_2  and  N_3
REMARK    3  A    between atoms: C_2  and  C_17
REMARK    4  A    between atoms: C_4  and  C_6
REMARK    5  A    between atoms: C_6  and  O_7
REMARK    6  A    between atoms: O_7  and  C_8
REMARK    7  A    between atoms: C_8  and  C_10
REMARK                            x       y       z     vdW  Elec       q    Type
REMARK                         _______ _______ _______ _____ _____    ______ ____
ROOT
ATOM      1  N   UNL     1       5.500   3.363  18.817  0.00  0.00    +0.000 N 
ATOM      2  C   UNL     1       5.987   4.657  18.842  0.00  0.00    +0.000 C 
ATOM      3  O   UNL     1       5.551   5.536  19.582  0.00  0.00    +0.000 OA
ATOM      4  H   UNL     1       5.900   2.710  18.147  0.00  0.00    +0.000 HD
ENDROOT
BRANCH   1   6
ATOM      5  C   UNL     1       4.896   1.667  20.472  0.00  0.00    +0.000 C 
ATOM      6  C   UNL     1       4.431   2.914  19.709  0.00  0.00    +0.000 C 
BRANCH   6   7
ATOM      7  C   UNL     1       3.117   2.645  18.938  0.00  0.00    +0.000 C 
ATOM      8  C   UNL     1       2.456   3.870  18.256  0.00  0.00    +0.000 C 
ATOM      9  C   UNL     1       0.997   3.811  18.738  0.00  0.00    +0.000 C 
ATOM     10  C   UNL     1       0.954   4.235  20.216  0.00  0.00    +0.000 C 
ATOM     11  C   UNL     1       1.561   3.022  20.936  0.00  0.00    +0.000 C 
ATOM     12  C   UNL     1       1.936   2.080  19.777  0.00  0.00    +0.000 C 
ATOM     13  C   UNL     1       0.755   2.309  18.827  0.00  0.00    +0.000 C 
ENDBRANCH   6   7
ENDBRANCH   1   6
BRANCH   2  14
ATOM     14  C   UNL     1       7.085   4.945  17.822  0.00  0.00    +0.000 C 
BRANCH  14  15
ATOM     15  O   UNL     1       6.874   4.259  16.595  0.00  0.00    +0.000 OA
BRANCH  15  16
ATOM     16  C   UNL     1       5.955   4.826  15.780  0.00  0.00    +0.000 C 
ATOM     17  O   UNL     1       4.992   5.486  16.119  0.00  0.00    +0.000 OA
BRANCH  16  18
ATOM     18  C   UNL     1       6.252   4.473  14.373  0.00  0.00    +0.000 A 
ATOM     19  C   UNL     1       5.340   3.652  13.684  0.00  0.00    +0.000 A 
ATOM     20  C   UNL     1       5.588   3.297  12.359  0.00  0.00    +0.000 A 
ATOM     21  C   UNL     1       6.729   3.766  11.708  0.00  0.00    +0.000 A 
ATOM     22  C   UNL     1       7.626   4.597  12.381  0.00  0.00    +0.000 A 
ATOM     23  C   UNL     1       7.381   4.951  13.706  0.00  0.00    +0.000 A 
ATOM     24  F   UNL     1       8.247   5.787  14.301  0.00  0.00    +0.000 F 
ENDBRANCH  16  18
ENDBRANCH  15  16
ENDBRANCH  14  15
ENDBRANCH   2  14
TORSDOF 6
ENDMDL
MODEL 8
REMARK VINA RESULT:      -7.4      3.413      6.761
REMARK  Name = 
REMARK  7 active torsions:
REMARK  status: ('A' for Active; 'I' for Inactive)
REMARK    1  A    between atoms: C_1  and  C_2
REMARK    2  A    between atoms: C_2  and  N_3
REMARK    3  A    between atoms: C_2  and  C_17
REMARK    4  A    between atoms: C_4  and  C_6
REMARK    5  A    between atoms: C_6  and  O_7
REMARK    6  A    between atoms: O_7  and  C_8
REMARK    7  A    between atoms: C_8  and  C_10
REMARK                            x       y       z     vdW  Elec       q    Type
REMARK                         _______ _______ _______ _____ _____    ______ ____
ROOT
ATOM      1  N   UNL     1       4.608   4.829  17.678  0.00  0.00    +0.000 N 
ATOM      2  C   UNL     1       5.790   5.340  18.183  0.00  0.00    +0.000 C 
ATOM      3  O   UNL     1       6.335   4.919  19.200  0.00  0.00    +0.000 OA
ATOM      4  H   UNL     1       4.211   5.262  16.847  0.00  0.00    +0.000 HD
ENDROOT
BRANCH   1   6
ATOM      5  C   UNL     1       3.893   2.516  17.335  0.00  0.00    +0.000 C 
ATOM      6  C   UNL     1       3.913   3.705  18.304  0.00  0.00    +0.000 C 
BRANCH   6   7
ATOM      7  C   UNL     1       2.483   4.091  18.750  0.00  0.00    +0.000 C 
ATOM      8  C   UNL     1       2.369   5.277  19.743  0.00  0.00    +0.000 C 
ATOM      9  C   UNL     1       1.479   4.725  20.868  0.00  0.00    +0.000 C 
ATOM     10  C   UNL     1       2.303   3.724  21.696  0.00  0.00    +0.000 C 
ATOM     11  C   UNL     1       2.401   2.509  20.762  0.00  0.00    +0.000 C 
ATOM     12  C   UNL     1       1.676   2.987  19.490  0.00  0.00    +0.000 C 
ATOM     13  C   UNL     1       0.534   3.807  20.102  0.00  0.00    +0.000 C 
ENDBRANCH   6   7
ENDBRANCH   1   6
BRANCH   2  14
ATOM     14  C   UNL     1       6.354   6.527  17.408  0.00  0.00    +0.000 C 
BRANCH  14  15
ATOM     15  O   UNL     1       6.504   6.244  16.023  0.00  0.00    +0.000 OA
BRANCH  15  16
ATOM     16  C   UNL     1       7.166   5.098  15.747  0.00  0.00    +0.000 C 
ATOM     17  O   UNL     1       7.993   4.549  16.450  0.00  0.00    +0.000 OA
BRANCH  16  18
ATOM     18  C   UNL     1       6.784   4.613  14.401  0.00  0.00    +0.000 A 
ATOM     19  C   UNL     1       5.602   3.860  14.273  0.00  0.00    +0.000 A 
ATOM     20  C   UNL     1       5.212   3.386  13.023  0.00  0.00    +0.000 A 
ATOM     21  C   UNL     1       5.982   3.668  11.893  0.00  0.00    +0.000 A 
ATOM     22  C   UNL     1       7.144   4.430  12.012  0.00  0.00    +0.000 A 
ATOM     23  C   UNL     1       7.537   4.904  13.262  0.00  0.00    +0.000 A 
ATOM     24  F   UNL     1       8.638   5.671  13.324  0.00  0.00    +0.000 F 
ENDBRANCH  16  18
ENDBRANCH  15  16
ENDBRANCH  14  15
ENDBRANCH   2  14
TORSDOF 6
ENDMDL
MODEL 9
REMARK VINA RESULT:      -7.4      2.881      6.531
REMARK  Name = 
REMARK  7 active torsions:
REMARK  status: ('A' for Active; 'I' for Inactive)
REMARK    1  A    between atoms: C_1  and  C_2
REMARK    2  A    between atoms: C_2  and  N_3
REMARK    3  A    between atoms: C_2  and  C_17
REMARK    4  A    between atoms: C_4  and  C_6
REMARK    5  A    between atoms: C_6  and  O_7
REMARK    6  A    between atoms: O_7  and  C_8
REMARK    7  A    between atoms: C_8  and  C_10
REMARK                            x       y       z     vdW  Elec       q    Type
REMARK                         _______ _______ _______ _____ _____    ______ ____
ROOT
ATOM      1  N   UNL     1       4.507   4.232  17.951  0.00  0.00    +0.000 N 
ATOM      2  C   UNL     1       5.331   5.338  18.048  0.00  0.00    +0.000 C 
ATOM      3  O   UNL     1       5.932   5.652  19.072  0.00  0.00    +0.000 OA
ATOM      4  H   UNL     1       4.022   4.067  17.071  0.00  0.00    +0.000 HD
ENDROOT
BRANCH   1   6
ATOM      5  C   UNL     1       4.009   1.906  18.519  0.00  0.00    +0.000 C 
ATOM      6  C   UNL     1       4.305   3.308  19.066  0.00  0.00    +0.000 C 
BRANCH   6   7
ATOM      7  C   UNL     1       3.181   3.790  20.014  0.00  0.00    +0.000 C 
ATOM      8  C   UNL     1       2.396   2.686  20.768  0.00  0.00    +0.000 C 
ATOM      9  C   UNL     1       0.924   3.034  20.493  0.00  0.00    +0.000 C 
ATOM     10  C   UNL     1       0.604   2.679  19.030  0.00  0.00    +0.000 C 
ATOM     11  C   UNL     1       1.328   3.782  18.245  0.00  0.00    +0.000 C 
ATOM     12  C   UNL     1       2.027   4.595  19.351  0.00  0.00    +0.000 C 
ATOM     13  C   UNL     1       0.962   4.557  20.453  0.00  0.00    +0.000 C 
ENDBRANCH   6   7
ENDBRANCH   1   6
BRANCH   2  14
ATOM     14  C   UNL     1       5.397   6.197  16.789  0.00  0.00    +0.000 C 
BRANCH  14  15
ATOM     15  O   UNL     1       6.722   6.318  16.289  0.00  0.00    +0.000 OA
BRANCH  15  16
ATOM     16  C   UNL     1       7.338   5.144  16.023  0.00  0.00    +0.000 C 
ATOM     17  O   UNL     1       8.028   4.496  16.786  0.00  0.00    +0.000 OA
BRANCH  16  18
ATOM     18  C   UNL     1       7.101   4.766  14.611  0.00  0.00    +0.000 A 
ATOM     19  C   UNL     1       7.838   5.427  13.611  0.00  0.00    +0.000 A 
ATOM     20  C   UNL     1       7.641   5.099  12.271  0.00  0.00    +0.000 A 
ATOM     21  C   UNL     1       6.727   4.106  11.918  0.00  0.00    +0.000 A 
ATOM     22  C   UNL     1       6.009   3.434  12.908  0.00  0.00    +0.000 A 
ATOM     23  C   UNL     1       6.203   3.761  14.248  0.00  0.00    +0.000 A 
ATOM     24  F   UNL     1       5.523   3.059  15.169  0.00  0.00    +0.000 F 
ENDBRANCH  16  18
ENDBRANCH  15  16
ENDBRANCH  14  15
ENDBRANCH   2  14
TORSDOF 6
ENDMDL
