MODEL 1
REMARK VINA RESULT:      -7.8      0.000      0.000
REMARK  Name = 
REMARK  8 active torsions:
REMARK  status: ('A' for Active; 'I' for Inactive)
REMARK    1  A    between atoms: C_1  and  O_2
REMARK    2  A    between atoms: O_2  and  C_3
REMARK    3  A    between atoms: C_6  and  C_7
REMARK    4  A    between atoms: C_7  and  N_8
REMARK    5  A    between atoms: C_11  and  C_12
REMARK    6  A    between atoms: N_17  and  C_18
REMARK    7  A    between atoms: C_30  and  O_31
REMARK    8  A    between atoms: O_31  and  C_32
REMARK                            x       y       z     vdW  Elec       q    Type
REMARK                         _______ _______ _______ _____ _____    ______ ____
ROOT
ATOM      1  N   UNL     1       3.134   3.220  18.466  0.00  0.00    +0.000 NA
ATOM      2  C   UNL     1       3.898   3.894  19.529  0.00  0.00    +0.000 C 
ATOM      3  C   UNL     1       3.016   4.416  20.663  0.00  0.00    +0.000 C 
ATOM      4  C   UNL     1       1.864   5.300  20.178  0.00  0.00    +0.000 C 
ATOM      5  C   UNL     1       1.091   4.541  19.096  0.00  0.00    +0.000 C 
ATOM      6  C   UNL     1       2.013   4.043  17.980  0.00  0.00    +0.000 C 
ENDROOT
BRANCH   4   7
ATOM      7  C   UNL     1       2.326   6.669  19.651  0.00  0.00    +0.000 C 
ATOM      8  O   UNL     1       3.110   6.752  18.703  0.00  0.00    +0.000 OA
ATOM      9  N   UNL     1       1.754   7.804  20.201  0.00  0.00    +0.000 N 
ATOM     10  C   UNL     1       1.903   9.098  19.513  0.00  0.00    +0.000 C 
ATOM     11  C   UNL     1       0.516   9.705  19.224  0.00  0.00    +0.000 C 
ATOM     12  N   UNL     1      -0.310   9.758  20.448  0.00  0.00    +0.000 N 
ATOM     13  C   UNL     1      -0.399   8.511  21.227  0.00  0.00    +0.000 C 
ATOM     14  C   UNL     1       1.000   7.904  21.452  0.00  0.00    +0.000 C 
BRANCH  12  15
ATOM     15  C   UNL     1      -0.763  10.953  20.983  0.00  0.00    +0.000 A 
ATOM     16  C   UNL     1      -1.382  11.907  20.156  0.00  0.00    +0.000 A 
ATOM     17  C   UNL     1      -1.834  13.138  20.649  0.00  0.00    +0.000 A 
ATOM     18  C   UNL     1      -1.679  13.449  21.994  0.00  0.00    +0.000 A 
ATOM     19  C   UNL     1      -1.078  12.524  22.843  0.00  0.00    +0.000 A 
ATOM     20  C   UNL     1      -0.629  11.302  22.340  0.00  0.00    +0.000 A 
ATOM     21  F   UNL     1      -0.097  10.434  23.215  0.00  0.00    +0.000 F 
ENDBRANCH  12  15
ENDBRANCH   4   7
BRANCH   1  22
ATOM     22  C   UNL     1       4.024   2.935  17.318  0.00  0.00    +0.000 C 
BRANCH  22  26
ATOM     23  C   UNL     1       6.933   6.088  16.734  0.00  0.00    +0.000 A 
ATOM     24  C   UNL     1       5.847   5.942  15.853  0.00  0.00    +0.000 A 
ATOM     25  C   UNL     1       4.917   4.913  16.017  0.00  0.00    +0.000 A 
ATOM     26  C   UNL     1       5.072   3.989  17.049  0.00  0.00    +0.000 A 
ATOM     27  C   UNL     1       6.203   4.086  17.870  0.00  0.00    +0.000 A 
ATOM     28  C   UNL     1       7.142   5.118  17.724  0.00  0.00    +0.000 A 
BRANCH  23  30
ATOM     29  C   UNL     1       7.535   8.219  17.557  0.00  0.00    +0.000 C 
ATOM     30  O   UNL     1       7.787   7.156  16.637  0.00  0.00    +0.000 OA
ENDBRANCH  23  30
BRANCH  28  31
ATOM     31  O   UNL     1       8.143   5.020  18.653  0.00  0.00    +0.000 OA
ATOM     32  C   UNL     1       7.957   5.574  19.944  0.00  0.00    +0.000 C 
ENDBRANCH  28  31
ENDBRANCH  22  26
ENDBRANCH   1  22
TORSDOF 6
ENDMDL
MODEL 2
REMARK VINA RESULT:      -7.8      1.237      2.036
REMARK  Name = 
REMARK  8 active torsions:
REMARK  status: ('A' for Active; 'I' for Inactive)
REMARK    1  A    between atoms: C_1  and  O_2
REMARK    2  A    between atoms: O_2  and  C_3
REMARK    3  A    between atoms: C_6  and  C_7
REMARK    4  A    between atoms: C_7  and  N_8
REMARK    5  A    between atoms: C_11  and  C_12
REMARK    6  A    between atoms: N_17  and  C_18
REMARK    7  A    between atoms: C_30  and  O_31
REMARK    8  A    between atoms: O_31  and  C_32
REMARK                            x       y       z     vdW  Elec       q    Type
REMARK                         _______ _______ _______ _____ _____    ______ ____
ROOT
ATOM      1  N   UNL     1       3.165   3.222  19.301  0.00  0.00    +0.000 NA
ATOM      2  C   UNL     1       3.577   3.952  20.512  0.00  0.00    +0.000 C 
ATOM      3  C   UNL     1       2.398   4.518  21.302  0.00  0.00    +0.000 C 
ATOM      4  C   UNL     1       1.450   5.367  20.452  0.00  0.00    +0.000 C 
ATOM      5  C   UNL     1       1.034   4.552  19.224  0.00  0.00    +0.000 C 
ATOM      6  C   UNL     1       2.247   4.011  18.462  0.00  0.00    +0.000 C 
ENDROOT
BRANCH   4   7
ATOM      7  C   UNL     1       2.055   6.714  20.024  0.00  0.00    +0.000 C 
ATOM      8  O   UNL     1       2.964   6.766  19.192  0.00  0.00    +0.000 OA
ATOM      9  N   UNL     1       1.480   7.873  20.520  0.00  0.00    +0.000 N 
ATOM     10  C   UNL     1       1.794   9.166  19.889  0.00  0.00    +0.000 C 
ATOM     11  C   UNL     1       0.495   9.859  19.431  0.00  0.00    +0.000 C 
ATOM     12  N   UNL     1      -0.483   9.942  20.535  0.00  0.00    +0.000 N 
ATOM     13  C   UNL     1      -0.748   8.691  21.265  0.00  0.00    +0.000 C 
ATOM     14  C   UNL     1       0.571   7.997  21.661  0.00  0.00    +0.000 C 
BRANCH  12  15
ATOM     15  C   UNL     1      -0.936  11.153  21.033  0.00  0.00    +0.000 A 
ATOM     16  C   UNL     1      -0.613  11.542  22.345  0.00  0.00    +0.000 A 
ATOM     17  C   UNL     1      -1.069  12.745  22.898  0.00  0.00    +0.000 A 
ATOM     18  C   UNL     1      -1.867  13.599  22.147  0.00  0.00    +0.000 A 
ATOM     19  C   UNL     1      -2.200  13.249  20.842  0.00  0.00    +0.000 A 
ATOM     20  C   UNL     1      -1.742  12.047  20.302  0.00  0.00    +0.000 A 
ATOM     21  F   UNL     1      -2.060  11.783  19.024  0.00  0.00    +0.000 F 
ENDBRANCH  12  15
ENDBRANCH   4   7
BRANCH   1  22
ATOM     22  C   UNL     1       4.358   2.892  18.488  0.00  0.00    +0.000 C 
BRANCH  22  26
ATOM     23  C   UNL     1       6.886   6.148  17.164  0.00  0.00    +0.000 A 
ATOM     24  C   UNL     1       6.734   5.869  18.534  0.00  0.00    +0.000 A 
ATOM     25  C   UNL     1       5.902   4.837  18.973  0.00  0.00    +0.000 A 
ATOM     26  C   UNL     1       5.179   4.082  18.052  0.00  0.00    +0.000 A 
ATOM     27  C   UNL     1       5.265   4.420  16.695  0.00  0.00    +0.000 A 
ATOM     28  C   UNL     1       6.102   5.448  16.235  0.00  0.00    +0.000 A 
BRANCH  23  30
ATOM     29  C   UNL     1       7.856   8.272  17.524  0.00  0.00    +0.000 C 
ATOM     30  O   UNL     1       7.781   7.090  16.726  0.00  0.00    +0.000 OA
ENDBRANCH  23  30
BRANCH  28  31
ATOM     31  O   UNL     1       6.039   5.576  14.874  0.00  0.00    +0.000 OA
ATOM     32  C   UNL     1       6.884   4.787  14.056  0.00  0.00    +0.000 C 
ENDBRANCH  28  31
ENDBRANCH  22  26
ENDBRANCH   1  22
TORSDOF 6
ENDMDL
MODEL 3
REMARK VINA RESULT:      -7.8      0.860      1.642
REMARK  Name = 
REMARK  8 active torsions:
REMARK  status: ('A' for Active; 'I' for Inactive)
REMARK    1  A    between atoms: C_1  and  O_2
REMARK    2  A    between atoms: O_2  and  C_3
REMARK    3  A    between atoms: C_6  and  C_7
REMARK    4  A    between atoms: C_7  and  N_8
REMARK    5  A    between atoms: C_11  and  C_12
REMARK    6  A    between atoms: N_17  and  C_18
REMARK    7  A    between atoms: C_30  and  O_31
REMARK    8  A    between atoms: O_31  and  C_32
REMARK                            x       y       z     vdW  Elec       q    Type
REMARK                         _______ _______ _______ _____ _____    ______ ____
ROOT
ATOM      1  N   UNL     1       3.127   3.136  19.087  0.00  0.00    +0.000 NA
ATOM      2  C   UNL     1       3.582   3.800  20.320  0.00  0.00    +0.000 C 
ATOM      3  C   UNL     1       2.432   4.339  21.171  0.00  0.00    +0.000 C 
ATOM      4  C   UNL     1       1.471   5.240  20.391  0.00  0.00    +0.000 C 
ATOM      5  C   UNL     1       1.011   4.492  19.138  0.00  0.00    +0.000 C 
ATOM      6  C   UNL     1       2.195   3.976  18.315  0.00  0.00    +0.000 C 
ENDROOT
BRANCH   4   7
ATOM      7  C   UNL     1       2.081   6.600  20.014  0.00  0.00    +0.000 C 
ATOM      8  O   UNL     1       2.987   6.680  19.182  0.00  0.00    +0.000 OA
ATOM      9  N   UNL     1       1.514   7.741  20.557  0.00  0.00    +0.000 N 
ATOM     10  C   UNL     1       1.831   9.056  19.975  0.00  0.00    +0.000 C 
ATOM     11  C   UNL     1       0.534   9.773  19.550  0.00  0.00    +0.000 C 
ATOM     12  N   UNL     1      -0.441   9.817  20.659  0.00  0.00    +0.000 N 
ATOM     13  C   UNL     1      -0.709   8.539  21.341  0.00  0.00    +0.000 C 
ATOM     14  C   UNL     1       0.609   7.825  21.705  0.00  0.00    +0.000 C 
BRANCH  12  15
ATOM     15  C   UNL     1      -0.886  11.009  21.206  0.00  0.00    +0.000 A 
ATOM     16  C   UNL     1      -1.354  12.037  20.368  0.00  0.00    +0.000 A 
ATOM     17  C   UNL     1      -1.792  13.268  20.875  0.00  0.00    +0.000 A 
ATOM     18  C   UNL     1      -1.773  13.504  22.244  0.00  0.00    +0.000 A 
ATOM     19  C   UNL     1      -1.324  12.506  23.102  0.00  0.00    +0.000 A 
ATOM     20  C   UNL     1      -0.888  11.284  22.586  0.00  0.00    +0.000 A 
ATOM     21  F   UNL     1      -0.507  10.344  23.466  0.00  0.00    +0.000 F 
ENDBRANCH  12  15
ENDBRANCH   4   7
BRANCH   1  22
ATOM     22  C   UNL     1       4.292   2.834  18.225  0.00  0.00    +0.000 C 
BRANCH  22  26
ATOM     23  C   UNL     1       6.958   6.086  17.195  0.00  0.00    +0.000 A 
ATOM     24  C   UNL     1       6.742   5.734  18.539  0.00  0.00    +0.000 A 
ATOM     25  C   UNL     1       5.865   4.703  18.884  0.00  0.00    +0.000 A 
ATOM     26  C   UNL     1       5.162   4.023  17.892  0.00  0.00    +0.000 A 
ATOM     27  C   UNL     1       5.312   4.436  16.561  0.00  0.00    +0.000 A 
ATOM     28  C   UNL     1       6.195   5.464  16.197  0.00  0.00    +0.000 A 
BRANCH  23  30
ATOM     29  C   UNL     1       7.766   8.284  17.513  0.00  0.00    +0.000 C 
ATOM     30  O   UNL     1       7.895   7.026  16.848  0.00  0.00    +0.000 OA
ENDBRANCH  23  30
BRANCH  28  31
ATOM     31  O   UNL     1       6.192   5.672  14.844  0.00  0.00    +0.000 OA
ATOM     32  C   UNL     1       6.653   4.651  13.977  0.00  0.00    +0.000 C 
ENDBRANCH  28  31
ENDBRANCH  22  26
ENDBRANCH   1  22
TORSDOF 6
ENDMDL
MODEL 4
REMARK VINA RESULT:      -7.7      0.921      1.243
REMARK  Name = 
REMARK  8 active torsions:
REMARK  status: ('A' for Active; 'I' for Inactive)
REMARK    1  A    between atoms: C_1  and  O_2
REMARK    2  A    between atoms: O_2  and  C_3
REMARK    3  A    between atoms: C_6  and  C_7
REMARK    4  A    between atoms: C_7  and  N_8
REMARK    5  A    between atoms: C_11  and  C_12
REMARK    6  A    between atoms: N_17  and  C_18
REMARK    7  A    between atoms: C_30  and  O_31
REMARK    8  A    between atoms: O_31  and  C_32
REMARK                            x       y       z     vdW  Elec       q    Type
REMARK                         _______ _______ _______ _____ _____    ______ ____
ROOT
ATOM      1  N   UNL     1       3.053   3.449  18.664  0.00  0.00    +0.000 NA
ATOM      2  C   UNL     1       3.822   4.232  19.646  0.00  0.00    +0.000 C 
ATOM      3  C   UNL     1       2.955   4.809  20.765  0.00  0.00    +0.000 C 
ATOM      4  C   UNL     1       1.756   5.609  20.251  0.00  0.00    +0.000 C 
ATOM      5  C   UNL     1       0.980   4.741  19.257  0.00  0.00    +0.000 C 
ATOM      6  C   UNL     1       1.887   4.190  18.153  0.00  0.00    +0.000 C 
ENDROOT
BRANCH   4   7
ATOM      7  C   UNL     1       2.148   6.949  19.605  0.00  0.00    +0.000 C 
ATOM      8  O   UNL     1       2.849   6.983  18.591  0.00  0.00    +0.000 OA
ATOM      9  N   UNL     1       1.605   8.109  20.131  0.00  0.00    +0.000 N 
ATOM     10  C   UNL     1       1.674   9.359  19.355  0.00  0.00    +0.000 C 
ATOM     11  C   UNL     1       0.257   9.931  19.148  0.00  0.00    +0.000 C 
ATOM     12  N   UNL     1      -0.464  10.049  20.432  0.00  0.00    +0.000 N 
ATOM     13  C   UNL     1      -0.467   8.852  21.290  0.00  0.00    +0.000 C 
ATOM     14  C   UNL     1       0.956   8.276  21.433  0.00  0.00    +0.000 C 
BRANCH  12  15
ATOM     15  C   UNL     1      -0.892  11.269  20.930  0.00  0.00    +0.000 A 
ATOM     16  C   UNL     1      -0.491  11.688  22.211  0.00  0.00    +0.000 A 
ATOM     17  C   UNL     1      -0.919  12.902  22.764  0.00  0.00    +0.000 A 
ATOM     18  C   UNL     1      -1.765  13.736  22.044  0.00  0.00    +0.000 A 
ATOM     19  C   UNL     1      -2.175  13.356  20.771  0.00  0.00    +0.000 A 
ATOM     20  C   UNL     1      -1.745  12.144  20.230  0.00  0.00    +0.000 A 
ATOM     21  F   UNL     1      -2.138  11.851  18.980  0.00  0.00    +0.000 F 
ENDBRANCH  12  15
ENDBRANCH   4   7
BRANCH   1  22
ATOM     22  C   UNL     1       3.919   3.106  17.513  0.00  0.00    +0.000 C 
BRANCH  22  26
ATOM     23  C   UNL     1       6.874   6.184  16.771  0.00  0.00    +0.000 A 
ATOM     24  C   UNL     1       5.750   6.050  15.935  0.00  0.00    +0.000 A 
ATOM     25  C   UNL     1       4.804   5.046  16.150  0.00  0.00    +0.000 A 
ATOM     26  C   UNL     1       4.979   4.133  17.188  0.00  0.00    +0.000 A 
ATOM     27  C   UNL     1       6.143   4.214  17.963  0.00  0.00    +0.000 A 
ATOM     28  C   UNL     1       7.099   5.222  17.766  0.00  0.00    +0.000 A 
BRANCH  23  30
ATOM     29  C   UNL     1       7.598   8.281  17.581  0.00  0.00    +0.000 C 
ATOM     30  O   UNL     1       7.747   7.230  16.625  0.00  0.00    +0.000 OA
ENDBRANCH  23  30
BRANCH  28  31
ATOM     31  O   UNL     1       8.133   5.113  18.656  0.00  0.00    +0.000 OA
ATOM     32  C   UNL     1       7.878   5.233  20.044  0.00  0.00    +0.000 C 
ENDBRANCH  28  31
ENDBRANCH  22  26
ENDBRANCH   1  22
TORSDOF 6
ENDMDL
MODEL 5
REMARK VINA RESULT:      -7.4      4.083     10.535
REMARK  Name = 
REMARK  8 active torsions:
REMARK  status: ('A' for Active; 'I' for Inactive)
REMARK    1  A    between atoms: C_1  and  O_2
REMARK    2  A    between atoms: O_2  and  C_3
REMARK    3  A    between atoms: C_6  and  C_7
REMARK    4  A    between atoms: C_7  and  N_8
REMARK    5  A    between atoms: C_11  and  C_12
REMARK    6  A    between atoms: N_17  and  C_18
REMARK    7  A    between atoms: C_30  and  O_31
REMARK    8  A    between atoms: O_31  and  C_32
REMARK                            x       y       z     vdW  Elec       q    Type
REMARK                         _______ _______ _______ _____ _____    ______ ____
ROOT
ATOM      1  N   UNL     1      -2.731  13.891  22.609  0.00  0.00    +0.000 NA
ATOM      2  C   UNL     1      -2.748  12.427  22.768  0.00  0.00    +0.000 C 
ATOM      3  C   UNL     1      -1.367  11.838  23.054  0.00  0.00    +0.000 C 
ATOM      4  C   UNL     1      -0.305  12.262  22.035  0.00  0.00    +0.000 C 
ATOM      5  C   UNL     1      -0.313  13.789  21.930  0.00  0.00    +0.000 C 
ATOM      6  C   UNL     1      -1.715  14.333  21.638  0.00  0.00    +0.000 C 
ENDROOT
BRANCH   4   7
ATOM      7  C   UNL     1      -0.500  11.624  20.650  0.00  0.00    +0.000 C 
ATOM      8  O   UNL     1      -0.884  12.297  19.690  0.00  0.00    +0.000 OA
ATOM      9  N   UNL     1      -0.132  10.300  20.484  0.00  0.00    +0.000 N 
ATOM     10  C   UNL     1       0.021   9.753  19.126  0.00  0.00    +0.000 C 
ATOM     11  C   UNL     1       1.436   9.170  18.946  0.00  0.00    +0.000 C 
ATOM     12  N   UNL     1       1.762   8.216  20.027  0.00  0.00    +0.000 N 
ATOM     13  C   UNL     1       1.524   8.685  21.402  0.00  0.00    +0.000 C 
ATOM     14  C   UNL     1       0.119   9.309  21.533  0.00  0.00    +0.000 C 
BRANCH  12  15
ATOM     15  C   UNL     1       2.028   6.880  19.778  0.00  0.00    +0.000 A 
ATOM     16  C   UNL     1       1.559   5.891  20.662  0.00  0.00    +0.000 A 
ATOM     17  C   UNL     1       1.825   4.530  20.463  0.00  0.00    +0.000 A 
ATOM     18  C   UNL     1       2.572   4.118  19.366  0.00  0.00    +0.000 A 
ATOM     19  C   UNL     1       3.045   5.069  18.468  0.00  0.00    +0.000 A 
ATOM     20  C   UNL     1       2.776   6.423  18.677  0.00  0.00    +0.000 A 
ATOM     21  F   UNL     1       3.222   7.290  17.753  0.00  0.00    +0.000 F 
ENDBRANCH  12  15
ENDBRANCH   4   7
BRANCH   1  22
ATOM     22  C   UNL     1      -4.054  14.355  22.131  0.00  0.00    +0.000 C 
BRANCH  22  26
ATOM     23  C   UNL     1      -6.418  11.595  19.776  0.00  0.00    +0.000 A 
ATOM     24  C   UNL     1      -6.786  11.911  21.096  0.00  0.00    +0.000 A 
ATOM     25  C   UNL     1      -6.017  12.780  21.874  0.00  0.00    +0.000 A 
ATOM     26  C   UNL     1      -4.845  13.328  21.356  0.00  0.00    +0.000 A 
ATOM     27  C   UNL     1      -4.434  12.942  20.073  0.00  0.00    +0.000 A 
ATOM     28  C   UNL     1      -5.199  12.076  19.276  0.00  0.00    +0.000 A 
BRANCH  23  30
ATOM     29  C   UNL     1      -7.108   9.416  19.178  0.00  0.00    +0.000 C 
ATOM     30  O   UNL     1      -7.224  10.826  18.978  0.00  0.00    +0.000 OA
ENDBRANCH  23  30
BRANCH  28  31
ATOM     31  O   UNL     1      -4.612  11.866  18.058  0.00  0.00    +0.000 OA
ATOM     32  C   UNL     1      -3.852  10.691  17.840  0.00  0.00    +0.000 C 
ENDBRANCH  28  31
ENDBRANCH  22  26
ENDBRANCH   1  22
TORSDOF 6
ENDMDL
MODEL 6
REMARK VINA RESULT:      -7.4      2.923      5.221
REMARK  Name = 
REMARK  8 active torsions:
REMARK  status: ('A' for Active; 'I' for Inactive)
REMARK    1  A    between atoms: C_1  and  O_2
REMARK    2  A    between atoms: O_2  and  C_3
REMARK    3  A    between atoms: C_6  and  C_7
REMARK    4  A    between atoms: C_7  and  N_8
REMARK    5  A    between atoms: C_11  and  C_12
REMARK    6  A    between atoms: N_17  and  C_18
REMARK    7  A    between atoms: C_30  and  O_31
REMARK    8  A    between atoms: O_31  and  C_32
REMARK                            x       y       z     vdW  Elec       q    Type
REMARK                         _______ _______ _______ _____ _____    ______ ____
ROOT
ATOM      1  N   UNL     1       1.292   8.748  18.946  0.00  0.00    +0.000 NA
ATOM      2  C   UNL     1       1.561   8.667  20.392  0.00  0.00    +0.000 C 
ATOM      3  C   UNL     1       0.298   8.783  21.244  0.00  0.00    +0.000 C 
ATOM      4  C   UNL     1      -0.544  10.018  20.916  0.00  0.00    +0.000 C 
ATOM      5  C   UNL     1      -0.815  10.037  19.409  0.00  0.00    +0.000 C 
ATOM      6  C   UNL     1       0.478   9.924  18.596  0.00  0.00    +0.000 C 
ENDROOT
BRANCH   4   7
ATOM      7  C   UNL     1       0.108  11.337  21.363  0.00  0.00    +0.000 C 
ATOM      8  O   UNL     1       1.234  11.652  20.974  0.00  0.00    +0.000 OA
ATOM      9  N   UNL     1      -0.647  12.210  22.129  0.00  0.00    +0.000 N 
ATOM     10  C   UNL     1      -0.203  13.605  22.291  0.00  0.00    +0.000 C 
ATOM     11  C   UNL     1      -1.310  14.570  21.826  0.00  0.00    +0.000 C 
ATOM     12  N   UNL     1      -2.598  14.262  22.481  0.00  0.00    +0.000 N 
ATOM     13  C   UNL     1      -3.031  12.855  22.435  0.00  0.00    +0.000 C 
ATOM     14  C   UNL     1      -1.884  11.914  22.856  0.00  0.00    +0.000 C 
BRANCH  12  15
ATOM     15  C   UNL     1      -3.241  15.166  23.310  0.00  0.00    +0.000 A 
ATOM     16  C   UNL     1      -4.411  15.815  22.874  0.00  0.00    +0.000 A 
ATOM     17  C   UNL     1      -5.080  16.754  23.669  0.00  0.00    +0.000 A 
ATOM     18  C   UNL     1      -4.595  17.071  24.932  0.00  0.00    +0.000 A 
ATOM     19  C   UNL     1      -3.445  16.442  25.398  0.00  0.00    +0.000 A 
ATOM     20  C   UNL     1      -2.784  15.510  24.596  0.00  0.00    +0.000 A 
ATOM     21  F   UNL     1      -1.704  14.905  25.117  0.00  0.00    +0.000 F 
ENDBRANCH  12  15
ENDBRANCH   4   7
BRANCH   1  22
ATOM     22  C   UNL     1       2.572   8.840  18.206  0.00  0.00    +0.000 C 
BRANCH  22  26
ATOM     23  C   UNL     1       4.284   4.999  17.174  0.00  0.00    +0.000 A 
ATOM     24  C   UNL     1       4.949   6.193  16.844  0.00  0.00    +0.000 A 
ATOM     25  C   UNL     1       4.394   7.438  17.149  0.00  0.00    +0.000 A 
ATOM     26  C   UNL     1       3.146   7.514  17.765  0.00  0.00    +0.000 A 
ATOM     27  C   UNL     1       2.447   6.325  18.012  0.00  0.00    +0.000 A 
ATOM     28  C   UNL     1       2.994   5.066  17.719  0.00  0.00    +0.000 A 
BRANCH  23  30
ATOM     29  C   UNL     1       5.730   3.702  15.829  0.00  0.00    +0.000 C 
ATOM     30  O   UNL     1       4.873   3.778  16.970  0.00  0.00    +0.000 OA
ENDBRANCH  23  30
BRANCH  28  31
ATOM     31  O   UNL     1       2.141   4.055  18.071  0.00  0.00    +0.000 OA
ATOM     32  C   UNL     1       1.571   4.040  19.368  0.00  0.00    +0.000 C 
ENDBRANCH  28  31
ENDBRANCH  22  26
ENDBRANCH   1  22
TORSDOF 6
ENDMDL
MODEL 7
REMARK VINA RESULT:      -7.4      3.560      6.100
REMARK  Name = 
REMARK  8 active torsions:
REMARK  status: ('A' for Active; 'I' for Inactive)
REMARK    1  A    between atoms: C_1  and  O_2
REMARK    2  A    between atoms: O_2  and  C_3
REMARK    3  A    between atoms: C_6  and  C_7
REMARK    4  A    between atoms: C_7  and  N_8
REMARK    5  A    between atoms: C_11  and  C_12
REMARK    6  A    between atoms: N_17  and  C_18
REMARK    7  A    between atoms: C_30  and  O_31
REMARK    8  A    between atoms: O_31  and  C_32
REMARK                            x       y       z     vdW  Elec       q    Type
REMARK                         _______ _______ _______ _____ _____    ______ ____
ROOT
ATOM      1  N   UNL     1       1.520   9.990  19.199  0.00  0.00    +0.000 NA
ATOM      2  C   UNL     1       1.527  11.335  18.599  0.00  0.00    +0.000 C 
ATOM      3  C   UNL     1       1.338  12.451  19.627  0.00  0.00    +0.000 C 
ATOM      4  C   UNL     1       0.105  12.256  20.512  0.00  0.00    +0.000 C 
ATOM      5  C   UNL     1       0.163  10.856  21.128  0.00  0.00    +0.000 C 
ATOM      6  C   UNL     1       0.348   9.772  20.063  0.00  0.00    +0.000 C 
ENDROOT
BRANCH   4   7
ATOM      7  C   UNL     1      -1.222  12.461  19.764  0.00  0.00    +0.000 C 
ATOM      8  O   UNL     1      -1.370  12.052  18.610  0.00  0.00    +0.000 OA
ATOM      9  N   UNL     1      -2.282  13.023  20.457  0.00  0.00    +0.000 N 
ATOM     10  C   UNL     1      -3.643  12.927  19.905  0.00  0.00    +0.000 C 
ATOM     11  C   UNL     1      -4.582  12.254  20.925  0.00  0.00    +0.000 C 
ATOM     12  N   UNL     1      -4.504  12.918  22.242  0.00  0.00    +0.000 N 
ATOM     13  C   UNL     1      -3.152  13.130  22.786  0.00  0.00    +0.000 C 
ATOM     14  C   UNL     1      -2.226  13.757  21.723  0.00  0.00    +0.000 C 
BRANCH  12  15
ATOM     15  C   UNL     1      -5.598  13.540  22.823  0.00  0.00    +0.000 A 
ATOM     16  C   UNL     1      -6.488  12.799  23.621  0.00  0.00    +0.000 A 
ATOM     17  C   UNL     1      -7.620  13.380  24.208  0.00  0.00    +0.000 A 
ATOM     18  C   UNL     1      -7.892  14.729  24.011  0.00  0.00    +0.000 A 
ATOM     19  C   UNL     1      -7.027  15.493  23.234  0.00  0.00    +0.000 A 
ATOM     20  C   UNL     1      -5.904  14.903  22.652  0.00  0.00    +0.000 A 
ATOM     21  F   UNL     1      -5.084  15.700  21.949  0.00  0.00    +0.000 F 
ENDBRANCH  12  15
ENDBRANCH   4   7
BRANCH   1  22
ATOM     22  C   UNL     1       1.497   8.967  18.127  0.00  0.00    +0.000 C 
BRANCH  22  26
ATOM     23  C   UNL     1       4.135   5.555  18.508  0.00  0.00    +0.000 A 
ATOM     24  C   UNL     1       3.088   5.758  19.424  0.00  0.00    +0.000 A 
ATOM     25  C   UNL     1       2.246   6.869  19.326  0.00  0.00    +0.000 A 
ATOM     26  C   UNL     1       2.455   7.817  18.326  0.00  0.00    +0.000 A 
ATOM     27  C   UNL     1       3.553   7.658  17.471  0.00  0.00    +0.000 A 
ATOM     28  C   UNL     1       4.403   6.544  17.550  0.00  0.00    +0.000 A 
BRANCH  23  30
ATOM     29  C   UNL     1       4.243   3.238  18.063  0.00  0.00    +0.000 C 
ATOM     30  O   UNL     1       4.896   4.415  18.540  0.00  0.00    +0.000 OA
ENDBRANCH  23  30
BRANCH  28  31
ATOM     31  O   UNL     1       5.386   6.594  16.598  0.00  0.00    +0.000 OA
ATOM     32  C   UNL     1       5.271   5.799  15.432  0.00  0.00    +0.000 C 
ENDBRANCH  28  31
ENDBRANCH  22  26
ENDBRANCH   1  22
TORSDOF 6
ENDMDL
MODEL 8
REMARK VINA RESULT:      -7.4      3.017      5.196
REMARK  Name = 
REMARK  8 active torsions:
REMARK  status: ('A' for Active; 'I' for Inactive)
REMARK    1  A    between atoms: C_1  and  O_2
REMARK    2  A    between atoms: O_2  and  C_3
REMARK    3  A    between atoms: C_6  and  C_7
REMARK    4  A    between atoms: C_7  and  N_8
REMARK    5  A    between atoms: C_11  and  C_12
REMARK    6  A    between atoms: N_17  and  C_18
REMARK    7  A    between atoms: C_30  and  O_31
REMARK    8  A    between atoms: O_31  and  C_32
REMARK                            x       y       z     vdW  Elec       q    Type
REMARK                         _______ _______ _______ _____ _____    ______ ____
ROOT
ATOM      1  N   UNL     1       1.450   8.493  18.707  0.00  0.00    +0.000 NA
ATOM      2  C   UNL     1       1.529   8.662  20.168  0.00  0.00    +0.000 C 
ATOM      3  C   UNL     1       0.227   9.174  20.784  0.00  0.00    +0.000 C 
ATOM      4  C   UNL     1      -0.300  10.446  20.116  0.00  0.00    +0.000 C 
ATOM      5  C   UNL     1      -0.386  10.205  18.606  0.00  0.00    +0.000 C 
ATOM      6  C   UNL     1       0.941   9.699  18.034  0.00  0.00    +0.000 C 
ENDROOT
BRANCH   4   7
ATOM      7  C   UNL     1       0.552  11.691  20.415  0.00  0.00    +0.000 C 
ATOM      8  O   UNL     1       1.539  11.964  19.728  0.00  0.00    +0.000 OA
ATOM      9  N   UNL     1       0.120  12.552  21.409  0.00  0.00    +0.000 N 
ATOM     10  C   UNL     1       0.699  13.904  21.501  0.00  0.00    +0.000 C 
ATOM     11  C   UNL     1      -0.418  14.963  21.428  0.00  0.00    +0.000 C 
ATOM     12  N   UNL     1      -1.481  14.687  22.417  0.00  0.00    +0.000 N 
ATOM     13  C   UNL     1      -2.015  13.315  22.433  0.00  0.00    +0.000 C 
ATOM     14  C   UNL     1      -0.871  12.281  22.452  0.00  0.00    +0.000 C 
BRANCH  12  15
ATOM     15  C   UNL     1      -1.785  15.569  23.441  0.00  0.00    +0.000 A 
ATOM     16  C   UNL     1      -0.859  15.797  24.475  0.00  0.00    +0.000 A 
ATOM     17  C   UNL     1      -1.134  16.662  25.542  0.00  0.00    +0.000 A 
ATOM     18  C   UNL     1      -2.352  17.327  25.604  0.00  0.00    +0.000 A 
ATOM     19  C   UNL     1      -3.288  17.131  24.594  0.00  0.00    +0.000 A 
ATOM     20  C   UNL     1      -3.005  16.266  23.536  0.00  0.00    +0.000 A 
ATOM     21  F   UNL     1      -3.929  16.150  22.569  0.00  0.00    +0.000 F 
ENDBRANCH  12  15
ENDBRANCH   4   7
BRANCH   1  22
ATOM     22  C   UNL     1       2.798   8.200  18.167  0.00  0.00    +0.000 C 
BRANCH  22  26
ATOM     23  C   UNL     1       3.713   4.013  17.555  0.00  0.00    +0.000 A 
ATOM     24  C   UNL     1       2.460   4.408  18.057  0.00  0.00    +0.000 A 
ATOM     25  C   UNL     1       2.163   5.754  18.282  0.00  0.00    +0.000 A 
ATOM     26  C   UNL     1       3.126   6.732  18.039  0.00  0.00    +0.000 A 
ATOM     27  C   UNL     1       4.401   6.327  17.623  0.00  0.00    +0.000 A 
ATOM     28  C   UNL     1       4.714   4.980  17.384  0.00  0.00    +0.000 A 
BRANCH  23  30
ATOM     29  C   UNL     1       3.515   1.746  18.192  0.00  0.00    +0.000 C 
ATOM     30  O   UNL     1       3.970   2.704  17.235  0.00  0.00    +0.000 OA
ENDBRANCH  23  30
BRANCH  28  31
ATOM     31  O   UNL     1       6.007   4.833  16.962  0.00  0.00    +0.000 OA
ATOM     32  C   UNL     1       7.057   4.816  17.913  0.00  0.00    +0.000 C 
ENDBRANCH  28  31
ENDBRANCH  22  26
ENDBRANCH   1  22
TORSDOF 6
ENDMDL
MODEL 9
REMARK VINA RESULT:      -7.4      2.916      5.208
REMARK  Name = 
REMARK  8 active torsions:
REMARK  status: ('A' for Active; 'I' for Inactive)
REMARK    1  A    between atoms: C_1  and  O_2
REMARK    2  A    between atoms: O_2  and  C_3
REMARK    3  A    between atoms: C_6  and  C_7
REMARK    4  A    between atoms: C_7  and  N_8
REMARK    5  A    between atoms: C_11  and  C_12
REMARK    6  A    between atoms: N_17  and  C_18
REMARK    7  A    between atoms: C_30  and  O_31
REMARK    8  A    between atoms: O_31  and  C_32
REMARK                            x       y       z     vdW  Elec       q    Type
REMARK                         _______ _______ _______ _____ _____    ______ ____
ROOT
ATOM      1  N   UNL     1       1.284   8.696  18.859  0.00  0.00    +0.000 NA
ATOM      2  C   UNL     1       1.463   8.736  20.320  0.00  0.00    +0.000 C 
ATOM      3  C   UNL     1       0.179   9.083  21.072  0.00  0.00    +0.000 C 
ATOM      4  C   UNL     1      -0.489  10.366  20.571  0.00  0.00    +0.000 C 
ATOM      5  C   UNL     1      -0.674  10.259  19.055  0.00  0.00    +0.000 C 
ATOM      6  C   UNL     1       0.638   9.916  18.344  0.00  0.00    +0.000 C 
ENDROOT
BRANCH   4   7
ATOM      7  C   UNL     1       0.292  11.641  20.931  0.00  0.00    +0.000 C 
ATOM      8  O   UNL     1       1.369  11.899  20.389  0.00  0.00    +0.000 OA
ATOM      9  N   UNL     1      -0.298  12.543  21.801  0.00  0.00    +0.000 N 
ATOM     10  C   UNL     1       0.243  13.908  21.908  0.00  0.00    +0.000 C 
ATOM     11  C   UNL     1      -0.863  14.940  21.609  0.00  0.00    +0.000 C 
ATOM     12  N   UNL     1      -2.062  14.693  22.437  0.00  0.00    +0.000 N 
ATOM     13  C   UNL     1      -2.575  13.313  22.443  0.00  0.00    +0.000 C 
ATOM     14  C   UNL     1      -1.435  12.304  22.692  0.00  0.00    +0.000 C 
BRANCH  12  15
ATOM     15  C   UNL     1      -2.531  15.619  23.354  0.00  0.00    +0.000 A 
ATOM     16  C   UNL     1      -3.656  16.406  23.049  0.00  0.00    +0.000 A 
ATOM     17  C   UNL     1      -4.150  17.371  23.936  0.00  0.00    +0.000 A 
ATOM     18  C   UNL     1      -3.528  17.576  25.161  0.00  0.00    +0.000 A 
ATOM     19  C   UNL     1      -2.417  16.810  25.498  0.00  0.00    +0.000 A 
ATOM     20  C   UNL     1      -1.932  15.852  24.606  0.00  0.00    +0.000 A 
ATOM     21  F   UNL     1      -0.883  15.114  25.004  0.00  0.00    +0.000 F 
ENDBRANCH  12  15
ENDBRANCH   4   7
BRANCH   1  22
ATOM     22  C   UNL     1       2.604   8.564  18.199  0.00  0.00    +0.000 C 
BRANCH  22  26
ATOM     23  C   UNL     1       3.918   4.493  17.525  0.00  0.00    +0.000 A 
ATOM     24  C   UNL     1       2.814   4.763  18.354  0.00  0.00    +0.000 A 
ATOM     25  C   UNL     1       2.397   6.074  18.598  0.00  0.00    +0.000 A 
ATOM     26  C   UNL     1       3.095   7.144  18.043  0.00  0.00    +0.000 A 
ATOM     27  C   UNL     1       4.247   6.875  17.291  0.00  0.00    +0.000 A 
ATOM     28  C   UNL     1       4.675   5.564  17.029  0.00  0.00    +0.000 A 
BRANCH  23  30
ATOM     29  C   UNL     1       3.414   2.195  17.741  0.00  0.00    +0.000 C 
ATOM     30  O   UNL     1       4.265   3.207  17.200  0.00  0.00    +0.000 OA
ENDBRANCH  23  30
BRANCH  28  31
ATOM     31  O   UNL     1       5.803   5.551  16.254  0.00  0.00    +0.000 OA
ATOM     32  C   UNL     1       7.062   5.307  16.856  0.00  0.00    +0.000 C 
ENDBRANCH  28  31
ENDBRANCH  22  26
ENDBRANCH   1  22
TORSDOF 6
ENDMDL
