MODEL 1
REMARK VINA RESULT:      -7.6      0.000      0.000
REMARK  Name = 
REMARK  5 active torsions:
REMARK  status: ('A' for Active; 'I' for Inactive)
REMARK    1  A    between atoms: C_1  and  C_2
REMARK    2  A    between atoms: N_4  and  C_5
REMARK    3  A    between atoms: C_9  and  C_10
REMARK    4  A    between atoms: C_13  and  C_14
REMARK    5  A    between atoms: C_14  and  C_15
REMARK                            x       y       z     vdW  Elec       q    Type
REMARK                         _______ _______ _______ _____ _____    ______ ____
ROOT
ATOM      1  C   UNL     1       0.504   3.586  20.514  0.00  0.00    +0.000 C 
ATOM      2  C   UNL     1       1.725   3.397  19.699  0.00  0.00    +0.000 A 
ATOM      3  N   UNL     1       2.293   2.183  19.557  0.00  0.00    +0.000 NA
ATOM      4  N   UNL     1       3.366   2.408  18.752  0.00  0.00    +0.000 N 
ATOM      5  C   UNL     1       4.226   1.315  18.373  0.00  0.00    +0.000 C 
ATOM      6  C   UNL     1       3.482   3.710  18.392  0.00  0.00    +0.000 A 
ATOM      7  C   UNL     1       2.444   4.371  18.986  0.00  0.00    +0.000 A 
ATOM      8  N   UNL     1       2.214   5.755  18.865  0.00  0.00    +0.000 NA
ATOM      9  C   UNL     1       3.084   6.378  18.110  0.00  0.00    +0.000 A 
ATOM     10  C   UNL     1       2.999   7.857  17.891  0.00  0.00    +0.000 C 
ATOM     11  N   UNL     1       4.170   5.752  17.458  0.00  0.00    +0.000 N 
ATOM     12  C   UNL     1       5.170   6.235  16.650  0.00  0.00    +0.000 A 
ATOM     13  C   UNL     1       5.974   5.144  16.355  0.00  0.00    +0.000 A 
ATOM     14  N   UNL     1       5.482   4.000  16.963  0.00  0.00    +0.000 NA
ATOM     15  C   UNL     1       4.406   4.402  17.590  0.00  0.00    +0.000 A 
ENDROOT
BRANCH  13  16
ATOM     16  C   UNL     1       7.258   5.122  15.597  0.00  0.00    +0.000 C 
BRANCH  16  17
ATOM     17  C   UNL     1       6.944   4.690  14.185  0.00  0.00    +0.000 A 
ATOM     18  C   UNL     1       7.717   5.139  13.103  0.00  0.00    +0.000 A 
ATOM     19  C   UNL     1       7.460   4.682  11.809  0.00  0.00    +0.000 A 
ATOM     20  C   UNL     1       6.428   3.774  11.580  0.00  0.00    +0.000 A 
ATOM     21  C   UNL     1       5.643   3.332  12.643  0.00  0.00    +0.000 A 
ATOM     22  C   UNL     1       5.895   3.791  13.937  0.00  0.00    +0.000 A 
ENDBRANCH  16  17
ENDBRANCH  13  16
TORSDOF 2
ENDMDL
MODEL 2
REMARK VINA RESULT:      -7.4      0.212      1.050
REMARK  Name = 
REMARK  5 active torsions:
REMARK  status: ('A' for Active; 'I' for Inactive)
REMARK    1  A    between atoms: C_1  and  C_2
REMARK    2  A    between atoms: N_4  and  C_5
REMARK    3  A    between atoms: C_9  and  C_10
REMARK    4  A    between atoms: C_13  and  C_14
REMARK    5  A    between atoms: C_14  and  C_15
REMARK                            x       y       z     vdW  Elec       q    Type
REMARK                         _______ _______ _______ _____ _____    ______ ____
ROOT
ATOM      1  C   UNL     1       0.522   3.289  20.595  0.00  0.00    +0.000 C 
ATOM      2  C   UNL     1       1.729   3.192  19.743  0.00  0.00    +0.000 A 
ATOM      3  N   UNL     1       2.339   2.010  19.523  0.00  0.00    +0.000 NA
ATOM      4  N   UNL     1       3.383   2.320  18.707  0.00  0.00    +0.000 N 
ATOM      5  C   UNL     1       4.274   1.283  18.249  0.00  0.00    +0.000 C 
ATOM      6  C   UNL     1       3.441   3.643  18.417  0.00  0.00    +0.000 A 
ATOM      7  C   UNL     1       2.394   4.230  19.071  0.00  0.00    +0.000 A 
ATOM      8  N   UNL     1       2.110   5.608  19.031  0.00  0.00    +0.000 NA
ATOM      9  C   UNL     1       2.938   6.304  18.293  0.00  0.00    +0.000 A 
ATOM     10  C   UNL     1       2.792   7.790  18.158  0.00  0.00    +0.000 C 
ATOM     11  N   UNL     1       4.031   5.758  17.583  0.00  0.00    +0.000 N 
ATOM     12  C   UNL     1       4.992   6.322  16.781  0.00  0.00    +0.000 A 
ATOM     13  C   UNL     1       5.829   5.281  16.409  0.00  0.00    +0.000 A 
ATOM     14  N   UNL     1       5.394   4.087  16.963  0.00  0.00    +0.000 NA
ATOM     15  C   UNL     1       4.319   4.412  17.635  0.00  0.00    +0.000 A 
ENDROOT
BRANCH  13  16
ATOM     16  C   UNL     1       7.093   5.349  15.623  0.00  0.00    +0.000 C 
BRANCH  16  17
ATOM     17  C   UNL     1       6.827   4.717  14.279  0.00  0.00    +0.000 A 
ATOM     18  C   UNL     1       5.755   3.829  14.097  0.00  0.00    +0.000 A 
ATOM     19  C   UNL     1       5.477   3.301  12.834  0.00  0.00    +0.000 A 
ATOM     20  C   UNL     1       6.268   3.651  11.741  0.00  0.00    +0.000 A 
ATOM     21  C   UNL     1       7.343   4.520  11.910  0.00  0.00    +0.000 A 
ATOM     22  C   UNL     1       7.626   5.045  13.172  0.00  0.00    +0.000 A 
ENDBRANCH  16  17
ENDBRANCH  13  16
TORSDOF 2
ENDMDL
MODEL 3
REMARK VINA RESULT:      -7.2      1.063      1.526
REMARK  Name = 
REMARK  5 active torsions:
REMARK  status: ('A' for Active; 'I' for Inactive)
REMARK    1  A    between atoms: C_1  and  C_2
REMARK    2  A    between atoms: N_4  and  C_5
REMARK    3  A    between atoms: C_9  and  C_10
REMARK    4  A    between atoms: C_13  and  C_14
REMARK    5  A    between atoms: C_14  and  C_15
REMARK                            x       y       z     vdW  Elec       q    Type
REMARK                         _______ _______ _______ _____ _____    ______ ____
ROOT
ATOM      1  C   UNL     1       1.450   4.228  20.840  0.00  0.00    +0.000 C 
ATOM      2  C   UNL     1       2.342   3.814  19.734  0.00  0.00    +0.000 A 
ATOM      3  N   UNL     1       2.630   2.516  19.513  0.00  0.00    +0.000 NA
ATOM      4  N   UNL     1       3.457   2.536  18.433  0.00  0.00    +0.000 N 
ATOM      5  C   UNL     1       3.975   1.301  17.897  0.00  0.00    +0.000 C 
ATOM      6  C   UNL     1       3.691   3.792  17.980  0.00  0.00    +0.000 A 
ATOM      7  C   UNL     1       2.991   4.635  18.797  0.00  0.00    +0.000 A 
ATOM      8  N   UNL     1       2.979   6.037  18.663  0.00  0.00    +0.000 NA
ATOM      9  C   UNL     1       3.698   6.485  17.664  0.00  0.00    +0.000 A 
ATOM     10  C   UNL     1       3.811   7.954  17.391  0.00  0.00    +0.000 C 
ATOM     11  N   UNL     1       4.433   5.668  16.777  0.00  0.00    +0.000 N 
ATOM     12  C   UNL     1       5.235   5.954  15.700  0.00  0.00    +0.000 A 
ATOM     13  C   UNL     1       5.723   4.733  15.260  0.00  0.00    +0.000 A 
ATOM     14  N   UNL     1       5.230   3.702  16.045  0.00  0.00    +0.000 NA
ATOM     15  C   UNL     1       4.459   4.298  16.918  0.00  0.00    +0.000 A 
ENDROOT
BRANCH  13  16
ATOM     16  C   UNL     1       6.720   4.472  14.183  0.00  0.00    +0.000 C 
BRANCH  16  17
ATOM     17  C   UNL     1       6.015   3.711  13.087  0.00  0.00    +0.000 A 
ATOM     18  C   UNL     1       4.743   4.102  12.638  0.00  0.00    +0.000 A 
ATOM     19  C   UNL     1       4.127   3.433  11.578  0.00  0.00    +0.000 A 
ATOM     20  C   UNL     1       4.773   2.365  10.957  0.00  0.00    +0.000 A 
ATOM     21  C   UNL     1       6.028   1.958  11.401  0.00  0.00    +0.000 A 
ATOM     22  C   UNL     1       6.644   2.622  12.464  0.00  0.00    +0.000 A 
ENDBRANCH  16  17
ENDBRANCH  13  16
TORSDOF 2
ENDMDL
MODEL 4
REMARK VINA RESULT:      -7.2      0.849      1.047
REMARK  Name = 
REMARK  5 active torsions:
REMARK  status: ('A' for Active; 'I' for Inactive)
REMARK    1  A    between atoms: C_1  and  C_2
REMARK    2  A    between atoms: N_4  and  C_5
REMARK    3  A    between atoms: C_9  and  C_10
REMARK    4  A    between atoms: C_13  and  C_14
REMARK    5  A    between atoms: C_14  and  C_15
REMARK                            x       y       z     vdW  Elec       q    Type
REMARK                         _______ _______ _______ _____ _____    ______ ____
ROOT
ATOM      1  C   UNL     1       1.316   3.958  20.943  0.00  0.00    +0.000 C 
ATOM      2  C   UNL     1       2.306   3.610  19.900  0.00  0.00    +0.000 A 
ATOM      3  N   UNL     1       2.703   2.336  19.706  0.00  0.00    +0.000 NA
ATOM      4  N   UNL     1       3.594   2.416  18.681  0.00  0.00    +0.000 N 
ATOM      5  C   UNL     1       4.236   1.223  18.187  0.00  0.00    +0.000 C 
ATOM      6  C   UNL     1       3.763   3.686  18.237  0.00  0.00    +0.000 A 
ATOM      7  C   UNL     1       2.951   4.476  19.002  0.00  0.00    +0.000 A 
ATOM      8  N   UNL     1       2.844   5.872  18.859  0.00  0.00    +0.000 NA
ATOM      9  C   UNL     1       3.591   6.371  17.905  0.00  0.00    +0.000 A 
ATOM     10  C   UNL     1       3.613   7.845  17.631  0.00  0.00    +0.000 C 
ATOM     11  N   UNL     1       4.441   5.610  17.072  0.00  0.00    +0.000 N 
ATOM     12  C   UNL     1       5.287   5.954  16.047  0.00  0.00    +0.000 A 
ATOM     13  C   UNL     1       5.892   4.772  15.647  0.00  0.00    +0.000 A 
ATOM     14  N   UNL     1       5.427   3.708  16.405  0.00  0.00    +0.000 NA
ATOM     15  C   UNL     1       4.559   4.246  17.223  0.00  0.00    +0.000 A 
ENDROOT
BRANCH  13  16
ATOM     16  C   UNL     1       6.973   4.584  14.638  0.00  0.00    +0.000 C 
BRANCH  16  17
ATOM     17  C   UNL     1       6.356   3.920  13.431  0.00  0.00    +0.000 A 
ATOM     18  C   UNL     1       7.148   3.218  12.508  0.00  0.00    +0.000 A 
ATOM     19  C   UNL     1       6.561   2.551  11.431  0.00  0.00    +0.000 A 
ATOM     20  C   UNL     1       5.178   2.579  11.262  0.00  0.00    +0.000 A 
ATOM     21  C   UNL     1       4.381   3.283  12.162  0.00  0.00    +0.000 A 
ATOM     22  C   UNL     1       4.967   3.955  13.237  0.00  0.00    +0.000 A 
ENDBRANCH  16  17
ENDBRANCH  13  16
TORSDOF 2
ENDMDL
MODEL 5
REMARK VINA RESULT:      -7.0      3.066      6.482
REMARK  Name = 
REMARK  5 active torsions:
REMARK  status: ('A' for Active; 'I' for Inactive)
REMARK    1  A    between atoms: C_1  and  C_2
REMARK    2  A    between atoms: N_4  and  C_5
REMARK    3  A    between atoms: C_9  and  C_10
REMARK    4  A    between atoms: C_13  and  C_14
REMARK    5  A    between atoms: C_14  and  C_15
REMARK                            x       y       z     vdW  Elec       q    Type
REMARK                         _______ _______ _______ _____ _____    ______ ____
ROOT
ATOM      1  C   UNL     1       4.968   1.282  20.496  0.00  0.00    +0.000 C 
ATOM      2  C   UNL     1       4.071   2.417  20.181  0.00  0.00    +0.000 A 
ATOM      3  N   UNL     1       2.769   2.400  20.531  0.00  0.00    +0.000 NA
ATOM      4  N   UNL     1       2.289   3.592  20.085  0.00  0.00    +0.000 N 
ATOM      5  C   UNL     1       0.903   3.934  20.290  0.00  0.00    +0.000 C 
ATOM      6  C   UNL     1       3.240   4.341  19.475  0.00  0.00    +0.000 A 
ATOM      7  C   UNL     1       4.395   3.612  19.519  0.00  0.00    +0.000 A 
ATOM      8  N   UNL     1       5.622   4.041  18.979  0.00  0.00    +0.000 NA
ATOM      9  C   UNL     1       5.577   5.229  18.427  0.00  0.00    +0.000 A 
ATOM     10  C   UNL     1       6.791   5.830  17.785  0.00  0.00    +0.000 C 
ATOM     11  N   UNL     1       4.421   6.037  18.360  0.00  0.00    +0.000 N 
ATOM     12  C   UNL     1       4.187   7.280  17.824  0.00  0.00    +0.000 A 
ATOM     13  C   UNL     1       2.837   7.527  18.024  0.00  0.00    +0.000 A 
ATOM     14  N   UNL     1       2.240   6.460  18.678  0.00  0.00    +0.000 NA
ATOM     15  C   UNL     1       3.216   5.611  18.873  0.00  0.00    +0.000 A 
ENDROOT
BRANCH  13  16
ATOM     16  C   UNL     1       2.031   8.686  17.547  0.00  0.00    +0.000 C 
BRANCH  16  17
ATOM     17  C   UNL     1       1.247   9.210  18.726  0.00  0.00    +0.000 A 
ATOM     18  C   UNL     1       0.125  10.033  18.541  0.00  0.00    +0.000 A 
ATOM     19  C   UNL     1      -0.632  10.458  19.634  0.00  0.00    +0.000 A 
ATOM     20  C   UNL     1      -0.277  10.067  20.924  0.00  0.00    +0.000 A 
ATOM     21  C   UNL     1       0.842   9.263  21.124  0.00  0.00    +0.000 A 
ATOM     22  C   UNL     1       1.604   8.841  20.032  0.00  0.00    +0.000 A 
ENDBRANCH  16  17
ENDBRANCH  13  16
TORSDOF 2
ENDMDL
MODEL 6
REMARK VINA RESULT:      -6.9      3.045      5.423
REMARK  Name = 
REMARK  5 active torsions:
REMARK  status: ('A' for Active; 'I' for Inactive)
REMARK    1  A    between atoms: C_1  and  C_2
REMARK    2  A    between atoms: N_4  and  C_5
REMARK    3  A    between atoms: C_9  and  C_10
REMARK    4  A    between atoms: C_13  and  C_14
REMARK    5  A    between atoms: C_14  and  C_15
REMARK                            x       y       z     vdW  Elec       q    Type
REMARK                         _______ _______ _______ _____ _____    ______ ____
ROOT
ATOM      1  C   UNL     1      -0.679   9.548  22.743  0.00  0.00    +0.000 C 
ATOM      2  C   UNL     1       0.127   9.571  21.502  0.00  0.00    +0.000 A 
ATOM      3  N   UNL     1       0.239  10.691  20.758  0.00  0.00    +0.000 NA
ATOM      4  N   UNL     1       1.044  10.326  19.725  0.00  0.00    +0.000 N 
ATOM      5  C   UNL     1       1.395  11.288  18.709  0.00  0.00    +0.000 C 
ATOM      6  C   UNL     1       1.432   9.030  19.800  0.00  0.00    +0.000 A 
ATOM      7  C   UNL     1       0.857   8.517  20.929  0.00  0.00    +0.000 A 
ATOM      8  N   UNL     1       1.010   7.186  21.360  0.00  0.00    +0.000 NA
ATOM      9  C   UNL     1       1.774   6.457  20.585  0.00  0.00    +0.000 A 
ATOM     10  C   UNL     1       2.026   5.011  20.886  0.00  0.00    +0.000 C 
ATOM     11  N   UNL     1       2.407   6.928  19.413  0.00  0.00    +0.000 N 
ATOM     12  C   UNL     1       3.221   6.320  18.490  0.00  0.00    +0.000 A 
ATOM     13  C   UNL     1       3.488   7.285  17.531  0.00  0.00    +0.000 A 
ATOM     14  N   UNL     1       2.857   8.477  17.853  0.00  0.00    +0.000 NA
ATOM     15  C   UNL     1       2.245   8.226  18.982  0.00  0.00    +0.000 A 
ENDROOT
BRANCH  13  16
ATOM     16  C   UNL     1       4.239   7.134  16.252  0.00  0.00    +0.000 C 
BRANCH  16  17
ATOM     17  C   UNL     1       5.443   6.268  16.533  0.00  0.00    +0.000 A 
ATOM     18  C   UNL     1       6.437   6.682  17.434  0.00  0.00    +0.000 A 
ATOM     19  C   UNL     1       7.513   5.845  17.737  0.00  0.00    +0.000 A 
ATOM     20  C   UNL     1       7.611   4.589  17.142  0.00  0.00    +0.000 A 
ATOM     21  C   UNL     1       6.640   4.172  16.235  0.00  0.00    +0.000 A 
ATOM     22  C   UNL     1       5.565   5.009  15.927  0.00  0.00    +0.000 A 
ENDBRANCH  16  17
ENDBRANCH  13  16
TORSDOF 2
ENDMDL
MODEL 7
REMARK VINA RESULT:      -6.8      3.046      5.427
REMARK  Name = 
REMARK  5 active torsions:
REMARK  status: ('A' for Active; 'I' for Inactive)
REMARK    1  A    between atoms: C_1  and  C_2
REMARK    2  A    between atoms: N_4  and  C_5
REMARK    3  A    between atoms: C_9  and  C_10
REMARK    4  A    between atoms: C_13  and  C_14
REMARK    5  A    between atoms: C_14  and  C_15
REMARK                            x       y       z     vdW  Elec       q    Type
REMARK                         _______ _______ _______ _____ _____    ______ ____
ROOT
ATOM      1  C   UNL     1      -0.767   9.357  22.855  0.00  0.00    +0.000 C 
ATOM      2  C   UNL     1       0.045   9.421  21.619  0.00  0.00    +0.000 A 
ATOM      3  N   UNL     1       0.146  10.560  20.904  0.00  0.00    +0.000 NA
ATOM      4  N   UNL     1       0.962  10.231  19.867  0.00  0.00    +0.000 N 
ATOM      5  C   UNL     1       1.306  11.222  18.877  0.00  0.00    +0.000 C 
ATOM      6  C   UNL     1       1.367   8.939  19.913  0.00  0.00    +0.000 A 
ATOM      7  C   UNL     1       0.792   8.391  21.026  0.00  0.00    +0.000 A 
ATOM      8  N   UNL     1       0.961   7.052  21.425  0.00  0.00    +0.000 NA
ATOM      9  C   UNL     1       1.740   6.352  20.638  0.00  0.00    +0.000 A 
ATOM     10  C   UNL     1       2.010   4.903  20.906  0.00  0.00    +0.000 C 
ATOM     11  N   UNL     1       2.373   6.860  19.482  0.00  0.00    +0.000 N 
ATOM     12  C   UNL     1       3.201   6.286  18.549  0.00  0.00    +0.000 A 
ATOM     13  C   UNL     1       3.460   7.278  17.615  0.00  0.00    +0.000 A 
ATOM     14  N   UNL     1       2.811   8.453  17.962  0.00  0.00    +0.000 NA
ATOM     15  C   UNL     1       2.195   8.166  19.081  0.00  0.00    +0.000 A 
ENDROOT
BRANCH  13  16
ATOM     16  C   UNL     1       4.221   7.167  16.338  0.00  0.00    +0.000 C 
BRANCH  16  17
ATOM     17  C   UNL     1       5.369   6.217  16.574  0.00  0.00    +0.000 A 
ATOM     18  C   UNL     1       5.468   5.012  15.861  0.00  0.00    +0.000 A 
ATOM     19  C   UNL     1       6.569   4.170  16.038  0.00  0.00    +0.000 A 
ATOM     20  C   UNL     1       7.580   4.522  16.930  0.00  0.00    +0.000 A 
ATOM     21  C   UNL     1       7.488   5.708  17.655  0.00  0.00    +0.000 A 
ATOM     22  C   UNL     1       6.386   6.548  17.483  0.00  0.00    +0.000 A 
ENDBRANCH  16  17
ENDBRANCH  13  16
TORSDOF 2
ENDMDL
MODEL 8
REMARK VINA RESULT:      -6.8      5.564      8.681
REMARK  Name = 
REMARK  5 active torsions:
REMARK  status: ('A' for Active; 'I' for Inactive)
REMARK    1  A    between atoms: C_1  and  C_2
REMARK    2  A    between atoms: N_4  and  C_5
REMARK    3  A    between atoms: C_9  and  C_10
REMARK    4  A    between atoms: C_13  and  C_14
REMARK    5  A    between atoms: C_14  and  C_15
REMARK                            x       y       z     vdW  Elec       q    Type
REMARK                         _______ _______ _______ _____ _____    ______ ____
ROOT
ATOM      1  C   UNL     1      -5.321  12.534  18.916  0.00  0.00    +0.000 C 
ATOM      2  C   UNL     1      -4.163  11.788  18.373  0.00  0.00    +0.000 A 
ATOM      3  N   UNL     1      -4.236  11.139  17.194  0.00  0.00    +0.000 NA
ATOM      4  N   UNL     1      -3.001  10.592  17.036  0.00  0.00    +0.000 N 
ATOM      5  C   UNL     1      -2.701   9.812  15.861  0.00  0.00    +0.000 C 
ATOM      6  C   UNL     1      -2.171  10.876  18.069  0.00  0.00    +0.000 A 
ATOM      7  C   UNL     1      -2.889  11.641  18.945  0.00  0.00    +0.000 A 
ATOM      8  N   UNL     1      -2.382  12.138  20.161  0.00  0.00    +0.000 NA
ATOM      9  C   UNL     1      -1.133  11.815  20.392  0.00  0.00    +0.000 A 
ATOM     10  C   UNL     1      -0.444  12.245  21.651  0.00  0.00    +0.000 C 
ATOM     11  N   UNL     1      -0.333  11.040  19.524  0.00  0.00    +0.000 N 
ATOM     12  C   UNL     1       0.966  10.603  19.602  0.00  0.00    +0.000 A 
ATOM     13  C   UNL     1       1.173   9.836  18.465  0.00  0.00    +0.000 A 
ATOM     14  N   UNL     1       0.025   9.800  17.688  0.00  0.00    +0.000 NA
ATOM     15  C   UNL     1      -0.834  10.539  18.343  0.00  0.00    +0.000 A 
ENDROOT
BRANCH  13  16
ATOM     16  C   UNL     1       2.377   9.038  18.096  0.00  0.00    +0.000 C 
BRANCH  16  17
ATOM     17  C   UNL     1       2.215   7.665  18.699  0.00  0.00    +0.000 A 
ATOM     18  C   UNL     1       2.415   6.508  17.929  0.00  0.00    +0.000 A 
ATOM     19  C   UNL     1       2.328   5.243  18.512  0.00  0.00    +0.000 A 
ATOM     20  C   UNL     1       2.038   5.118  19.870  0.00  0.00    +0.000 A 
ATOM     21  C   UNL     1       1.823   6.256  20.643  0.00  0.00    +0.000 A 
ATOM     22  C   UNL     1       1.905   7.523  20.060  0.00  0.00    +0.000 A 
ENDBRANCH  16  17
ENDBRANCH  13  16
TORSDOF 2
ENDMDL
MODEL 9
REMARK VINA RESULT:      -6.8      5.602      8.742
REMARK  Name = 
REMARK  5 active torsions:
REMARK  status: ('A' for Active; 'I' for Inactive)
REMARK    1  A    between atoms: C_1  and  C_2
REMARK    2  A    between atoms: N_4  and  C_5
REMARK    3  A    between atoms: C_9  and  C_10
REMARK    4  A    between atoms: C_13  and  C_14
REMARK    5  A    between atoms: C_14  and  C_15
REMARK                            x       y       z     vdW  Elec       q    Type
REMARK                         _______ _______ _______ _____ _____    ______ ____
ROOT
ATOM      1  C   UNL     1      -5.287  12.614  19.259  0.00  0.00    +0.000 C 
ATOM      2  C   UNL     1      -4.172  11.848  18.658  0.00  0.00    +0.000 A 
ATOM      3  N   UNL     1      -4.330  11.167  17.505  0.00  0.00    +0.000 NA
ATOM      4  N   UNL     1      -3.111  10.609  17.277  0.00  0.00    +0.000 N 
ATOM      5  C   UNL     1      -2.896   9.796  16.106  0.00  0.00    +0.000 C 
ATOM      6  C   UNL     1      -2.209  10.917  18.241  0.00  0.00    +0.000 A 
ATOM      7  C   UNL     1      -2.862  11.710  19.144  0.00  0.00    +0.000 A 
ATOM      8  N   UNL     1      -2.270  12.238  20.307  0.00  0.00    +0.000 NA
ATOM      9  C   UNL     1      -1.009  11.915  20.459  0.00  0.00    +0.000 A 
ATOM     10  C   UNL     1      -0.231  12.377  21.654  0.00  0.00    +0.000 C 
ATOM     11  N   UNL     1      -0.274  11.112  19.558  0.00  0.00    +0.000 N 
ATOM     12  C   UNL     1       1.026  10.671  19.558  0.00  0.00    +0.000 A 
ATOM     13  C   UNL     1       1.151   9.872  18.431  0.00  0.00    +0.000 A 
ATOM     14  N   UNL     1      -0.049   9.820  17.737  0.00  0.00    +0.000 NA
ATOM     15  C   UNL     1      -0.857  10.582  18.430  0.00  0.00    +0.000 A 
ENDROOT
BRANCH  13  16
ATOM     16  C   UNL     1       2.324   9.059  18.001  0.00  0.00    +0.000 C 
BRANCH  16  17
ATOM     17  C   UNL     1       2.247   7.734  18.719  0.00  0.00    +0.000 A 
ATOM     18  C   UNL     1       1.880   7.666  20.073  0.00  0.00    +0.000 A 
ATOM     19  C   UNL     1       1.747   6.431  20.711  0.00  0.00    +0.000 A 
ATOM     20  C   UNL     1       1.980   5.251  20.006  0.00  0.00    +0.000 A 
ATOM     21  C   UNL     1       2.359   5.305  18.667  0.00  0.00    +0.000 A 
ATOM     22  C   UNL     1       2.497   6.539  18.028  0.00  0.00    +0.000 A 
ENDBRANCH  16  17
ENDBRANCH  13  16
TORSDOF 2
ENDMDL
