MODEL 1
REMARK VINA RESULT:      -7.6      0.000      0.000
REMARK  Name = 
REMARK  7 active torsions:
REMARK  status: ('A' for Active; 'I' for Inactive)
REMARK    1  A    between atoms: C_1  and  O_2
REMARK    2  A    between atoms: O_2  and  C_3
REMARK    3  A    between atoms: C_6  and  C_7
REMARK    4  A    between atoms: C_7  and  C_8
REMARK    5  A    between atoms: C_7  and  C_10
REMARK    6  A    between atoms: C_8  and  N_9
REMARK    7  A    between atoms: C_10  and  O_11
REMARK                            x       y       z     vdW  Elec       q    Type
REMARK                         _______ _______ _______ _____ _____    ______ ____
ROOT
ATOM      1  C   UNL     1       3.956   3.142  18.359  0.00  0.00    +0.000 C 
ENDROOT
BRANCH   1   5
ATOM      2  C   UNL     1       6.923   6.090  16.942  0.00  0.00    +0.000 A 
ATOM      3  C   UNL     1       6.744   5.846  18.294  0.00  0.00    +0.000 A 
ATOM      4  C   UNL     1       5.847   4.864  18.725  0.00  0.00    +0.000 A 
ATOM      5  C   UNL     1       5.047   4.124  17.835  0.00  0.00    +0.000 A 
ATOM      6  C   UNL     1       5.319   4.336  16.471  0.00  0.00    +0.000 A 
ATOM      7  C   UNL     1       6.232   5.306  16.026  0.00  0.00    +0.000 A 
BRANCH   2   9
ATOM      8  C   UNL     1       7.845   8.158  17.626  0.00  0.00    +0.000 C 
ATOM      9  O   UNL     1       7.756   7.132  16.650  0.00  0.00    +0.000 OA
ENDBRANCH   2   9
ENDBRANCH   1   5
BRANCH   1  10
ATOM     10  C   UNL     1       2.439   3.669  18.229  0.00  0.00    +0.000 C 
ATOM     11  C   UNL     1       1.401   3.023  19.185  0.00  0.00    +0.000 C 
ATOM     12  C   UNL     1       1.247   3.613  20.584  0.00  0.00    +0.000 C 
ATOM     13  C   UNL     1       1.275   5.136  20.629  0.00  0.00    +0.000 C 
ATOM     14  C   UNL     1       2.287   5.787  19.698  0.00  0.00    +0.000 C 
ATOM     15  C   UNL     1       2.279   5.204  18.296  0.00  0.00    +0.000 C 
BRANCH  10  16
ATOM     16  O   UNL     1       1.939   3.257  16.928  0.00  0.00    +0.000 OA
ATOM     17  H   UNL     1       0.970   3.354  16.933  0.00  0.00    +0.000 HD
ENDBRANCH  10  16
ENDBRANCH   1  10
BRANCH   1  18
ATOM     18  C   UNL     1       4.273   2.664  19.814  0.00  0.00    +0.000 C 
BRANCH  18  19
ATOM     19  N   UNL     1       5.151   1.493  19.965  0.00  0.00    +0.000 NA
ATOM     20  H   UNL     1       6.127   1.773  19.948  0.00  0.00    +0.000 HD
ATOM     21  H   UNL     1       5.005   0.864  19.174  0.00  0.00    +0.000 HD
ENDBRANCH  18  19
ENDBRANCH   1  18
TORSDOF 6
ENDMDL
MODEL 2
REMARK VINA RESULT:      -7.3      0.904      1.416
REMARK  Name = 
REMARK  7 active torsions:
REMARK  status: ('A' for Active; 'I' for Inactive)
REMARK    1  A    between atoms: C_1  and  O_2
REMARK    2  A    between atoms: O_2  and  C_3
REMARK    3  A    between atoms: C_6  and  C_7
REMARK    4  A    between atoms: C_7  and  C_8
REMARK    5  A    between atoms: C_7  and  C_10
REMARK    6  A    between atoms: C_8  and  N_9
REMARK    7  A    between atoms: C_10  and  O_11
REMARK                            x       y       z     vdW  Elec       q    Type
REMARK                         _______ _______ _______ _____ _____    ______ ____
ROOT
ATOM      1  C   UNL     1       3.512   3.245  17.895  0.00  0.00    +0.000 C 
ENDROOT
BRANCH   1   5
ATOM      2  C   UNL     1       6.688   6.241  17.225  0.00  0.00    +0.000 A 
ATOM      3  C   UNL     1       5.648   6.084  16.323  0.00  0.00    +0.000 A 
ATOM      4  C   UNL     1       4.616   5.177  16.580  0.00  0.00    +0.000 A 
ATOM      5  C   UNL     1       4.602   4.344  17.715  0.00  0.00    +0.000 A 
ATOM      6  C   UNL     1       5.625   4.593  18.649  0.00  0.00    +0.000 A 
ATOM      7  C   UNL     1       6.656   5.516  18.411  0.00  0.00    +0.000 A 
BRANCH   2   9
ATOM      8  C   UNL     1       7.895   8.234  17.630  0.00  0.00    +0.000 C 
ATOM      9  O   UNL     1       7.679   7.088  16.821  0.00  0.00    +0.000 OA
ENDBRANCH   2   9
ENDBRANCH   1   5
BRANCH   1  10
ATOM     10  C   UNL     1       2.065   3.784  18.353  0.00  0.00    +0.000 C 
ATOM     11  C   UNL     1       1.149   2.765  19.083  0.00  0.00    +0.000 C 
ATOM     12  C   UNL     1       1.316   2.601  20.591  0.00  0.00    +0.000 C 
ATOM     13  C   UNL     1       1.520   3.909  21.346  0.00  0.00    +0.000 C 
ATOM     14  C   UNL     1       2.414   4.920  20.646  0.00  0.00    +0.000 C 
ATOM     15  C   UNL     1       2.091   5.093  19.172  0.00  0.00    +0.000 C 
BRANCH  10  16
ATOM     16  O   UNL     1       1.297   4.062  17.151  0.00  0.00    +0.000 OA
ATOM     17  H   UNL     1       0.938   4.965  17.224  0.00  0.00    +0.000 HD
ENDBRANCH  10  16
ENDBRANCH   1  10
BRANCH   1  18
ATOM     18  C   UNL     1       4.015   2.093  18.826  0.00  0.00    +0.000 C 
BRANCH  18  19
ATOM     19  N   UNL     1       4.057   0.736  18.260  0.00  0.00    +0.000 NA
ATOM     20  H   UNL     1       3.967   0.767  17.249  0.00  0.00    +0.000 HD
ATOM     21  H   UNL     1       3.262   0.203  18.616  0.00  0.00    +0.000 HD
ENDBRANCH  18  19
ENDBRANCH   1  18
TORSDOF 6
ENDMDL
MODEL 3
REMARK VINA RESULT:      -7.3      2.291      3.391
REMARK  Name = 
REMARK  7 active torsions:
REMARK  status: ('A' for Active; 'I' for Inactive)
REMARK    1  A    between atoms: C_1  and  O_2
REMARK    2  A    between atoms: O_2  and  C_3
REMARK    3  A    between atoms: C_6  and  C_7
REMARK    4  A    between atoms: C_7  and  C_8
REMARK    5  A    between atoms: C_7  and  C_10
REMARK    6  A    between atoms: C_8  and  N_9
REMARK    7  A    between atoms: C_10  and  O_11
REMARK                            x       y       z     vdW  Elec       q    Type
REMARK                         _______ _______ _______ _____ _____    ______ ____
ROOT
ATOM      1  C   UNL     1       3.231   5.602  19.715  0.00  0.00    +0.000 C 
ENDROOT
BRANCH   1   5
ATOM      2  C   UNL     1       6.467   5.625  16.710  0.00  0.00    +0.000 A 
ATOM      3  C   UNL     1       5.225   6.172  16.430  0.00  0.00    +0.000 A 
ATOM      4  C   UNL     1       4.231   6.215  17.412  0.00  0.00    +0.000 A 
ATOM      5  C   UNL     1       4.408   5.665  18.696  0.00  0.00    +0.000 A 
ATOM      6  C   UNL     1       5.707   5.200  18.971  0.00  0.00    +0.000 A 
ATOM      7  C   UNL     1       6.719   5.169  17.999  0.00  0.00    +0.000 A 
BRANCH   2   9
ATOM      8  C   UNL     1       6.858   4.840  14.513  0.00  0.00    +0.000 C 
ATOM      9  O   UNL     1       7.320   5.559  15.646  0.00  0.00    +0.000 OA
ENDBRANCH   2   9
ENDBRANCH   1   5
BRANCH   1  10
ATOM     10  C   UNL     1       2.317   4.278  19.627  0.00  0.00    +0.000 C 
ATOM     11  C   UNL     1       1.785   3.900  18.219  0.00  0.00    +0.000 C 
ATOM     12  C   UNL     1       2.685   3.066  17.311  0.00  0.00    +0.000 C 
ATOM     13  C   UNL     1       3.423   1.939  18.023  0.00  0.00    +0.000 C 
ATOM     14  C   UNL     1       3.952   2.291  19.405  0.00  0.00    +0.000 C 
ATOM     15  C   UNL     1       2.939   3.019  20.271  0.00  0.00    +0.000 C 
BRANCH  10  16
ATOM     16  O   UNL     1       1.083   4.545  20.346  0.00  0.00    +0.000 OA
ATOM     17  H   UNL     1       1.189   4.221  21.259  0.00  0.00    +0.000 HD
ENDBRANCH  10  16
ENDBRANCH   1  10
BRANCH   1  18
ATOM     18  C   UNL     1       2.361   6.902  19.659  0.00  0.00    +0.000 C 
BRANCH  18  19
ATOM     19  N   UNL     1       1.847   7.426  20.933  0.00  0.00    +0.000 NA
ATOM     20  H   UNL     1       1.984   8.431  20.989  0.00  0.00    +0.000 HD
ATOM     21  H   UNL     1       2.374   7.009  21.702  0.00  0.00    +0.000 HD
ENDBRANCH  18  19
ENDBRANCH   1  18
TORSDOF 6
ENDMDL
MODEL 4
REMARK VINA RESULT:      -7.2      1.185      1.941
REMARK  Name = 
REMARK  7 active torsions:
REMARK  status: ('A' for Active; 'I' for Inactive)
REMARK    1  A    between atoms: C_1  and  O_2
REMARK    2  A    between atoms: O_2  and  C_3
REMARK    3  A    between atoms: C_6  and  C_7
REMARK    4  A    between atoms: C_7  and  C_8
REMARK    5  A    between atoms: C_7  and  C_10
REMARK    6  A    between atoms: C_8  and  N_9
REMARK    7  A    between atoms: C_10  and  O_11
REMARK                            x       y       z     vdW  Elec       q    Type
REMARK                         _______ _______ _______ _____ _____    ______ ____
ROOT
ATOM      1  C   UNL     1       3.828   3.308  18.229  0.00  0.00    +0.000 C 
ENDROOT
BRANCH   1   5
ATOM      2  C   UNL     1       6.922   5.085  15.625  0.00  0.00    +0.000 A 
ATOM      3  C   UNL     1       5.774   4.519  15.093  0.00  0.00    +0.000 A 
ATOM      4  C   UNL     1       4.774   4.018  15.932  0.00  0.00    +0.000 A 
ATOM      5  C   UNL     1       4.897   4.004  17.334  0.00  0.00    +0.000 A 
ATOM      6  C   UNL     1       6.032   4.664  17.839  0.00  0.00    +0.000 A 
ATOM      7  C   UNL     1       7.033   5.188  17.007  0.00  0.00    +0.000 A 
BRANCH   2   9
ATOM      8  C   UNL     1       7.616   5.065  13.364  0.00  0.00    +0.000 C 
ATOM      9  O   UNL     1       7.861   5.455  14.707  0.00  0.00    +0.000 OA
ENDBRANCH   2   9
ENDBRANCH   1   5
BRANCH   1  10
ATOM     10  C   UNL     1       2.387   4.028  18.261  0.00  0.00    +0.000 C 
ATOM     11  C   UNL     1       1.456   3.654  19.446  0.00  0.00    +0.000 C 
ATOM     12  C   UNL     1       1.617   4.421  20.756  0.00  0.00    +0.000 C 
ATOM     13  C   UNL     1       1.837   5.919  20.583  0.00  0.00    +0.000 C 
ATOM     14  C   UNL     1       2.747   6.304  19.426  0.00  0.00    +0.000 C 
ATOM     15  C   UNL     1       2.429   5.567  18.137  0.00  0.00    +0.000 C 
BRANCH  10  16
ATOM     16  O   UNL     1       1.625   3.540  17.123  0.00  0.00    +0.000 OA
ATOM     17  H   UNL     1       1.222   4.308  16.679  0.00  0.00    +0.000 HD
ENDBRANCH  10  16
ENDBRANCH   1  10
BRANCH   1  18
ATOM     18  C   UNL     1       4.374   3.055  19.673  0.00  0.00    +0.000 C 
BRANCH  18  19
ATOM     19  N   UNL     1       5.012   1.757  19.937  0.00  0.00    +0.000 NA
ATOM     20  H   UNL     1       4.796   1.095  19.198  0.00  0.00    +0.000 HD
ATOM     21  H   UNL     1       4.637   1.371  20.804  0.00  0.00    +0.000 HD
ENDBRANCH  18  19
ENDBRANCH   1  18
TORSDOF 6
ENDMDL
MODEL 5
REMARK VINA RESULT:      -7.1      2.222      3.045
REMARK  Name = 
REMARK  7 active torsions:
REMARK  status: ('A' for Active; 'I' for Inactive)
REMARK    1  A    between atoms: C_1  and  O_2
REMARK    2  A    between atoms: O_2  and  C_3
REMARK    3  A    between atoms: C_6  and  C_7
REMARK    4  A    between atoms: C_7  and  C_8
REMARK    5  A    between atoms: C_7  and  C_10
REMARK    6  A    between atoms: C_8  and  N_9
REMARK    7  A    between atoms: C_10  and  O_11
REMARK                            x       y       z     vdW  Elec       q    Type
REMARK                         _______ _______ _______ _____ _____    ______ ____
ROOT
ATOM      1  C   UNL     1       4.106   4.749  19.439  0.00  0.00    +0.000 C 
ENDROOT
BRANCH   1   5
ATOM      2  C   UNL     1       6.834   5.304  16.010  0.00  0.00    +0.000 A 
ATOM      3  C   UNL     1       5.506   5.695  15.941  0.00  0.00    +0.000 A 
ATOM      4  C   UNL     1       4.671   5.572  17.055  0.00  0.00    +0.000 A 
ATOM      5  C   UNL     1       5.102   5.001  18.268  0.00  0.00    +0.000 A 
ATOM      6  C   UNL     1       6.475   4.699  18.329  0.00  0.00    +0.000 A 
ATOM      7  C   UNL     1       7.328   4.837  17.223  0.00  0.00    +0.000 A 
BRANCH   2   9
ATOM      8  C   UNL     1       6.986   4.663  13.739  0.00  0.00    +0.000 C 
ATOM      9  O   UNL     1       7.522   5.390  14.834  0.00  0.00    +0.000 OA
ENDBRANCH   2   9
ENDBRANCH   1   5
BRANCH   1  10
ATOM     10  C   UNL     1       3.705   3.207  19.678  0.00  0.00    +0.000 C 
ATOM     11  C   UNL     1       2.557   2.941  20.688  0.00  0.00    +0.000 C 
ATOM     12  C   UNL     1       1.121   3.000  20.175  0.00  0.00    +0.000 C 
ATOM     13  C   UNL     1       0.914   2.353  18.812  0.00  0.00    +0.000 C 
ATOM     14  C   UNL     1       2.029   2.602  17.808  0.00  0.00    +0.000 C 
ATOM     15  C   UNL     1       3.419   2.405  18.389  0.00  0.00    +0.000 C 
BRANCH  10  16
ATOM     16  O   UNL     1       4.828   2.555  20.330  0.00  0.00    +0.000 OA
ATOM     17  H   UNL     1       5.459   2.279  19.641  0.00  0.00    +0.000 HD
ENDBRANCH  10  16
ENDBRANCH   1  10
BRANCH   1  18
ATOM     18  C   UNL     1       2.838   5.656  19.312  0.00  0.00    +0.000 C 
BRANCH  18  19
ATOM     19  N   UNL     1       2.560   6.588  20.415  0.00  0.00    +0.000 NA
ATOM     20  H   UNL     1       2.870   6.198  21.300  0.00  0.00    +0.000 HD
ATOM     21  H   UNL     1       1.551   6.728  20.487  0.00  0.00    +0.000 HD
ENDBRANCH  18  19
ENDBRANCH   1  18
TORSDOF 6
ENDMDL
MODEL 6
REMARK VINA RESULT:      -7.1      2.229      2.937
REMARK  Name = 
REMARK  7 active torsions:
REMARK  status: ('A' for Active; 'I' for Inactive)
REMARK    1  A    between atoms: C_1  and  O_2
REMARK    2  A    between atoms: O_2  and  C_3
REMARK    3  A    between atoms: C_6  and  C_7
REMARK    4  A    between atoms: C_7  and  C_8
REMARK    5  A    between atoms: C_7  and  C_10
REMARK    6  A    between atoms: C_8  and  N_9
REMARK    7  A    between atoms: C_10  and  O_11
REMARK                            x       y       z     vdW  Elec       q    Type
REMARK                         _______ _______ _______ _____ _____    ______ ____
ROOT
ATOM      1  C   UNL     1       4.315   4.446  19.179  0.00  0.00    +0.000 C 
ENDROOT
BRANCH   1   5
ATOM      2  C   UNL     1       6.839   5.084  15.611  0.00  0.00    +0.000 A 
ATOM      3  C   UNL     1       7.396   4.732  16.830  0.00  0.00    +0.000 A 
ATOM      4  C   UNL     1       6.579   4.471  17.934  0.00  0.00    +0.000 A 
ATOM      5  C   UNL     1       5.179   4.605  17.892  0.00  0.00    +0.000 A 
ATOM      6  C   UNL     1       4.645   4.877  16.618  0.00  0.00    +0.000 A 
ATOM      7  C   UNL     1       5.454   5.122  15.498  0.00  0.00    +0.000 A 
BRANCH   2   9
ATOM      8  C   UNL     1       7.450   4.922  13.332  0.00  0.00    +0.000 C 
ATOM      9  O   UNL     1       7.741   5.401  14.636  0.00  0.00    +0.000 OA
ENDBRANCH   2   9
ENDBRANCH   1   5
BRANCH   1  10
ATOM     10  C   UNL     1       3.898   2.933  19.542  0.00  0.00    +0.000 C 
ATOM     11  C   UNL     1       2.850   2.759  20.674  0.00  0.00    +0.000 C 
ATOM     12  C   UNL     1       1.372   2.838  20.303  0.00  0.00    +0.000 C 
ATOM     13  C   UNL     1       1.012   2.126  19.005  0.00  0.00    +0.000 C 
ATOM     14  C   UNL     1       2.027   2.285  17.883  0.00  0.00    +0.000 C 
ATOM     15  C   UNL     1       3.462   2.074  18.335  0.00  0.00    +0.000 C 
BRANCH  10  16
ATOM     16  O   UNL     1       5.063   2.281  20.116  0.00  0.00    +0.000 OA
ATOM     17  H   UNL     1       4.843   1.343  20.259  0.00  0.00    +0.000 HD
ENDBRANCH  10  16
ENDBRANCH   1  10
BRANCH   1  18
ATOM     18  C   UNL     1       3.068   5.391  19.146  0.00  0.00    +0.000 C 
BRANCH  18  19
ATOM     19  N   UNL     1       2.906   6.335  20.261  0.00  0.00    +0.000 NA
ATOM     20  H   UNL     1       1.965   6.286  20.639  0.00  0.00    +0.000 HD
ATOM     21  H   UNL     1       3.040   7.286  19.914  0.00  0.00    +0.000 HD
ENDBRANCH  18  19
ENDBRANCH   1  18
TORSDOF 6
ENDMDL
MODEL 7
REMARK VINA RESULT:      -7.0      2.414      3.219
REMARK  Name = 
REMARK  7 active torsions:
REMARK  status: ('A' for Active; 'I' for Inactive)
REMARK    1  A    between atoms: C_1  and  O_2
REMARK    2  A    between atoms: O_2  and  C_3
REMARK    3  A    between atoms: C_6  and  C_7
REMARK    4  A    between atoms: C_7  and  C_8
REMARK    5  A    between atoms: C_7  and  C_10
REMARK    6  A    between atoms: C_8  and  N_9
REMARK    7  A    between atoms: C_10  and  O_11
REMARK                            x       y       z     vdW  Elec       q    Type
REMARK                         _______ _______ _______ _____ _____    ______ ____
ROOT
ATOM      1  C   UNL     1       3.576   5.419  19.733  0.00  0.00    +0.000 C 
ENDROOT
BRANCH   1   5
ATOM      2  C   UNL     1       6.480   4.874  16.450  0.00  0.00    +0.000 A 
ATOM      3  C   UNL     1       6.876   4.807  17.776  0.00  0.00    +0.000 A 
ATOM      4  C   UNL     1       5.935   4.918  18.804  0.00  0.00    +0.000 A 
ATOM      5  C   UNL     1       4.570   5.158  18.561  0.00  0.00    +0.000 A 
ATOM      6  C   UNL     1       4.192   5.132  17.206  0.00  0.00    +0.000 A 
ATOM      7  C   UNL     1       5.125   5.002  16.165  0.00  0.00    +0.000 A 
BRANCH   2   9
ATOM      8  C   UNL     1       7.122   4.865  14.173  0.00  0.00    +0.000 C 
ATOM      9  O   UNL     1       7.499   4.844  15.542  0.00  0.00    +0.000 OA
ENDBRANCH   2   9
ENDBRANCH   1   5
BRANCH   1  10
ATOM     10  C   UNL     1       2.707   4.142  20.191  0.00  0.00    +0.000 C 
ATOM     11  C   UNL     1       1.346   3.940  19.471  0.00  0.00    +0.000 C 
ATOM     12  C   UNL     1       1.340   3.185  18.145  0.00  0.00    +0.000 C 
ATOM     13  C   UNL     1       2.250   1.963  18.115  0.00  0.00    +0.000 C 
ATOM     14  C   UNL     1       3.588   2.142  18.816  0.00  0.00    +0.000 C 
ATOM     15  C   UNL     1       3.471   2.800  20.179  0.00  0.00    +0.000 C 
BRANCH  10  16
ATOM     16  O   UNL     1       2.284   4.367  21.563  0.00  0.00    +0.000 OA
ATOM     17  H   UNL     1       1.311   4.315  21.592  0.00  0.00    +0.000 HD
ENDBRANCH  10  16
ENDBRANCH   1  10
BRANCH   1  18
ATOM     18  C   UNL     1       2.665   6.657  19.441  0.00  0.00    +0.000 C 
BRANCH  18  19
ATOM     19  N   UNL     1       2.033   7.317  20.593  0.00  0.00    +0.000 NA
ATOM     20  H   UNL     1       1.140   7.722  20.328  0.00  0.00    +0.000 HD
ATOM     21  H   UNL     1       2.629   8.086  20.904  0.00  0.00    +0.000 HD
ENDBRANCH  18  19
ENDBRANCH   1  18
TORSDOF 6
ENDMDL
MODEL 8
REMARK VINA RESULT:      -7.0      2.251      3.223
REMARK  Name = 
REMARK  7 active torsions:
REMARK  status: ('A' for Active; 'I' for Inactive)
REMARK    1  A    between atoms: C_1  and  O_2
REMARK    2  A    between atoms: O_2  and  C_3
REMARK    3  A    between atoms: C_6  and  C_7
REMARK    4  A    between atoms: C_7  and  C_8
REMARK    5  A    between atoms: C_7  and  C_10
REMARK    6  A    between atoms: C_8  and  N_9
REMARK    7  A    between atoms: C_10  and  O_11
REMARK                            x       y       z     vdW  Elec       q    Type
REMARK                         _______ _______ _______ _____ _____    ______ ____
ROOT
ATOM      1  C   UNL     1       2.550   5.267  20.105  0.00  0.00    +0.000 C 
ENDROOT
BRANCH   1   5
ATOM      2  C   UNL     1       5.808   6.601  17.439  0.00  0.00    +0.000 A 
ATOM      3  C   UNL     1       6.045   5.701  18.466  0.00  0.00    +0.000 A 
ATOM      4  C   UNL     1       4.992   5.240  19.262  0.00  0.00    +0.000 A 
ATOM      5  C   UNL     1       3.669   5.695  19.109  0.00  0.00    +0.000 A 
ATOM      6  C   UNL     1       3.453   6.537  18.003  0.00  0.00    +0.000 A 
ATOM      7  C   UNL     1       4.499   6.992  17.185  0.00  0.00    +0.000 A 
BRANCH   2   9
ATOM      8  C   UNL     1       7.736   7.971  17.502  0.00  0.00    +0.000 C 
ATOM      9  O   UNL     1       6.926   7.045  16.793  0.00  0.00    +0.000 OA
ENDBRANCH   2   9
ENDBRANCH   1   5
BRANCH   1  10
ATOM     10  C   UNL     1       1.832   3.864  19.769  0.00  0.00    +0.000 C 
ATOM     11  C   UNL     1       1.491   3.605  18.277  0.00  0.00    +0.000 C 
ATOM     12  C   UNL     1       2.575   3.006  17.386  0.00  0.00    +0.000 C 
ATOM     13  C   UNL     1       3.385   1.895  18.043  0.00  0.00    +0.000 C 
ATOM     14  C   UNL     1       3.730   2.132  19.506  0.00  0.00    +0.000 C 
ATOM     15  C   UNL     1       2.551   2.618  20.331  0.00  0.00    +0.000 C 
BRANCH  10  16
ATOM     16  O   UNL     1       0.511   3.889  20.374  0.00  0.00    +0.000 OA
ATOM     17  H   UNL     1       0.124   4.769  20.217  0.00  0.00    +0.000 HD
ENDBRANCH  10  16
ENDBRANCH   1  10
BRANCH   1  18
ATOM     18  C   UNL     1       1.503   6.411  20.309  0.00  0.00    +0.000 C 
BRANCH  18  19
ATOM     19  N   UNL     1       1.913   7.567  21.120  0.00  0.00    +0.000 NA
ATOM     20  H   UNL     1       1.420   7.575  22.008  0.00  0.00    +0.000 HD
ATOM     21  H   UNL     1       1.660   8.426  20.630  0.00  0.00    +0.000 HD
ENDBRANCH  18  19
ENDBRANCH   1  18
TORSDOF 6
ENDMDL
MODEL 9
REMARK VINA RESULT:      -6.9      1.279      1.694
REMARK  Name = 
REMARK  7 active torsions:
REMARK  status: ('A' for Active; 'I' for Inactive)
REMARK    1  A    between atoms: C_1  and  O_2
REMARK    2  A    between atoms: O_2  and  C_3
REMARK    3  A    between atoms: C_6  and  C_7
REMARK    4  A    between atoms: C_7  and  C_8
REMARK    5  A    between atoms: C_7  and  C_10
REMARK    6  A    between atoms: C_8  and  N_9
REMARK    7  A    between atoms: C_10  and  O_11
REMARK                            x       y       z     vdW  Elec       q    Type
REMARK                         _______ _______ _______ _____ _____    ______ ____
ROOT
ATOM      1  C   UNL     1       3.839   3.299  18.209  0.00  0.00    +0.000 C 
ENDROOT
BRANCH   1   5
ATOM      2  C   UNL     1       6.826   4.958  15.409  0.00  0.00    +0.000 A 
ATOM      3  C   UNL     1       7.002   5.046  16.781  0.00  0.00    +0.000 A 
ATOM      4  C   UNL     1       6.080   4.460  17.654  0.00  0.00    +0.000 A 
ATOM      5  C   UNL     1       4.914   3.813  17.204  0.00  0.00    +0.000 A 
ATOM      6  C   UNL     1       4.814   3.666  15.808  0.00  0.00    +0.000 A 
ATOM      7  C   UNL     1       5.744   4.233  14.922  0.00  0.00    +0.000 A 
BRANCH   2   9
ATOM      8  C   UNL     1       7.835   5.286  13.295  0.00  0.00    +0.000 C 
ATOM      9  O   UNL     1       7.741   5.644  14.665  0.00  0.00    +0.000 OA
ENDBRANCH   2   9
ENDBRANCH   1   5
BRANCH   1  10
ATOM     10  C   UNL     1       2.443   4.103  18.189  0.00  0.00    +0.000 C 
ATOM     11  C   UNL     1       1.491   3.861  19.392  0.00  0.00    +0.000 C 
ATOM     12  C   UNL     1       1.697   4.700  20.650  0.00  0.00    +0.000 C 
ATOM     13  C   UNL     1       2.005   6.168  20.383  0.00  0.00    +0.000 C 
ATOM     14  C   UNL     1       2.936   6.424  19.208  0.00  0.00    +0.000 C 
ATOM     15  C   UNL     1       2.575   5.626  17.968  0.00  0.00    +0.000 C 
BRANCH  10  16
ATOM     16  O   UNL     1       1.654   3.590  17.082  0.00  0.00    +0.000 OA
ATOM     17  H   UNL     1       2.248   3.466  16.320  0.00  0.00    +0.000 HD
ENDBRANCH  10  16
ENDBRANCH   1  10
BRANCH   1  18
ATOM     18  C   UNL     1       4.419   3.195  19.658  0.00  0.00    +0.000 C 
BRANCH  18  19
ATOM     19  N   UNL     1       4.994   1.904  20.065  0.00  0.00    +0.000 NA
ATOM     20  H   UNL     1       5.588   2.017  20.880  0.00  0.00    +0.000 HD
ATOM     21  H   UNL     1       5.583   1.550  19.310  0.00  0.00    +0.000 HD
ENDBRANCH  18  19
ENDBRANCH   1  18
TORSDOF 6
ENDMDL
