MODEL 1
REMARK VINA RESULT:      -8.3      0.000      0.000
REMARK  Name = 
REMARK  8 active torsions:
REMARK  status: ('A' for Active; 'I' for Inactive)
REMARK    1  A    between atoms: C_1  and  O_2
REMARK    2  A    between atoms: O_2  and  C_3
REMARK    3  A    between atoms: N_5  and  C_6
REMARK    4  A    between atoms: C_8  and  C_9
REMARK    5  A    between atoms: C_16  and  C_17
REMARK    6  A    between atoms: N_21  and  C_22
REMARK    7  A    between atoms: C_22  and  C_23
REMARK    8  A    between atoms: C_22  and  C_24
REMARK                            x       y       z     vdW  Elec       q    Type
REMARK                         _______ _______ _______ _____ _____    ______ ____
ROOT
ATOM      1  C   UNL     1       1.286   8.425  20.746  0.00  0.00    +0.000 C 
ATOM      2  O   UNL     1       1.033   7.897  21.827  0.00  0.00    +0.000 OA
ATOM      3  N   UNL     1       1.915   7.786  19.692  0.00  0.00    +0.000 N 
ATOM      4  C   UNL     1       2.417   6.486  19.785  0.00  0.00    +0.000 A 
ATOM      5  C   UNL     1       1.704   5.469  20.412  0.00  0.00    +0.000 A 
ATOM      6  C   UNL     1       2.293   4.219  20.543  0.00  0.00    +0.000 A 
ATOM      7  C   UNL     1       3.593   4.038  20.086  0.00  0.00    +0.000 A 
ATOM      8  C   UNL     1       4.230   5.097  19.458  0.00  0.00    +0.000 A 
ATOM      9  N   UNL     1       3.632   6.297  19.238  0.00  0.00    +0.000 NA
ATOM     10  H   UNL     1       2.372   8.372  19.007  0.00  0.00    +0.000 HD
ENDROOT
BRANCH   1  16
ATOM     11  C   UNL     1       0.613  10.854  21.411  0.00  0.00    +0.000 A 
ATOM     12  N   UNL     1       0.458  12.041  20.824  0.00  0.00    +0.000 NA
ATOM     13  N   UNL     1       0.695  11.777  19.528  0.00  0.00    +0.000 N 
ATOM     14  C   UNL     1       0.547  12.820  18.542  0.00  0.00    +0.000 C 
ATOM     15  C   UNL     1       1.021  10.474  19.293  0.00  0.00    +0.000 A 
ATOM     16  C   UNL     1       0.999   9.831  20.522  0.00  0.00    +0.000 A 
BRANCH  11  18
ATOM     17  C   UNL     1      -0.961  10.471  23.067  0.00  0.00    +0.000 C 
ATOM     18  O   UNL     1       0.404  10.721  22.740  0.00  0.00    +0.000 OA
ENDBRANCH  11  18
ENDBRANCH   1  16
BRANCH   8  19
ATOM     19  C   UNL     1       5.651   5.020  19.121  0.00  0.00    +0.000 A 
ATOM     20  N   UNL     1       6.642   4.985  19.999  0.00  0.00    +0.000 NA
ATOM     21  N   UNL     1       7.834   5.046  19.326  0.00  0.00    +0.000 NA
ATOM     22  C   UNL     1       7.560   5.091  18.045  0.00  0.00    +0.000 A 
ATOM     23  N   UNL     1       6.212   5.027  17.860  0.00  0.00    +0.000 N 
BRANCH  23  24
ATOM     24  C   UNL     1       5.511   4.948  16.590  0.00  0.00    +0.000 C 
ATOM     25  C   UNL     1       6.208   4.037  15.570  0.00  0.00    +0.000 C 
BRANCH  24  26
ATOM     26  C   UNL     1       5.199   6.326  16.010  0.00  0.00    +0.000 C 
ATOM     27  F   UNL     1       6.117   7.264  16.326  0.00  0.00    +0.000 F 
ATOM     28  F   UNL     1       5.129   6.289  14.658  0.00  0.00    +0.000 F 
ATOM     29  F   UNL     1       3.997   6.775  16.452  0.00  0.00    +0.000 F 
ENDBRANCH  24  26
ENDBRANCH  23  24
ENDBRANCH   8  19
TORSDOF 5
ENDMDL
MODEL 2
REMARK VINA RESULT:      -8.2      2.412      3.498
REMARK  Name = 
REMARK  8 active torsions:
REMARK  status: ('A' for Active; 'I' for Inactive)
REMARK    1  A    between atoms: C_1  and  O_2
REMARK    2  A    between atoms: O_2  and  C_3
REMARK    3  A    between atoms: N_5  and  C_6
REMARK    4  A    between atoms: C_8  and  C_9
REMARK    5  A    between atoms: C_16  and  C_17
REMARK    6  A    between atoms: N_21  and  C_22
REMARK    7  A    between atoms: C_22  and  C_23
REMARK    8  A    between atoms: C_22  and  C_24
REMARK                            x       y       z     vdW  Elec       q    Type
REMARK                         _______ _______ _______ _____ _____    ______ ____
ROOT
ATOM      1  C   UNL     1       1.935   6.510  20.161  0.00  0.00    +0.000 C 
ATOM      2  O   UNL     1       2.280   5.750  21.062  0.00  0.00    +0.000 OA
ATOM      3  N   UNL     1       2.080   6.241  18.811  0.00  0.00    +0.000 N 
ATOM      4  C   UNL     1       2.731   5.102  18.331  0.00  0.00    +0.000 A 
ATOM      5  C   UNL     1       2.526   3.849  18.899  0.00  0.00    +0.000 A 
ATOM      6  C   UNL     1       3.264   2.771  18.430  0.00  0.00    +0.000 A 
ATOM      7  C   UNL     1       4.216   2.988  17.441  0.00  0.00    +0.000 A 
ATOM      8  C   UNL     1       4.348   4.264  16.915  0.00  0.00    +0.000 A 
ATOM      9  N   UNL     1       3.567   5.308  17.298  0.00  0.00    +0.000 NA
ATOM     10  H   UNL     1       2.090   7.034  18.183  0.00  0.00    +0.000 HD
ENDROOT
BRANCH   1  16
ATOM     11  C   UNL     1       1.373   9.016  19.712  0.00  0.00    +0.000 A 
ATOM     12  N   UNL     1       0.767  10.028  20.334  0.00  0.00    +0.000 NA
ATOM     13  N   UNL     1       0.440   9.505  21.527  0.00  0.00    +0.000 N 
ATOM     14  C   UNL     1      -0.180  10.335  22.531  0.00  0.00    +0.000 C 
ATOM     15  C   UNL     1       0.795   8.195  21.658  0.00  0.00    +0.000 A 
ATOM     16  C   UNL     1       1.399   7.826  20.465  0.00  0.00    +0.000 A 
BRANCH  11  18
ATOM     17  C   UNL     1       1.909  10.555  18.066  0.00  0.00    +0.000 C 
ATOM     18  O   UNL     1       1.889   9.190  18.475  0.00  0.00    +0.000 OA
ENDBRANCH  11  18
ENDBRANCH   1  16
BRANCH   8  19
ATOM     19  C   UNL     1       5.448   4.587  16.008  0.00  0.00    +0.000 A 
ATOM     20  N   UNL     1       5.587   4.115  14.778  0.00  0.00    +0.000 NA
ATOM     21  N   UNL     1       6.794   4.526  14.279  0.00  0.00    +0.000 NA
ATOM     22  C   UNL     1       7.369   5.264  15.196  0.00  0.00    +0.000 A 
ATOM     23  N   UNL     1       6.549   5.376  16.279  0.00  0.00    +0.000 N 
BRANCH  23  24
ATOM     24  C   UNL     1       6.774   6.189  17.461  0.00  0.00    +0.000 C 
ATOM     25  C   UNL     1       7.543   7.484  17.167  0.00  0.00    +0.000 C 
BRANCH  24  26
ATOM     26  C   UNL     1       7.403   5.393  18.603  0.00  0.00    +0.000 C 
ATOM     27  F   UNL     1       8.306   6.097  19.317  0.00  0.00    +0.000 F 
ATOM     28  F   UNL     1       6.464   4.960  19.479  0.00  0.00    +0.000 F 
ATOM     29  F   UNL     1       8.035   4.290  18.130  0.00  0.00    +0.000 F 
ENDBRANCH  24  26
ENDBRANCH  23  24
ENDBRANCH   8  19
TORSDOF 5
ENDMDL
MODEL 3
REMARK VINA RESULT:      -8.2      1.139      1.778
REMARK  Name = 
REMARK  8 active torsions:
REMARK  status: ('A' for Active; 'I' for Inactive)
REMARK    1  A    between atoms: C_1  and  O_2
REMARK    2  A    between atoms: O_2  and  C_3
REMARK    3  A    between atoms: N_5  and  C_6
REMARK    4  A    between atoms: C_8  and  C_9
REMARK    5  A    between atoms: C_16  and  C_17
REMARK    6  A    between atoms: N_21  and  C_22
REMARK    7  A    between atoms: C_22  and  C_23
REMARK    8  A    between atoms: C_22  and  C_24
REMARK                            x       y       z     vdW  Elec       q    Type
REMARK                         _______ _______ _______ _____ _____    ______ ____
ROOT
ATOM      1  C   UNL     1       1.213   8.509  20.547  0.00  0.00    +0.000 C 
ATOM      2  O   UNL     1       0.987   8.061  21.669  0.00  0.00    +0.000 OA
ATOM      3  N   UNL     1       1.846   7.807  19.537  0.00  0.00    +0.000 N 
ATOM      4  C   UNL     1       2.386   6.531  19.723  0.00  0.00    +0.000 A 
ATOM      5  C   UNL     1       1.708   5.548  20.437  0.00  0.00    +0.000 A 
ATOM      6  C   UNL     1       2.333   4.328  20.657  0.00  0.00    +0.000 A 
ATOM      7  C   UNL     1       3.632   4.146  20.197  0.00  0.00    +0.000 A 
ATOM      8  C   UNL     1       4.232   5.171  19.480  0.00  0.00    +0.000 A 
ATOM      9  N   UNL     1       3.598   6.333  19.176  0.00  0.00    +0.000 NA
ATOM     10  H   UNL     1       2.280   8.350  18.803  0.00  0.00    +0.000 HD
ENDROOT
BRANCH   1  16
ATOM     11  C   UNL     1       0.351  10.460  19.049  0.00  0.00    +0.000 A 
ATOM     12  N   UNL     1       0.170  11.778  19.136  0.00  0.00    +0.000 NA
ATOM     13  N   UNL     1       0.641  12.074  20.359  0.00  0.00    +0.000 N 
ATOM     14  C   UNL     1       0.685  13.447  20.800  0.00  0.00    +0.000 C 
ATOM     15  C   UNL     1       1.080  10.982  21.046  0.00  0.00    +0.000 A 
ATOM     16  C   UNL     1       0.885   9.886  20.219  0.00  0.00    +0.000 A 
BRANCH  11  18
ATOM     17  C   UNL     1      -1.320  10.029  17.504  0.00  0.00    +0.000 C 
ATOM     18  O   UNL     1       0.027   9.803  17.913  0.00  0.00    +0.000 OA
ENDBRANCH  11  18
ENDBRANCH   1  16
BRANCH   8  19
ATOM     19  C   UNL     1       5.651   5.105  19.131  0.00  0.00    +0.000 A 
ATOM     20  N   UNL     1       6.651   5.116  19.998  0.00  0.00    +0.000 NA
ATOM     21  N   UNL     1       7.834   5.173  19.311  0.00  0.00    +0.000 NA
ATOM     22  C   UNL     1       7.547   5.170  18.032  0.00  0.00    +0.000 A 
ATOM     23  N   UNL     1       6.198   5.079  17.864  0.00  0.00    +0.000 N 
BRANCH  23  24
ATOM     24  C   UNL     1       5.485   4.945  16.605  0.00  0.00    +0.000 C 
ATOM     25  C   UNL     1       6.161   3.973  15.628  0.00  0.00    +0.000 C 
BRANCH  24  26
ATOM     26  C   UNL     1       5.188   6.296  15.958  0.00  0.00    +0.000 C 
ATOM     27  F   UNL     1       4.012   6.832  16.344  0.00  0.00    +0.000 F 
ATOM     28  F   UNL     1       6.148   7.207  16.254  0.00  0.00    +0.000 F 
ATOM     29  F   UNL     1       5.157   6.188  14.606  0.00  0.00    +0.000 F 
ENDBRANCH  24  26
ENDBRANCH  23  24
ENDBRANCH   8  19
TORSDOF 5
ENDMDL
MODEL 4
REMARK VINA RESULT:      -8.2      3.264      4.533
REMARK  Name = 
REMARK  8 active torsions:
REMARK  status: ('A' for Active; 'I' for Inactive)
REMARK    1  A    between atoms: C_1  and  O_2
REMARK    2  A    between atoms: O_2  and  C_3
REMARK    3  A    between atoms: N_5  and  C_6
REMARK    4  A    between atoms: C_8  and  C_9
REMARK    5  A    between atoms: C_16  and  C_17
REMARK    6  A    between atoms: N_21  and  C_22
REMARK    7  A    between atoms: C_22  and  C_23
REMARK    8  A    between atoms: C_22  and  C_24
REMARK                            x       y       z     vdW  Elec       q    Type
REMARK                         _______ _______ _______ _____ _____    ______ ____
ROOT
ATOM      1  C   UNL     1       1.517   9.392  18.398  0.00  0.00    +0.000 C 
ATOM      2  O   UNL     1       1.876   9.747  17.278  0.00  0.00    +0.000 OA
ATOM      3  N   UNL     1       1.985   8.264  19.048  0.00  0.00    +0.000 N 
ATOM      4  C   UNL     1       2.856   7.349  18.449  0.00  0.00    +0.000 A 
ATOM      5  C   UNL     1       3.941   7.766  17.683  0.00  0.00    +0.000 A 
ATOM      6  C   UNL     1       4.719   6.810  17.047  0.00  0.00    +0.000 A 
ATOM      7  C   UNL     1       4.362   5.471  17.157  0.00  0.00    +0.000 A 
ATOM      8  C   UNL     1       3.276   5.136  17.952  0.00  0.00    +0.000 A 
ATOM      9  N   UNL     1       2.563   6.053  18.656  0.00  0.00    +0.000 NA
ATOM     10  H   UNL     1       1.403   7.880  19.780  0.00  0.00    +0.000 HD
ENDROOT
BRANCH   1  16
ATOM     11  C   UNL     1       0.294  10.362  20.486  0.00  0.00    +0.000 A 
ATOM     12  N   UNL     1      -0.783  11.099  20.756  0.00  0.00    +0.000 NA
ATOM     13  N   UNL     1      -1.334  11.295  19.547  0.00  0.00    +0.000 N 
ATOM     14  C   UNL     1      -2.586  12.002  19.432  0.00  0.00    +0.000 C 
ATOM     15  C   UNL     1      -0.621  10.730  18.531  0.00  0.00    +0.000 A 
ATOM     16  C   UNL     1       0.481  10.119  19.111  0.00  0.00    +0.000 A 
BRANCH  11  18
ATOM     17  C   UNL     1       0.359   9.321  22.554  0.00  0.00    +0.000 C 
ATOM     18  O   UNL     1       1.088   9.926  21.489  0.00  0.00    +0.000 OA
ENDBRANCH  11  18
ENDBRANCH   1  16
BRANCH   8  19
ATOM     19  C   UNL     1       2.750   3.772  17.959  0.00  0.00    +0.000 A 
ATOM     20  N   UNL     1       2.241   3.146  16.910  0.00  0.00    +0.000 NA
ATOM     21  N   UNL     1       1.731   1.941  17.316  0.00  0.00    +0.000 NA
ATOM     22  C   UNL     1       1.957   1.832  18.603  0.00  0.00    +0.000 A 
ATOM     23  N   UNL     1       2.635   2.928  19.046  0.00  0.00    +0.000 N 
BRANCH  23  24
ATOM     24  C   UNL     1       3.160   3.145  20.383  0.00  0.00    +0.000 C 
ATOM     25  C   UNL     1       4.227   2.118  20.787  0.00  0.00    +0.000 C 
BRANCH  24  26
ATOM     26  C   UNL     1       2.054   3.267  21.429  0.00  0.00    +0.000 C 
ATOM     27  F   UNL     1       1.680   2.083  21.960  0.00  0.00    +0.000 F 
ATOM     28  F   UNL     1       2.438   4.054  22.463  0.00  0.00    +0.000 F 
ATOM     29  F   UNL     1       0.945   3.836  20.894  0.00  0.00    +0.000 F 
ENDBRANCH  24  26
ENDBRANCH  23  24
ENDBRANCH   8  19
TORSDOF 5
ENDMDL
MODEL 5
REMARK VINA RESULT:      -8.1      2.526      3.814
REMARK  Name = 
REMARK  8 active torsions:
REMARK  status: ('A' for Active; 'I' for Inactive)
REMARK    1  A    between atoms: C_1  and  O_2
REMARK    2  A    between atoms: O_2  and  C_3
REMARK    3  A    between atoms: N_5  and  C_6
REMARK    4  A    between atoms: C_8  and  C_9
REMARK    5  A    between atoms: C_16  and  C_17
REMARK    6  A    between atoms: N_21  and  C_22
REMARK    7  A    between atoms: C_22  and  C_23
REMARK    8  A    between atoms: C_22  and  C_24
REMARK                            x       y       z     vdW  Elec       q    Type
REMARK                         _______ _______ _______ _____ _____    ______ ____
ROOT
ATOM      1  C   UNL     1       1.441   8.918  18.308  0.00  0.00    +0.000 C 
ATOM      2  O   UNL     1       1.222   8.758  17.110  0.00  0.00    +0.000 OA
ATOM      3  N   UNL     1       2.475   8.313  19.002  0.00  0.00    +0.000 N 
ATOM      4  C   UNL     1       3.329   7.372  18.421  0.00  0.00    +0.000 A 
ATOM      5  C   UNL     1       3.845   7.545  17.140  0.00  0.00    +0.000 A 
ATOM      6  C   UNL     1       4.621   6.536  16.588  0.00  0.00    +0.000 A 
ATOM      7  C   UNL     1       4.820   5.367  17.314  0.00  0.00    +0.000 A 
ATOM      8  C   UNL     1       4.285   5.280  18.591  0.00  0.00    +0.000 A 
ATOM      9  N   UNL     1       3.603   6.297  19.180  0.00  0.00    +0.000 NA
ATOM     10  H   UNL     1       2.370   8.232  20.004  0.00  0.00    +0.000 HD
ENDROOT
BRANCH   1  16
ATOM     11  C   UNL     1       0.185   9.621  20.482  0.00  0.00    +0.000 A 
ATOM     12  N   UNL     1      -0.659  10.573  20.881  0.00  0.00    +0.000 NA
ATOM     13  N   UNL     1      -0.888  11.273  19.757  0.00  0.00    +0.000 N 
ATOM     14  C   UNL     1      -1.831  12.365  19.769  0.00  0.00    +0.000 C 
ATOM     15  C   UNL     1      -0.193  10.807  18.680  0.00  0.00    +0.000 A 
ATOM     16  C   UNL     1       0.549   9.723  19.124  0.00  0.00    +0.000 A 
BRANCH  11  18
ATOM     17  C   UNL     1       0.974   9.221  22.622  0.00  0.00    +0.000 C 
ATOM     18  O   UNL     1       0.610   8.681  21.354  0.00  0.00    +0.000 OA
ENDBRANCH  11  18
ENDBRANCH   1  16
BRANCH   8  19
ATOM     19  C   UNL     1       4.309   4.015  19.325  0.00  0.00    +0.000 A 
ATOM     20  N   UNL     1       5.403   3.368  19.693  0.00  0.00    +0.000 NA
ATOM     21  N   UNL     1       5.044   2.164  20.240  0.00  0.00    +0.000 NA
ATOM     22  C   UNL     1       3.735   2.100  20.224  0.00  0.00    +0.000 A 
ATOM     23  N   UNL     1       3.224   3.252  19.707  0.00  0.00    +0.000 N 
BRANCH  23  24
ATOM     24  C   UNL     1       1.820   3.615  19.611  0.00  0.00    +0.000 C 
ATOM     25  C   UNL     1       0.976   3.077  20.774  0.00  0.00    +0.000 C 
BRANCH  24  26
ATOM     26  C   UNL     1       1.219   3.261  18.252  0.00  0.00    +0.000 C 
ATOM     27  F   UNL     1       0.948   4.338  17.485  0.00  0.00    +0.000 F 
ATOM     28  F   UNL     1       2.053   2.471  17.534  0.00  0.00    +0.000 F 
ATOM     29  F   UNL     1       0.060   2.572  18.403  0.00  0.00    +0.000 F 
ENDBRANCH  24  26
ENDBRANCH  23  24
ENDBRANCH   8  19
TORSDOF 5
ENDMDL
MODEL 6
REMARK VINA RESULT:      -8.1      2.091      2.724
REMARK  Name = 
REMARK  8 active torsions:
REMARK  status: ('A' for Active; 'I' for Inactive)
REMARK    1  A    between atoms: C_1  and  O_2
REMARK    2  A    between atoms: O_2  and  C_3
REMARK    3  A    between atoms: N_5  and  C_6
REMARK    4  A    between atoms: C_8  and  C_9
REMARK    5  A    between atoms: C_16  and  C_17
REMARK    6  A    between atoms: N_21  and  C_22
REMARK    7  A    between atoms: C_22  and  C_23
REMARK    8  A    between atoms: C_22  and  C_24
REMARK                            x       y       z     vdW  Elec       q    Type
REMARK                         _______ _______ _______ _____ _____    ______ ____
ROOT
ATOM      1  C   UNL     1       1.805   7.647  20.038  0.00  0.00    +0.000 C 
ATOM      2  O   UNL     1       2.099   7.025  21.056  0.00  0.00    +0.000 OA
ATOM      3  N   UNL     1       1.948   7.156  18.752  0.00  0.00    +0.000 N 
ATOM      4  C   UNL     1       2.539   5.920  18.474  0.00  0.00    +0.000 A 
ATOM      5  C   UNL     1       2.259   4.788  19.233  0.00  0.00    +0.000 A 
ATOM      6  C   UNL     1       2.939   3.611  18.958  0.00  0.00    +0.000 A 
ATOM      7  C   UNL     1       3.911   3.613  17.964  0.00  0.00    +0.000 A 
ATOM      8  C   UNL     1       4.119   4.779  17.242  0.00  0.00    +0.000 A 
ATOM      9  N   UNL     1       3.395   5.911  17.437  0.00  0.00    +0.000 NA
ATOM     10  H   UNL     1       2.008   7.834  18.005  0.00  0.00    +0.000 HD
ENDROOT
BRANCH   1  16
ATOM     11  C   UNL     1       1.053   9.843  21.224  0.00  0.00    +0.000 A 
ATOM     12  N   UNL     1       0.662  11.073  20.889  0.00  0.00    +0.000 NA
ATOM     13  N   UNL     1       0.646  11.036  19.546  0.00  0.00    +0.000 N 
ATOM     14  C   UNL     1       0.192  12.184  18.800  0.00  0.00    +0.000 C 
ATOM     15  C   UNL     1       1.041   9.836  19.034  0.00  0.00    +0.000 A 
ATOM     16  C   UNL     1       1.341   9.022  20.117  0.00  0.00    +0.000 A 
BRANCH  11  18
ATOM     17  C   UNL     1      -0.105   9.569  23.211  0.00  0.00    +0.000 C 
ATOM     18  O   UNL     1       1.142   9.490  22.525  0.00  0.00    +0.000 OA
ENDBRANCH  11  18
ENDBRANCH   1  16
BRANCH   8  19
ATOM     19  C   UNL     1       5.245   4.891  16.315  0.00  0.00    +0.000 A 
ATOM     20  N   UNL     1       5.305   4.331  15.116  0.00  0.00    +0.000 NA
ATOM     21  N   UNL     1       6.552   4.539  14.591  0.00  0.00    +0.000 NA
ATOM     22  C   UNL     1       7.233   5.245  15.460  0.00  0.00    +0.000 A 
ATOM     23  N   UNL     1       6.447   5.534  16.535  0.00  0.00    +0.000 N 
BRANCH  23  24
ATOM     24  C   UNL     1       6.794   6.377  17.666  0.00  0.00    +0.000 C 
ATOM     25  C   UNL     1       7.606   7.618  17.268  0.00  0.00    +0.000 C 
BRANCH  24  26
ATOM     26  C   UNL     1       7.459   5.593  18.795  0.00  0.00    +0.000 C 
ATOM     27  F   UNL     1       6.600   5.201  19.759  0.00  0.00    +0.000 F 
ATOM     28  F   UNL     1       8.060   4.471  18.328  0.00  0.00    +0.000 F 
ATOM     29  F   UNL     1       8.425   6.334  19.393  0.00  0.00    +0.000 F 
ENDBRANCH  24  26
ENDBRANCH  23  24
ENDBRANCH   8  19
TORSDOF 5
ENDMDL
MODEL 7
REMARK VINA RESULT:      -8.1      3.484      4.749
REMARK  Name = 
REMARK  8 active torsions:
REMARK  status: ('A' for Active; 'I' for Inactive)
REMARK    1  A    between atoms: C_1  and  O_2
REMARK    2  A    between atoms: O_2  and  C_3
REMARK    3  A    between atoms: N_5  and  C_6
REMARK    4  A    between atoms: C_8  and  C_9
REMARK    5  A    between atoms: C_16  and  C_17
REMARK    6  A    between atoms: N_21  and  C_22
REMARK    7  A    between atoms: C_22  and  C_23
REMARK    8  A    between atoms: C_22  and  C_24
REMARK                            x       y       z     vdW  Elec       q    Type
REMARK                         _______ _______ _______ _____ _____    ______ ____
ROOT
ATOM      1  C   UNL     1       1.519   9.345  18.478  0.00  0.00    +0.000 C 
ATOM      2  O   UNL     1       1.817   9.710  17.344  0.00  0.00    +0.000 OA
ATOM      3  N   UNL     1       2.029   8.217  19.096  0.00  0.00    +0.000 N 
ATOM      4  C   UNL     1       2.875   7.313  18.446  0.00  0.00    +0.000 A 
ATOM      5  C   UNL     1       3.915   7.744  17.629  0.00  0.00    +0.000 A 
ATOM      6  C   UNL     1       4.668   6.798  16.947  0.00  0.00    +0.000 A 
ATOM      7  C   UNL     1       4.328   5.456  17.067  0.00  0.00    +0.000 A 
ATOM      8  C   UNL     1       3.287   5.107  17.914  0.00  0.00    +0.000 A 
ATOM      9  N   UNL     1       2.603   6.014  18.660  0.00  0.00    +0.000 NA
ATOM     10  H   UNL     1       1.488   7.823  19.854  0.00  0.00    +0.000 HD
ENDROOT
BRANCH   1  16
ATOM     11  C   UNL     1      -0.750  10.563  18.885  0.00  0.00    +0.000 A 
ATOM     12  N   UNL     1      -1.397  11.153  19.891  0.00  0.00    +0.000 NA
ATOM     13  N   UNL     1      -0.522  11.078  20.907  0.00  0.00    +0.000 N 
ATOM     14  C   UNL     1      -0.839  11.689  22.175  0.00  0.00    +0.000 C 
ATOM     15  C   UNL     1       0.635  10.437  20.577  0.00  0.00    +0.000 A 
ATOM     16  C   UNL     1       0.515  10.059  19.248  0.00  0.00    +0.000 A 
BRANCH  11  18
ATOM     17  C   UNL     1      -2.603   9.876  17.678  0.00  0.00    +0.000 C 
ATOM     18  O   UNL     1      -1.317  10.491  17.661  0.00  0.00    +0.000 OA
ENDBRANCH  11  18
ENDBRANCH   1  16
BRANCH   8  19
ATOM     19  C   UNL     1       2.773   3.738  17.940  0.00  0.00    +0.000 A 
ATOM     20  N   UNL     1       2.266   3.094  16.900  0.00  0.00    +0.000 NA
ATOM     21  N   UNL     1       1.768   1.890  17.323  0.00  0.00    +0.000 NA
ATOM     22  C   UNL     1       1.999   1.799  18.610  0.00  0.00    +0.000 A 
ATOM     23  N   UNL     1       2.668   2.907  19.037  0.00  0.00    +0.000 N 
BRANCH  23  24
ATOM     24  C   UNL     1       3.195   3.145  20.370  0.00  0.00    +0.000 C 
ATOM     25  C   UNL     1       4.245   2.111  20.799  0.00  0.00    +0.000 C 
BRANCH  24  26
ATOM     26  C   UNL     1       2.089   3.307  21.412  0.00  0.00    +0.000 C 
ATOM     27  F   UNL     1       2.431   4.111  22.440  0.00  0.00    +0.000 F 
ATOM     28  F   UNL     1       0.967   3.832  20.863  0.00  0.00    +0.000 F 
ATOM     29  F   UNL     1       1.743   2.106  21.938  0.00  0.00    +0.000 F 
ENDBRANCH  24  26
ENDBRANCH  23  24
ENDBRANCH   8  19
TORSDOF 5
ENDMDL
MODEL 8
REMARK VINA RESULT:      -8.1      1.499      2.107
REMARK  Name = 
REMARK  8 active torsions:
REMARK  status: ('A' for Active; 'I' for Inactive)
REMARK    1  A    between atoms: C_1  and  O_2
REMARK    2  A    between atoms: O_2  and  C_3
REMARK    3  A    between atoms: N_5  and  C_6
REMARK    4  A    between atoms: C_8  and  C_9
REMARK    5  A    between atoms: C_16  and  C_17
REMARK    6  A    between atoms: N_21  and  C_22
REMARK    7  A    between atoms: C_22  and  C_23
REMARK    8  A    between atoms: C_22  and  C_24
REMARK                            x       y       z     vdW  Elec       q    Type
REMARK                         _______ _______ _______ _____ _____    ______ ____
ROOT
ATOM      1  C   UNL     1       1.200   8.730  20.544  0.00  0.00    +0.000 C 
ATOM      2  O   UNL     1       1.093   8.390  21.720  0.00  0.00    +0.000 OA
ATOM      3  N   UNL     1       1.708   7.923  19.541  0.00  0.00    +0.000 N 
ATOM      4  C   UNL     1       2.246   6.657  19.784  0.00  0.00    +0.000 A 
ATOM      5  C   UNL     1       1.637   5.759  20.655  0.00  0.00    +0.000 A 
ATOM      6  C   UNL     1       2.264   4.549  20.918  0.00  0.00    +0.000 A 
ATOM      7  C   UNL     1       3.501   4.294  20.339  0.00  0.00    +0.000 A 
ATOM      8  C   UNL     1       4.033   5.234  19.469  0.00  0.00    +0.000 A 
ATOM      9  N   UNL     1       3.387   6.380  19.130  0.00  0.00    +0.000 NA
ATOM     10  H   UNL     1       2.066   8.386  18.716  0.00  0.00    +0.000 HD
ENDROOT
BRANCH   1  16
ATOM     11  C   UNL     1       0.249  10.562  18.953  0.00  0.00    +0.000 A 
ATOM     12  N   UNL     1       0.082  11.885  18.944  0.00  0.00    +0.000 NA
ATOM     13  N   UNL     1       0.637  12.273  20.104  0.00  0.00    +0.000 N 
ATOM     14  C   UNL     1       0.719  13.677  20.428  0.00  0.00    +0.000 C 
ATOM     15  C   UNL     1       1.117  11.236  20.847  0.00  0.00    +0.000 A 
ATOM     16  C   UNL     1       0.858  10.078  20.128  0.00  0.00    +0.000 A 
BRANCH  11  18
ATOM     17  C   UNL     1      -1.494  10.104  17.498  0.00  0.00    +0.000 C 
ATOM     18  O   UNL     1      -0.156   9.819  17.900  0.00  0.00    +0.000 OA
ENDBRANCH  11  18
ENDBRANCH   1  16
BRANCH   8  19
ATOM     19  C   UNL     1       5.404   5.102  18.975  0.00  0.00    +0.000 A 
ATOM     20  N   UNL     1       6.496   5.264  19.705  0.00  0.00    +0.000 NA
ATOM     21  N   UNL     1       7.592   5.194  18.887  0.00  0.00    +0.000 NA
ATOM     22  C   UNL     1       7.160   4.963  17.671  0.00  0.00    +0.000 A 
ATOM     23  N   UNL     1       5.803   4.848  17.678  0.00  0.00    +0.000 N 
BRANCH  23  24
ATOM     24  C   UNL     1       4.953   4.494  16.554  0.00  0.00    +0.000 C 
ATOM     25  C   UNL     1       4.149   3.207  16.785  0.00  0.00    +0.000 C 
BRANCH  24  26
ATOM     26  C   UNL     1       5.719   4.463  15.233  0.00  0.00    +0.000 C 
ATOM     27  F   UNL     1       4.934   4.234  14.160  0.00  0.00    +0.000 F 
ATOM     28  F   UNL     1       6.358   5.636  15.006  0.00  0.00    +0.000 F 
ATOM     29  F   UNL     1       6.671   3.496  15.250  0.00  0.00    +0.000 F 
ENDBRANCH  24  26
ENDBRANCH  23  24
ENDBRANCH   8  19
TORSDOF 5
ENDMDL
MODEL 9
REMARK VINA RESULT:      -8.0      0.955      1.210
REMARK  Name = 
REMARK  8 active torsions:
REMARK  status: ('A' for Active; 'I' for Inactive)
REMARK    1  A    between atoms: C_1  and  O_2
REMARK    2  A    between atoms: O_2  and  C_3
REMARK    3  A    between atoms: N_5  and  C_6
REMARK    4  A    between atoms: C_8  and  C_9
REMARK    5  A    between atoms: C_16  and  C_17
REMARK    6  A    between atoms: N_21  and  C_22
REMARK    7  A    between atoms: C_22  and  C_23
REMARK    8  A    between atoms: C_22  and  C_24
REMARK                            x       y       z     vdW  Elec       q    Type
REMARK                         _______ _______ _______ _____ _____    ______ ____
ROOT
ATOM      1  C   UNL     1       1.221   8.635  20.845  0.00  0.00    +0.000 C 
ATOM      2  O   UNL     1       1.072   8.165  21.970  0.00  0.00    +0.000 OA
ATOM      3  N   UNL     1       1.742   7.938  19.769  0.00  0.00    +0.000 N 
ATOM      4  C   UNL     1       2.247   6.640  19.879  0.00  0.00    +0.000 A 
ATOM      5  C   UNL     1       1.595   5.662  20.623  0.00  0.00    +0.000 A 
ATOM      6  C   UNL     1       2.190   4.416  20.760  0.00  0.00    +0.000 A 
ATOM      7  C   UNL     1       3.439   4.201  20.190  0.00  0.00    +0.000 A 
ATOM      8  C   UNL     1       4.015   5.222  19.449  0.00  0.00    +0.000 A 
ATOM      9  N   UNL     1       3.402   6.414  19.228  0.00  0.00    +0.000 NA
ATOM     10  H   UNL     1       2.134   8.485  19.014  0.00  0.00    +0.000 HD
ENDROOT
BRANCH   1  16
ATOM     11  C   UNL     1       0.429  11.052  21.416  0.00  0.00    +0.000 A 
ATOM     12  N   UNL     1       0.296  12.228  20.801  0.00  0.00    +0.000 NA
ATOM     13  N   UNL     1       0.653  11.956  19.535  0.00  0.00    +0.000 N 
ATOM     14  C   UNL     1       0.565  12.984  18.527  0.00  0.00    +0.000 C 
ATOM     15  C   UNL     1       1.032  10.660  19.347  0.00  0.00    +0.000 A 
ATOM     16  C   UNL     1       0.918  10.031  20.578  0.00  0.00    +0.000 A 
BRANCH  11  18
ATOM     17  C   UNL     1      -1.280  11.134  22.977  0.00  0.00    +0.000 C 
ATOM     18  O   UNL     1       0.107  10.928  22.722  0.00  0.00    +0.000 OA
ENDBRANCH  11  18
ENDBRANCH   1  16
BRANCH   8  19
ATOM     19  C   UNL     1       5.397   5.116  18.982  0.00  0.00    +0.000 A 
ATOM     20  N   UNL     1       6.471   5.211  19.749  0.00  0.00    +0.000 NA
ATOM     21  N   UNL     1       7.587   5.194  18.955  0.00  0.00    +0.000 NA
ATOM     22  C   UNL     1       7.185   5.063  17.715  0.00  0.00    +0.000 A 
ATOM     23  N   UNL     1       5.827   4.960  17.679  0.00  0.00    +0.000 N 
BRANCH  23  24
ATOM     24  C   UNL     1       5.004   4.703  16.510  0.00  0.00    +0.000 C 
ATOM     25  C   UNL     1       4.012   3.549  16.710  0.00  0.00    +0.000 C 
BRANCH  24  26
ATOM     26  C   UNL     1       5.835   4.533  15.240  0.00  0.00    +0.000 C 
ATOM     27  F   UNL     1       6.725   5.527  15.040  0.00  0.00    +0.000 F 
ATOM     28  F   UNL     1       6.542   3.377  15.264  0.00  0.00    +0.000 F 
ATOM     29  F   UNL     1       5.037   4.480  14.145  0.00  0.00    +0.000 F 
ENDBRANCH  24  26
ENDBRANCH  23  24
ENDBRANCH   8  19
TORSDOF 5
ENDMDL
