MODEL 1
REMARK VINA RESULT:      -7.7      0.000      0.000
REMARK  Name = 
REMARK  14 active torsions:
REMARK  status: ('A' for Active; 'I' for Inactive)
REMARK    1  A    between atoms: C_1  and  O_2
REMARK    2  A    between atoms: O_2  and  C_3
REMARK    3  A    between atoms: C_3  and  C_4
REMARK    4  A    between atoms: C_4  and  O_5
REMARK    5  A    between atoms: O_5  and  C_6
REMARK    6  A    between atoms: C_16  and  C_17
REMARK    7  A    between atoms: C_17  and  C_18
REMARK    8  A    between atoms: C_18  and  C_19
REMARK    9  A    between atoms: C_21  and  O_22
REMARK   10  A    between atoms: O_22  and  C_23
REMARK   11  A    between atoms: C_25  and  O_26
REMARK   12  A    between atoms: O_26  and  C_27
REMARK   13  A    between atoms: C_33  and  O_34
REMARK   14  A    between atoms: O_34  and  C_35
REMARK                            x       y       z     vdW  Elec       q    Type
REMARK                         _______ _______ _______ _____ _____    ______ ____
ROOT
ATOM      1  C   UNL     1       3.488   5.332  18.444  0.00  0.00    +0.000 A 
ATOM      2  C   UNL     1       3.316   6.529  17.713  0.00  0.00    +0.000 A 
ATOM      3  C   UNL     1       2.646   7.640  18.203  0.00  0.00    +0.000 A 
ATOM      4  N   UNL     1       2.489   8.708  17.418  0.00  0.00    +0.000 NA
ATOM      5  C   UNL     1       1.811   9.740  17.931  0.00  0.00    +0.000 A 
ATOM      6  N   UNL     1       1.297   9.803  19.161  0.00  0.00    +0.000 NA
ATOM      7  C   UNL     1       1.480   8.738  19.958  0.00  0.00    +0.000 A 
ATOM      8  N   UNL     1       0.956   8.743  21.274  0.00  0.00    +0.000 N 
ATOM      9  C   UNL     1       0.129   9.630  21.871  0.00  0.00    +0.000 A 
ATOM     10  C   UNL     1      -0.719  10.556  21.237  0.00  0.00    +0.000 A 
ATOM     11  C   UNL     1      -1.284  11.299  22.251  0.00  0.00    +0.000 A 
ATOM     12  N   UNL     1      -0.848  10.704  23.403  0.00  0.00    +0.000 N 
ATOM     13  N   UNL     1       0.037   9.717  23.203  0.00  0.00    +0.000 NA
ATOM     14  C   UNL     1       2.144   7.585  19.499  0.00  0.00    +0.000 A 
ATOM     15  C   UNL     1       2.308   6.393  20.244  0.00  0.00    +0.000 A 
ATOM     16  C   UNL     1       2.982   5.268  19.747  0.00  0.00    +0.000 A 
ATOM     17  H   UNL     1       1.597   8.319  21.931  0.00  0.00    +0.000 HD
ATOM     18  H   UNL     1      -1.077  10.946  24.361  0.00  0.00    +0.000 HD
ENDROOT
BRANCH  16  19
ATOM     19  O   UNL     1       2.888   4.249  20.647  0.00  0.00    +0.000 OA
ATOM     20  C   UNL     1       1.943   3.204  20.522  0.00  0.00    +0.000 C 
ENDBRANCH  16  19
BRANCH   1  21
ATOM     21  O   UNL     1       4.111   4.401  17.659  0.00  0.00    +0.000 OA
BRANCH  21  22
ATOM     22  C   UNL     1       5.523   4.413  17.626  0.00  0.00    +0.000 C 
BRANCH  22  23
ATOM     23  C   UNL     1       6.111   4.722  16.256  0.00  0.00    +0.000 C 
BRANCH  23  25
ATOM     24  C   UNL     1       7.436   6.072  17.700  0.00  0.00    +0.000 C 
ATOM     25  O   UNL     1       7.397   5.296  16.519  0.00  0.00    +0.000 OA
ENDBRANCH  23  25
ENDBRANCH  22  23
ENDBRANCH  21  22
ENDBRANCH   1  21
BRANCH  11  26
ATOM     26  C   UNL     1      -2.164  12.501  22.208  0.00  0.00    +0.000 C 
BRANCH  26  27
ATOM     27  C   UNL     1      -2.223  13.133  20.812  0.00  0.00    +0.000 C 
BRANCH  27  28
ATOM     28  C   UNL     1      -3.320  12.553  19.961  0.00  0.00    +0.000 A 
ATOM     29  C   UNL     1      -3.042  12.058  18.683  0.00  0.00    +0.000 A 
ATOM     30  C   UNL     1      -4.063  11.545  17.883  0.00  0.00    +0.000 A 
ATOM     31  C   UNL     1      -5.367  11.494  18.378  0.00  0.00    +0.000 A 
ATOM     32  C   UNL     1      -5.661  11.984  19.655  0.00  0.00    +0.000 A 
ATOM     33  C   UNL     1      -4.638  12.517  20.438  0.00  0.00    +0.000 A 
BRANCH  30  34
ATOM     34  O   UNL     1      -3.667  11.096  16.653  0.00  0.00    +0.000 OA
ATOM     35  C   UNL     1      -3.046   9.815  16.651  0.00  0.00    +0.000 C 
ENDBRANCH  30  34
BRANCH  32  36
ATOM     36  O   UNL     1      -6.977  11.889  20.020  0.00  0.00    +0.000 OA
ATOM     37  C   UNL     1      -7.282  12.154  21.385  0.00  0.00    +0.000 C 
ENDBRANCH  32  36
ENDBRANCH  27  28
ENDBRANCH  26  27
ENDBRANCH  11  26
TORSDOF 10
ENDMDL
MODEL 2
REMARK VINA RESULT:      -7.6      1.095      2.309
REMARK  Name = 
REMARK  14 active torsions:
REMARK  status: ('A' for Active; 'I' for Inactive)
REMARK    1  A    between atoms: C_1  and  O_2
REMARK    2  A    between atoms: O_2  and  C_3
REMARK    3  A    between atoms: C_3  and  C_4
REMARK    4  A    between atoms: C_4  and  O_5
REMARK    5  A    between atoms: O_5  and  C_6
REMARK    6  A    between atoms: C_16  and  C_17
REMARK    7  A    between atoms: C_17  and  C_18
REMARK    8  A    between atoms: C_18  and  C_19
REMARK    9  A    between atoms: C_21  and  O_22
REMARK   10  A    between atoms: O_22  and  C_23
REMARK   11  A    between atoms: C_25  and  O_26
REMARK   12  A    between atoms: O_26  and  C_27
REMARK   13  A    between atoms: C_33  and  O_34
REMARK   14  A    between atoms: O_34  and  C_35
REMARK                            x       y       z     vdW  Elec       q    Type
REMARK                         _______ _______ _______ _____ _____    ______ ____
ROOT
ATOM      1  C   UNL     1       3.118   4.802  19.278  0.00  0.00    +0.000 A 
ATOM      2  C   UNL     1       3.056   5.916  18.411  0.00  0.00    +0.000 A 
ATOM      3  C   UNL     1       2.443   7.114  18.742  0.00  0.00    +0.000 A 
ATOM      4  N   UNL     1       2.389   8.093  17.836  0.00  0.00    +0.000 NA
ATOM      5  C   UNL     1       1.762   9.218  18.199  0.00  0.00    +0.000 A 
ATOM      6  N   UNL     1       1.207   9.453  19.390  0.00  0.00    +0.000 NA
ATOM      7  C   UNL     1       1.286   8.477  20.308  0.00  0.00    +0.000 A 
ATOM      8  N   UNL     1       0.714   8.666  21.589  0.00  0.00    +0.000 N 
ATOM      9  C   UNL     1      -0.074   9.665  22.045  0.00  0.00    +0.000 A 
ATOM     10  C   UNL     1      -0.833  10.563  21.273  0.00  0.00    +0.000 A 
ATOM     11  C   UNL     1      -1.385  11.451  22.171  0.00  0.00    +0.000 A 
ATOM     12  N   UNL     1      -1.035  10.966  23.400  0.00  0.00    +0.000 N 
ATOM     13  N   UNL     1      -0.212   9.910  23.353  0.00  0.00    +0.000 NA
ATOM     14  C   UNL     1       1.889   7.240  20.011  0.00  0.00    +0.000 A 
ATOM     15  C   UNL     1       1.944   6.134  20.892  0.00  0.00    +0.000 A 
ATOM     16  C   UNL     1       2.559   4.919  20.555  0.00  0.00    +0.000 A 
ATOM     17  H   UNL     1       1.299   8.280  22.318  0.00  0.00    +0.000 HD
ATOM     18  H   UNL     1      -1.285  11.330  24.313  0.00  0.00    +0.000 HD
ENDROOT
BRANCH  16  19
ATOM     19  O   UNL     1       2.362   4.018  21.559  0.00  0.00    +0.000 OA
ATOM     20  C   UNL     1       1.837   2.724  21.332  0.00  0.00    +0.000 C 
ENDBRANCH  16  19
BRANCH   1  21
ATOM     21  O   UNL     1       3.707   3.750  18.632  0.00  0.00    +0.000 OA
BRANCH  21  22
ATOM     22  C   UNL     1       5.080   3.521  18.871  0.00  0.00    +0.000 C 
BRANCH  22  23
ATOM     23  C   UNL     1       5.992   4.635  18.378  0.00  0.00    +0.000 C 
BRANCH  23  25
ATOM     24  C   UNL     1       7.910   5.795  19.178  0.00  0.00    +0.000 C 
ATOM     25  O   UNL     1       6.790   4.998  19.511  0.00  0.00    +0.000 OA
ENDBRANCH  23  25
ENDBRANCH  22  23
ENDBRANCH  21  22
ENDBRANCH   1  21
BRANCH  11  26
ATOM     26  C   UNL     1      -2.181  12.693  21.953  0.00  0.00    +0.000 C 
BRANCH  26  27
ATOM     27  C   UNL     1      -1.951  13.299  20.563  0.00  0.00    +0.000 C 
BRANCH  27  28
ATOM     28  C   UNL     1      -2.776  12.631  19.497  0.00  0.00    +0.000 A 
ATOM     29  C   UNL     1      -4.168  12.558  19.618  0.00  0.00    +0.000 A 
ATOM     30  C   UNL     1      -4.931  11.915  18.643  0.00  0.00    +0.000 A 
ATOM     31  C   UNL     1      -4.302  11.372  17.522  0.00  0.00    +0.000 A 
ATOM     32  C   UNL     1      -2.912  11.439  17.386  0.00  0.00    +0.000 A 
ATOM     33  C   UNL     1      -2.154  12.062  18.378  0.00  0.00    +0.000 A 
BRANCH  30  34
ATOM     34  O   UNL     1      -6.279  11.904  18.875  0.00  0.00    +0.000 OA
ATOM     35  C   UNL     1      -6.749  10.799  19.640  0.00  0.00    +0.000 C 
ENDBRANCH  30  34
BRANCH  32  36
ATOM     36  O   UNL     1      -2.414  10.860  16.249  0.00  0.00    +0.000 OA
ATOM     37  C   UNL     1      -3.367  10.353  15.321  0.00  0.00    +0.000 C 
ENDBRANCH  32  36
ENDBRANCH  27  28
ENDBRANCH  26  27
ENDBRANCH  11  26
TORSDOF 10
ENDMDL
MODEL 3
REMARK VINA RESULT:      -7.6      0.920      2.312
REMARK  Name = 
REMARK  14 active torsions:
REMARK  status: ('A' for Active; 'I' for Inactive)
REMARK    1  A    between atoms: C_1  and  O_2
REMARK    2  A    between atoms: O_2  and  C_3
REMARK    3  A    between atoms: C_3  and  C_4
REMARK    4  A    between atoms: C_4  and  O_5
REMARK    5  A    between atoms: O_5  and  C_6
REMARK    6  A    between atoms: C_16  and  C_17
REMARK    7  A    between atoms: C_17  and  C_18
REMARK    8  A    between atoms: C_18  and  C_19
REMARK    9  A    between atoms: C_21  and  O_22
REMARK   10  A    between atoms: O_22  and  C_23
REMARK   11  A    between atoms: C_25  and  O_26
REMARK   12  A    between atoms: O_26  and  C_27
REMARK   13  A    between atoms: C_33  and  O_34
REMARK   14  A    between atoms: O_34  and  C_35
REMARK                            x       y       z     vdW  Elec       q    Type
REMARK                         _______ _______ _______ _____ _____    ______ ____
ROOT
ATOM      1  C   UNL     1       2.981   5.010  19.158  0.00  0.00    +0.000 A 
ATOM      2  C   UNL     1       2.993   6.107  18.267  0.00  0.00    +0.000 A 
ATOM      3  C   UNL     1       2.432   7.340  18.559  0.00  0.00    +0.000 A 
ATOM      4  N   UNL     1       2.445   8.301  17.632  0.00  0.00    +0.000 NA
ATOM      5  C   UNL     1       1.866   9.462  17.958  0.00  0.00    +0.000 A 
ATOM      6  N   UNL     1       1.296   9.750  19.129  0.00  0.00    +0.000 NA
ATOM      7  C   UNL     1       1.307   8.790  20.069  0.00  0.00    +0.000 A 
ATOM      8  N   UNL     1       0.716   9.034  21.332  0.00  0.00    +0.000 N 
ATOM      9  C   UNL     1      -0.033  10.080  21.749  0.00  0.00    +0.000 A 
ATOM     10  C   UNL     1      -0.729  10.997  20.941  0.00  0.00    +0.000 A 
ATOM     11  C   UNL     1      -1.258  11.930  21.807  0.00  0.00    +0.000 A 
ATOM     12  N   UNL     1      -0.960  11.455  23.054  0.00  0.00    +0.000 N 
ATOM     13  N   UNL     1      -0.188  10.359  23.048  0.00  0.00    +0.000 NA
ATOM     14  C   UNL     1       1.856   7.520  19.812  0.00  0.00    +0.000 A 
ATOM     15  C   UNL     1       1.837   6.431  20.716  0.00  0.00    +0.000 A 
ATOM     16  C   UNL     1       2.400   5.182  20.419  0.00  0.00    +0.000 A 
ATOM     17  H   UNL     1       1.265   8.637  22.083  0.00  0.00    +0.000 HD
ATOM     18  H   UNL     1      -1.212  11.850  23.954  0.00  0.00    +0.000 HD
ENDROOT
BRANCH  16  19
ATOM     19  O   UNL     1       2.136   4.313  21.436  0.00  0.00    +0.000 OA
ATOM     20  C   UNL     1       1.888   2.937  21.220  0.00  0.00    +0.000 C 
ENDBRANCH  16  19
BRANCH   1  21
ATOM     21  O   UNL     1       3.533   3.917  18.547  0.00  0.00    +0.000 OA
BRANCH  21  22
ATOM     22  C   UNL     1       3.704   3.968  17.146  0.00  0.00    +0.000 C 
BRANCH  22  23
ATOM     23  C   UNL     1       5.127   3.691  16.683  0.00  0.00    +0.000 C 
BRANCH  23  25
ATOM     24  C   UNL     1       6.878   4.840  15.553  0.00  0.00    +0.000 C 
ATOM     25  O   UNL     1       5.599   4.934  16.148  0.00  0.00    +0.000 OA
ENDBRANCH  23  25
ENDBRANCH  22  23
ENDBRANCH  21  22
ENDBRANCH   1  21
BRANCH  11  26
ATOM     26  C   UNL     1      -1.987  13.204  21.545  0.00  0.00    +0.000 C 
BRANCH  26  27
ATOM     27  C   UNL     1      -3.485  13.094  21.854  0.00  0.00    +0.000 C 
BRANCH  27  28
ATOM     28  C   UNL     1      -4.277  12.559  20.693  0.00  0.00    +0.000 A 
ATOM     29  C   UNL     1      -5.633  12.247  20.840  0.00  0.00    +0.000 A 
ATOM     30  C   UNL     1      -6.361  11.726  19.771  0.00  0.00    +0.000 A 
ATOM     31  C   UNL     1      -5.739  11.548  18.535  0.00  0.00    +0.000 A 
ATOM     32  C   UNL     1      -4.385  11.856  18.371  0.00  0.00    +0.000 A 
ATOM     33  C   UNL     1      -3.658  12.354  19.452  0.00  0.00    +0.000 A 
BRANCH  30  34
ATOM     34  O   UNL     1      -7.675  11.456  20.041  0.00  0.00    +0.000 OA
ATOM     35  C   UNL     1      -7.909  10.771  21.267  0.00  0.00    +0.000 C 
ENDBRANCH  30  34
BRANCH  32  36
ATOM     36  O   UNL     1      -3.889  11.626  17.116  0.00  0.00    +0.000 OA
ATOM     37  C   UNL     1      -3.172  10.411  16.925  0.00  0.00    +0.000 C 
ENDBRANCH  32  36
ENDBRANCH  27  28
ENDBRANCH  26  27
ENDBRANCH  11  26
TORSDOF 10
ENDMDL
MODEL 4
REMARK VINA RESULT:      -7.5      1.005      1.029
REMARK  Name = 
REMARK  14 active torsions:
REMARK  status: ('A' for Active; 'I' for Inactive)
REMARK    1  A    between atoms: C_1  and  O_2
REMARK    2  A    between atoms: O_2  and  C_3
REMARK    3  A    between atoms: C_3  and  C_4
REMARK    4  A    between atoms: C_4  and  O_5
REMARK    5  A    between atoms: O_5  and  C_6
REMARK    6  A    between atoms: C_16  and  C_17
REMARK    7  A    between atoms: C_17  and  C_18
REMARK    8  A    between atoms: C_18  and  C_19
REMARK    9  A    between atoms: C_21  and  O_22
REMARK   10  A    between atoms: O_22  and  C_23
REMARK   11  A    between atoms: C_25  and  O_26
REMARK   12  A    between atoms: O_26  and  C_27
REMARK   13  A    between atoms: C_33  and  O_34
REMARK   14  A    between atoms: O_34  and  C_35
REMARK                            x       y       z     vdW  Elec       q    Type
REMARK                         _______ _______ _______ _____ _____    ______ ____
ROOT
ATOM      1  C   UNL     1       3.770   4.728  18.390  0.00  0.00    +0.000 A 
ATOM      2  C   UNL     1       3.572   5.906  17.636  0.00  0.00    +0.000 A 
ATOM      3  C   UNL     1       2.922   7.029  18.122  0.00  0.00    +0.000 A 
ATOM      4  N   UNL     1       2.735   8.077  17.316  0.00  0.00    +0.000 NA
ATOM      5  C   UNL     1       2.078   9.123  17.828  0.00  0.00    +0.000 A 
ATOM      6  N   UNL     1       1.613   9.220  19.075  0.00  0.00    +0.000 NA
ATOM      7  C   UNL     1       1.825   8.175  19.892  0.00  0.00    +0.000 A 
ATOM      8  N   UNL     1       1.353   8.216  21.226  0.00  0.00    +0.000 N 
ATOM      9  C   UNL     1       0.551   9.119  21.832  0.00  0.00    +0.000 A 
ATOM     10  C   UNL     1      -0.320  10.030  21.207  0.00  0.00    +0.000 A 
ATOM     11  C   UNL     1      -0.845  10.800  22.223  0.00  0.00    +0.000 A 
ATOM     12  N   UNL     1      -0.365  10.235  23.372  0.00  0.00    +0.000 N 
ATOM     13  N   UNL     1       0.510   9.241  23.164  0.00  0.00    +0.000 NA
ATOM     14  C   UNL     1       2.470   7.010  19.437  0.00  0.00    +0.000 A 
ATOM     15  C   UNL     1       2.663   5.837  20.207  0.00  0.00    +0.000 A 
ATOM     16  C   UNL     1       3.316   4.699  19.713  0.00  0.00    +0.000 A 
ATOM     17  H   UNL     1       2.019   7.807  21.869  0.00  0.00    +0.000 HD
ATOM     18  H   UNL     1      -0.557  10.502  24.331  0.00  0.00    +0.000 HD
ENDROOT
BRANCH  16  19
ATOM     19  O   UNL     1       3.256   3.704  20.643  0.00  0.00    +0.000 OA
ATOM     20  C   UNL     1       2.198   3.592  21.575  0.00  0.00    +0.000 C 
ENDBRANCH  16  19
BRANCH   1  21
ATOM     21  O   UNL     1       4.362   3.775  17.606  0.00  0.00    +0.000 OA
BRANCH  21  22
ATOM     22  C   UNL     1       5.769   3.809  17.485  0.00  0.00    +0.000 C 
BRANCH  22  23
ATOM     23  C   UNL     1       6.280   4.793  16.443  0.00  0.00    +0.000 C 
BRANCH  23  25
ATOM     24  C   UNL     1       7.946   4.877  18.141  0.00  0.00    +0.000 C 
ATOM     25  O   UNL     1       7.663   4.995  16.760  0.00  0.00    +0.000 OA
ENDBRANCH  23  25
ENDBRANCH  22  23
ENDBRANCH  21  22
ENDBRANCH   1  21
BRANCH  11  26
ATOM     26  C   UNL     1      -1.726  12.002  22.182  0.00  0.00    +0.000 C 
BRANCH  26  27
ATOM     27  C   UNL     1      -1.583  12.788  20.874  0.00  0.00    +0.000 C 
BRANCH  27  28
ATOM     28  C   UNL     1      -2.549  12.329  19.816  0.00  0.00    +0.000 A 
ATOM     29  C   UNL     1      -2.090  11.667  18.672  0.00  0.00    +0.000 A 
ATOM     30  C   UNL     1      -2.983  11.266  17.678  0.00  0.00    +0.000 A 
ATOM     31  C   UNL     1      -4.349  11.496  17.845  0.00  0.00    +0.000 A 
ATOM     32  C   UNL     1      -4.824  12.155  18.983  0.00  0.00    +0.000 A 
ATOM     33  C   UNL     1      -3.922  12.575  19.960  0.00  0.00    +0.000 A 
BRANCH  30  34
ATOM     34  O   UNL     1      -2.413  10.634  16.607  0.00  0.00    +0.000 OA
ATOM     35  C   UNL     1      -3.049  10.876  15.357  0.00  0.00    +0.000 C 
ENDBRANCH  30  34
BRANCH  32  36
ATOM     36  O   UNL     1      -6.181  12.332  19.023  0.00  0.00    +0.000 OA
ATOM     37  C   UNL     1      -6.948  11.606  18.069  0.00  0.00    +0.000 C 
ENDBRANCH  32  36
ENDBRANCH  27  28
ENDBRANCH  26  27
ENDBRANCH  11  26
TORSDOF 10
ENDMDL
MODEL 5
REMARK VINA RESULT:      -7.4      1.535      2.724
REMARK  Name = 
REMARK  14 active torsions:
REMARK  status: ('A' for Active; 'I' for Inactive)
REMARK    1  A    between atoms: C_1  and  O_2
REMARK    2  A    between atoms: O_2  and  C_3
REMARK    3  A    between atoms: C_3  and  C_4
REMARK    4  A    between atoms: C_4  and  O_5
REMARK    5  A    between atoms: O_5  and  C_6
REMARK    6  A    between atoms: C_16  and  C_17
REMARK    7  A    between atoms: C_17  and  C_18
REMARK    8  A    between atoms: C_18  and  C_19
REMARK    9  A    between atoms: C_21  and  O_22
REMARK   10  A    between atoms: O_22  and  C_23
REMARK   11  A    between atoms: C_25  and  O_26
REMARK   12  A    between atoms: O_26  and  C_27
REMARK   13  A    between atoms: C_33  and  O_34
REMARK   14  A    between atoms: O_34  and  C_35
REMARK                            x       y       z     vdW  Elec       q    Type
REMARK                         _______ _______ _______ _____ _____    ______ ____
ROOT
ATOM      1  C   UNL     1       2.979   5.584  18.924  0.00  0.00    +0.000 A 
ATOM      2  C   UNL     1       2.903   6.724  18.093  0.00  0.00    +0.000 A 
ATOM      3  C   UNL     1       2.289   7.908  18.468  0.00  0.00    +0.000 A 
ATOM      4  N   UNL     1       2.220   8.915  17.594  0.00  0.00    +0.000 NA
ATOM      5  C   UNL     1       1.593  10.024  17.998  0.00  0.00    +0.000 A 
ATOM      6  N   UNL     1       1.048  10.220  19.201  0.00  0.00    +0.000 NA
ATOM      7  C   UNL     1       1.141   9.215  20.087  0.00  0.00    +0.000 A 
ATOM      8  N   UNL     1       0.581   9.361  21.379  0.00  0.00    +0.000 N 
ATOM      9  C   UNL     1      -0.207  10.342  21.874  0.00  0.00    +0.000 A 
ATOM     10  C   UNL     1      -0.977  11.260  21.138  0.00  0.00    +0.000 A 
ATOM     11  C   UNL     1      -1.525  12.117  22.069  0.00  0.00    +0.000 A 
ATOM     12  N   UNL     1      -1.160  11.596  23.279  0.00  0.00    +0.000 N 
ATOM     13  N   UNL     1      -0.333  10.545  23.190  0.00  0.00    +0.000 NA
ATOM     14  C   UNL     1       1.746   7.992  19.746  0.00  0.00    +0.000 A 
ATOM     15  C   UNL     1       1.815   6.858  20.591  0.00  0.00    +0.000 A 
ATOM     16  C   UNL     1       2.433   5.658  20.210  0.00  0.00    +0.000 A 
ATOM     17  H   UNL     1       1.175   8.956  22.090  0.00  0.00    +0.000 HD
ATOM     18  H   UNL     1      -1.403  11.930  24.206  0.00  0.00    +0.000 HD
ENDROOT
BRANCH  16  19
ATOM     19  O   UNL     1       2.250   4.725  21.187  0.00  0.00    +0.000 OA
ATOM     20  C   UNL     1       1.542   3.519  20.968  0.00  0.00    +0.000 C 
ENDBRANCH  16  19
BRANCH   1  21
ATOM     21  O   UNL     1       3.566   4.555  18.239  0.00  0.00    +0.000 OA
BRANCH  21  22
ATOM     22  C   UNL     1       4.816   4.089  18.704  0.00  0.00    +0.000 C 
BRANCH  22  23
ATOM     23  C   UNL     1       5.942   5.106  18.588  0.00  0.00    +0.000 C 
BRANCH  23  25
ATOM     24  C   UNL     1       6.374   4.247  16.411  0.00  0.00    +0.000 C 
ATOM     25  O   UNL     1       6.055   5.385  17.187  0.00  0.00    +0.000 OA
ENDBRANCH  23  25
ENDBRANCH  22  23
ENDBRANCH  21  22
ENDBRANCH   1  21
BRANCH  11  26
ATOM     26  C   UNL     1      -2.328  13.362  21.898  0.00  0.00    +0.000 C 
BRANCH  26  27
ATOM     27  C   UNL     1      -3.160  13.348  20.610  0.00  0.00    +0.000 C 
BRANCH  27  28
ATOM     28  C   UNL     1      -4.621  13.095  20.868  0.00  0.00    +0.000 A 
ATOM     29  C   UNL     1      -5.293  13.784  21.883  0.00  0.00    +0.000 A 
ATOM     30  C   UNL     1      -6.640  13.530  22.140  0.00  0.00    +0.000 A 
ATOM     31  C   UNL     1      -7.330  12.607  21.353  0.00  0.00    +0.000 A 
ATOM     32  C   UNL     1      -6.672  11.911  20.334  0.00  0.00    +0.000 A 
ATOM     33  C   UNL     1      -5.319  12.153  20.100  0.00  0.00    +0.000 A 
BRANCH  30  34
ATOM     34  O   UNL     1      -7.184  14.261  23.160  0.00  0.00    +0.000 OA
ATOM     35  C   UNL     1      -6.291  15.175  23.788  0.00  0.00    +0.000 C 
ENDBRANCH  30  34
BRANCH  32  36
ATOM     36  O   UNL     1      -7.454  11.025  19.642  0.00  0.00    +0.000 OA
ATOM     37  C   UNL     1      -6.843   9.798  19.260  0.00  0.00    +0.000 C 
ENDBRANCH  32  36
ENDBRANCH  27  28
ENDBRANCH  26  27
ENDBRANCH  11  26
TORSDOF 10
ENDMDL
MODEL 6
REMARK VINA RESULT:      -7.4      3.733      9.981
REMARK  Name = 
REMARK  14 active torsions:
REMARK  status: ('A' for Active; 'I' for Inactive)
REMARK    1  A    between atoms: C_1  and  O_2
REMARK    2  A    between atoms: O_2  and  C_3
REMARK    3  A    between atoms: C_3  and  C_4
REMARK    4  A    between atoms: C_4  and  O_5
REMARK    5  A    between atoms: O_5  and  C_6
REMARK    6  A    between atoms: C_16  and  C_17
REMARK    7  A    between atoms: C_17  and  C_18
REMARK    8  A    between atoms: C_18  and  C_19
REMARK    9  A    between atoms: C_21  and  O_22
REMARK   10  A    between atoms: O_22  and  C_23
REMARK   11  A    between atoms: C_25  and  O_26
REMARK   12  A    between atoms: O_26  and  C_27
REMARK   13  A    between atoms: C_33  and  O_34
REMARK   14  A    between atoms: O_34  and  C_35
REMARK                            x       y       z     vdW  Elec       q    Type
REMARK                         _______ _______ _______ _____ _____    ______ ____
ROOT
ATOM      1  C   UNL     1       0.414  11.824  20.685  0.00  0.00    +0.000 A 
ATOM      2  C   UNL     1       0.925  11.523  19.404  0.00  0.00    +0.000 A 
ATOM      3  C   UNL     1       1.373  10.265  19.030  0.00  0.00    +0.000 A 
ATOM      4  N   UNL     1       1.890  10.090  17.812  0.00  0.00    +0.000 NA
ATOM      5  C   UNL     1       2.332   8.863  17.515  0.00  0.00    +0.000 A 
ATOM      6  N   UNL     1       2.283   7.799  18.318  0.00  0.00    +0.000 NA
ATOM      7  C   UNL     1       1.739   7.972  19.534  0.00  0.00    +0.000 A 
ATOM      8  N   UNL     1       1.661   6.881  20.433  0.00  0.00    +0.000 N 
ATOM      9  C   UNL     1       2.196   5.644  20.339  0.00  0.00    +0.000 A 
ATOM     10  C   UNL     1       3.270   5.246  19.522  0.00  0.00    +0.000 A 
ATOM     11  C   UNL     1       3.387   3.883  19.697  0.00  0.00    +0.000 A 
ATOM     12  N   UNL     1       2.483   3.580  20.677  0.00  0.00    +0.000 N 
ATOM     13  N   UNL     1       1.725   4.617  21.056  0.00  0.00    +0.000 NA
ATOM     14  C   UNL     1       1.282   9.233  19.958  0.00  0.00    +0.000 A 
ATOM     15  C   UNL     1       0.770   9.518  21.247  0.00  0.00    +0.000 A 
ATOM     16  C   UNL     1       0.322  10.792  21.626  0.00  0.00    +0.000 A 
ATOM     17  H   UNL     1       0.786   6.879  20.941  0.00  0.00    +0.000 HD
ATOM     18  H   UNL     1       2.299   2.678  21.104  0.00  0.00    +0.000 HD
ENDROOT
BRANCH  16  19
ATOM     19  O   UNL     1      -0.013  10.779  22.947  0.00  0.00    +0.000 OA
ATOM     20  C   UNL     1      -0.371   9.595  23.633  0.00  0.00    +0.000 C 
ENDBRANCH  16  19
BRANCH   1  21
ATOM     21  O   UNL     1       0.140  13.162  20.768  0.00  0.00    +0.000 OA
BRANCH  21  22
ATOM     22  C   UNL     1       0.706  14.007  19.788  0.00  0.00    +0.000 C 
BRANCH  22  23
ATOM     23  C   UNL     1       1.528  15.154  20.356  0.00  0.00    +0.000 C 
BRANCH  23  25
ATOM     24  C   UNL     1       2.390  16.290  18.450  0.00  0.00    +0.000 C 
ATOM     25  O   UNL     1       2.626  15.317  19.448  0.00  0.00    +0.000 OA
ENDBRANCH  23  25
ENDBRANCH  22  23
ENDBRANCH  21  22
ENDBRANCH   1  21
BRANCH  11  26
ATOM     26  C   UNL     1       4.253   2.881  19.013  0.00  0.00    +0.000 C 
BRANCH  26  27
ATOM     27  C   UNL     1       4.112   2.931  17.487  0.00  0.00    +0.000 C 
BRANCH  27  28
ATOM     28  C   UNL     1       5.223   3.701  16.828  0.00  0.00    +0.000 A 
ATOM     29  C   UNL     1       6.135   4.432  17.597  0.00  0.00    +0.000 A 
ATOM     30  C   UNL     1       7.149   5.168  16.985  0.00  0.00    +0.000 A 
ATOM     31  C   UNL     1       7.274   5.147  15.595  0.00  0.00    +0.000 A 
ATOM     32  C   UNL     1       6.371   4.420  14.813  0.00  0.00    +0.000 A 
ATOM     33  C   UNL     1       5.345   3.707  15.432  0.00  0.00    +0.000 A 
BRANCH  30  34
ATOM     34  O   UNL     1       7.974   5.844  17.842  0.00  0.00    +0.000 OA
ATOM     35  C   UNL     1       7.569   5.826  19.207  0.00  0.00    +0.000 C 
ENDBRANCH  30  34
BRANCH  32  36
ATOM     36  O   UNL     1       6.592   4.489  13.463  0.00  0.00    +0.000 OA
ATOM     37  C   UNL     1       5.994   3.472  12.666  0.00  0.00    +0.000 C 
ENDBRANCH  32  36
ENDBRANCH  27  28
ENDBRANCH  26  27
ENDBRANCH  11  26
TORSDOF 10
ENDMDL
MODEL 7
REMARK VINA RESULT:      -7.3      1.404      2.034
REMARK  Name = 
REMARK  14 active torsions:
REMARK  status: ('A' for Active; 'I' for Inactive)
REMARK    1  A    between atoms: C_1  and  O_2
REMARK    2  A    between atoms: O_2  and  C_3
REMARK    3  A    between atoms: C_3  and  C_4
REMARK    4  A    between atoms: C_4  and  O_5
REMARK    5  A    between atoms: O_5  and  C_6
REMARK    6  A    between atoms: C_16  and  C_17
REMARK    7  A    between atoms: C_17  and  C_18
REMARK    8  A    between atoms: C_18  and  C_19
REMARK    9  A    between atoms: C_21  and  O_22
REMARK   10  A    between atoms: O_22  and  C_23
REMARK   11  A    between atoms: C_25  and  O_26
REMARK   12  A    between atoms: O_26  and  C_27
REMARK   13  A    between atoms: C_33  and  O_34
REMARK   14  A    between atoms: O_34  and  C_35
REMARK                            x       y       z     vdW  Elec       q    Type
REMARK                         _______ _______ _______ _____ _____    ______ ____
ROOT
ATOM      1  C   UNL     1       3.529   5.221  18.254  0.00  0.00    +0.000 A 
ATOM      2  C   UNL     1       3.380   6.448  17.570  0.00  0.00    +0.000 A 
ATOM      3  C   UNL     1       2.716   7.546  18.096  0.00  0.00    +0.000 A 
ATOM      4  N   UNL     1       2.580   8.646  17.351  0.00  0.00    +0.000 NA
ATOM      5  C   UNL     1       1.908   9.665  17.898  0.00  0.00    +0.000 A 
ATOM      6  N   UNL     1       1.381   9.686  19.124  0.00  0.00    +0.000 NA
ATOM      7  C   UNL     1       1.542   8.587  19.879  0.00  0.00    +0.000 A 
ATOM      8  N   UNL     1       1.003   8.547  21.188  0.00  0.00    +0.000 N 
ATOM      9  C   UNL     1       0.179   9.419  21.811  0.00  0.00    +0.000 A 
ATOM     10  C   UNL     1      -0.650  10.379  21.205  0.00  0.00    +0.000 A 
ATOM     11  C   UNL     1      -1.219  11.089  22.242  0.00  0.00    +0.000 A 
ATOM     12  N   UNL     1      -0.803  10.444  23.373  0.00  0.00    +0.000 N 
ATOM     13  N   UNL     1       0.072   9.455  23.144  0.00  0.00    +0.000 NA
ATOM     14  C   UNL     1       2.198   7.446  19.382  0.00  0.00    +0.000 A 
ATOM     15  C   UNL     1       2.341   6.224  20.082  0.00  0.00    +0.000 A 
ATOM     16  C   UNL     1       3.007   5.112  19.547  0.00  0.00    +0.000 A 
ATOM     17  H   UNL     1       1.631   8.089  21.835  0.00  0.00    +0.000 HD
ATOM     18  H   UNL     1      -1.041  10.650  24.337  0.00  0.00    +0.000 HD
ENDROOT
BRANCH  16  19
ATOM     19  O   UNL     1       2.891   4.059  20.406  0.00  0.00    +0.000 OA
ATOM     20  C   UNL     1       1.772   3.884  21.253  0.00  0.00    +0.000 C 
ENDBRANCH  16  19
BRANCH   1  21
ATOM     21  O   UNL     1       4.150   4.314  17.440  0.00  0.00    +0.000 OA
BRANCH  21  22
ATOM     22  C   UNL     1       5.562   4.272  17.466  0.00  0.00    +0.000 C 
BRANCH  22  23
ATOM     23  C   UNL     1       6.222   4.700  16.163  0.00  0.00    +0.000 C 
BRANCH  23  25
ATOM     24  C   UNL     1       6.220   3.941  13.907  0.00  0.00    +0.000 C 
ATOM     25  O   UNL     1       6.038   3.597  15.267  0.00  0.00    +0.000 OA
ENDBRANCH  23  25
ENDBRANCH  22  23
ENDBRANCH  21  22
ENDBRANCH   1  21
BRANCH  11  26
ATOM     26  C   UNL     1      -2.085  12.302  22.236  0.00  0.00    +0.000 C 
BRANCH  26  27
ATOM     27  C   UNL     1      -2.752  12.538  20.876  0.00  0.00    +0.000 C 
BRANCH  27  28
ATOM     28  C   UNL     1      -4.237  12.747  20.988  0.00  0.00    +0.000 A 
ATOM     29  C   UNL     1      -5.094  12.334  19.962  0.00  0.00    +0.000 A 
ATOM     30  C   UNL     1      -6.468  12.552  20.054  0.00  0.00    +0.000 A 
ATOM     31  C   UNL     1      -6.996  13.155  21.196  0.00  0.00    +0.000 A 
ATOM     32  C   UNL     1      -6.153  13.572  22.232  0.00  0.00    +0.000 A 
ATOM     33  C   UNL     1      -4.777  13.373  22.120  0.00  0.00    +0.000 A 
BRANCH  30  34
ATOM     34  O   UNL     1      -7.198  12.108  18.986  0.00  0.00    +0.000 OA
ATOM     35  C   UNL     1      -6.715  10.914  18.379  0.00  0.00    +0.000 C 
ENDBRANCH  30  34
BRANCH  32  36
ATOM     36  O   UNL     1      -6.789  14.161  23.291  0.00  0.00    +0.000 OA
ATOM     37  C   UNL     1      -6.156  15.300  23.864  0.00  0.00    +0.000 C 
ENDBRANCH  32  36
ENDBRANCH  27  28
ENDBRANCH  26  27
ENDBRANCH  11  26
TORSDOF 10
ENDMDL
MODEL 8
REMARK VINA RESULT:      -7.2      2.832      3.547
REMARK  Name = 
REMARK  14 active torsions:
REMARK  status: ('A' for Active; 'I' for Inactive)
REMARK    1  A    between atoms: C_1  and  O_2
REMARK    2  A    between atoms: O_2  and  C_3
REMARK    3  A    between atoms: C_3  and  C_4
REMARK    4  A    between atoms: C_4  and  O_5
REMARK    5  A    between atoms: O_5  and  C_6
REMARK    6  A    between atoms: C_16  and  C_17
REMARK    7  A    between atoms: C_17  and  C_18
REMARK    8  A    between atoms: C_18  and  C_19
REMARK    9  A    between atoms: C_21  and  O_22
REMARK   10  A    between atoms: O_22  and  C_23
REMARK   11  A    between atoms: C_25  and  O_26
REMARK   12  A    between atoms: O_26  and  C_27
REMARK   13  A    between atoms: C_33  and  O_34
REMARK   14  A    between atoms: O_34  and  C_35
REMARK                            x       y       z     vdW  Elec       q    Type
REMARK                         _______ _______ _______ _____ _____    ______ ____
ROOT
ATOM      1  C   UNL     1       3.422   4.627  18.621  0.00  0.00    +0.000 A 
ATOM      2  C   UNL     1       3.379   5.821  17.867  0.00  0.00    +0.000 A 
ATOM      3  C   UNL     1       2.781   6.990  18.312  0.00  0.00    +0.000 A 
ATOM      4  N   UNL     1       2.744   8.054  17.505  0.00  0.00    +0.000 NA
ATOM      5  C   UNL     1       2.132   9.146  17.975  0.00  0.00    +0.000 A 
ATOM      6  N   UNL     1       1.574   9.272  19.181  0.00  0.00    +0.000 NA
ATOM      7  C   UNL     1       1.635   8.209  19.999  0.00  0.00    +0.000 A 
ATOM      8  N   UNL     1       1.060   8.279  21.291  0.00  0.00    +0.000 N 
ATOM      9  C   UNL     1       0.283   9.240  21.839  0.00  0.00    +0.000 A 
ATOM     10  C   UNL     1      -0.459  10.220  21.156  0.00  0.00    +0.000 A 
ATOM     11  C   UNL     1      -1.004  11.024  22.135  0.00  0.00    +0.000 A 
ATOM     12  N   UNL     1      -0.666  10.417  23.313  0.00  0.00    +0.000 N 
ATOM     13  N   UNL     1       0.142   9.358  23.165  0.00  0.00    +0.000 NA
ATOM     14  C   UNL     1       2.223   6.999  19.585  0.00  0.00    +0.000 A 
ATOM     15  C   UNL     1       2.258   5.811  20.353  0.00  0.00    +0.000 A 
ATOM     16  C   UNL     1       2.859   4.626  19.901  0.00  0.00    +0.000 A 
ATOM     17  H   UNL     1       1.636   7.816  21.981  0.00  0.00    +0.000 HD
ATOM     18  H   UNL     1      -0.915  10.693  24.256  0.00  0.00    +0.000 HD
ENDROOT
BRANCH  16  19
ATOM     19  O   UNL     1       2.644   3.634  20.811  0.00  0.00    +0.000 OA
ATOM     20  C   UNL     1       1.361   3.096  21.066  0.00  0.00    +0.000 C 
ENDBRANCH  16  19
BRANCH   1  21
ATOM     21  O   UNL     1       3.999   3.635  17.876  0.00  0.00    +0.000 OA
BRANCH  21  22
ATOM     22  C   UNL     1       4.833   4.023  16.804  0.00  0.00    +0.000 C 
BRANCH  22  23
ATOM     23  C   UNL     1       6.278   4.284  17.202  0.00  0.00    +0.000 C 
BRANCH  23  25
ATOM     24  C   UNL     1       6.201   4.104  14.830  0.00  0.00    +0.000 C 
ATOM     25  O   UNL     1       7.005   4.341  15.969  0.00  0.00    +0.000 OA
ENDBRANCH  23  25
ENDBRANCH  22  23
ENDBRANCH  21  22
ENDBRANCH   1  21
BRANCH  11  26
ATOM     26  C   UNL     1      -1.781  12.293  22.037  0.00  0.00    +0.000 C 
BRANCH  26  27
ATOM     27  C   UNL     1      -0.932  13.526  22.366  0.00  0.00    +0.000 C 
BRANCH  27  28
ATOM     28  C   UNL     1      -0.511  14.284  21.137  0.00  0.00    +0.000 A 
ATOM     29  C   UNL     1       0.656  13.933  20.450  0.00  0.00    +0.000 A 
ATOM     30  C   UNL     1       1.061  14.653  19.326  0.00  0.00    +0.000 A 
ATOM     31  C   UNL     1       0.274  15.709  18.863  0.00  0.00    +0.000 A 
ATOM     32  C   UNL     1      -0.896  16.070  19.538  0.00  0.00    +0.000 A 
ATOM     33  C   UNL     1      -1.281  15.361  20.675  0.00  0.00    +0.000 A 
BRANCH  30  34
ATOM     34  O   UNL     1       2.221  14.218  18.746  0.00  0.00    +0.000 OA
ATOM     35  C   UNL     1       2.213  12.855  18.333  0.00  0.00    +0.000 C 
ENDBRANCH  30  34
BRANCH  32  36
ATOM     36  O   UNL     1      -1.573  17.129  18.993  0.00  0.00    +0.000 OA
ATOM     37  C   UNL     1      -0.851  17.944  18.077  0.00  0.00    +0.000 C 
ENDBRANCH  32  36
ENDBRANCH  27  28
ENDBRANCH  26  27
ENDBRANCH  11  26
TORSDOF 10
ENDMDL
MODEL 9
REMARK VINA RESULT:      -7.2      2.473      3.441
REMARK  Name = 
REMARK  14 active torsions:
REMARK  status: ('A' for Active; 'I' for Inactive)
REMARK    1  A    between atoms: C_1  and  O_2
REMARK    2  A    between atoms: O_2  and  C_3
REMARK    3  A    between atoms: C_3  and  C_4
REMARK    4  A    between atoms: C_4  and  O_5
REMARK    5  A    between atoms: O_5  and  C_6
REMARK    6  A    between atoms: C_16  and  C_17
REMARK    7  A    between atoms: C_17  and  C_18
REMARK    8  A    between atoms: C_18  and  C_19
REMARK    9  A    between atoms: C_21  and  O_22
REMARK   10  A    between atoms: O_22  and  C_23
REMARK   11  A    between atoms: C_25  and  O_26
REMARK   12  A    between atoms: O_26  and  C_27
REMARK   13  A    between atoms: C_33  and  O_34
REMARK   14  A    between atoms: O_34  and  C_35
REMARK                            x       y       z     vdW  Elec       q    Type
REMARK                         _______ _______ _______ _____ _____    ______ ____
ROOT
ATOM      1  C   UNL     1       3.193   5.334  18.981  0.00  0.00    +0.000 A 
ATOM      2  C   UNL     1       3.148   6.470  18.142  0.00  0.00    +0.000 A 
ATOM      3  C   UNL     1       2.509   7.652  18.483  0.00  0.00    +0.000 A 
ATOM      4  N   UNL     1       2.474   8.655  17.601  0.00  0.00    +0.000 NA
ATOM      5  C   UNL     1       1.822   9.762  17.972  0.00  0.00    +0.000 A 
ATOM      6  N   UNL     1       1.222   9.959  19.148  0.00  0.00    +0.000 NA
ATOM      7  C   UNL     1       1.281   8.959  20.042  0.00  0.00    +0.000 A 
ATOM      8  N   UNL     1       0.662   9.107  21.307  0.00  0.00    +0.000 N 
ATOM      9  C   UNL     1      -0.154  10.084  21.761  0.00  0.00    +0.000 A 
ATOM     10  C   UNL     1      -0.896  10.994  20.987  0.00  0.00    +0.000 A 
ATOM     11  C   UNL     1      -1.491  11.852  21.888  0.00  0.00    +0.000 A 
ATOM     12  N   UNL     1      -1.178  11.338  23.116  0.00  0.00    +0.000 N 
ATOM     13  N   UNL     1      -0.341  10.293  23.069  0.00  0.00    +0.000 NA
ATOM     14  C   UNL     1       1.909   7.738  19.735  0.00  0.00    +0.000 A 
ATOM     15  C   UNL     1       1.947   6.609  20.587  0.00  0.00    +0.000 A 
ATOM     16  C   UNL     1       2.589   5.411  20.240  0.00  0.00    +0.000 A 
ATOM     17  H   UNL     1       1.226   8.709  22.046  0.00  0.00    +0.000 HD
ATOM     18  H   UNL     1      -1.464  11.674  24.029  0.00  0.00    +0.000 HD
ENDROOT
BRANCH  16  19
ATOM     19  O   UNL     1       2.368   4.481  21.212  0.00  0.00    +0.000 OA
ATOM     20  C   UNL     1       1.469   3.402  21.046  0.00  0.00    +0.000 C 
ENDBRANCH  16  19
BRANCH   1  21
ATOM     21  O   UNL     1       3.818   4.307  18.328  0.00  0.00    +0.000 OA
BRANCH  21  22
ATOM     22  C   UNL     1       5.162   4.037  18.667  0.00  0.00    +0.000 C 
BRANCH  22  23
ATOM     23  C   UNL     1       6.176   4.573  17.667  0.00  0.00    +0.000 C 
BRANCH  23  25
ATOM     24  C   UNL     1       7.580   5.764  19.176  0.00  0.00    +0.000 C 
ATOM     25  O   UNL     1       7.421   4.609  18.375  0.00  0.00    +0.000 OA
ENDBRANCH  23  25
ENDBRANCH  22  23
ENDBRANCH  21  22
ENDBRANCH   1  21
BRANCH  11  26
ATOM     26  C   UNL     1      -2.294  13.090  21.674  0.00  0.00    +0.000 C 
BRANCH  26  27
ATOM     27  C   UNL     1      -2.479  13.896  22.965  0.00  0.00    +0.000 C 
BRANCH  27  28
ATOM     28  C   UNL     1      -3.896  14.361  23.158  0.00  0.00    +0.000 A 
ATOM     29  C   UNL     1      -4.891  13.464  23.564  0.00  0.00    +0.000 A 
ATOM     30  C   UNL     1      -6.210  13.890  23.716  0.00  0.00    +0.000 A 
ATOM     31  C   UNL     1      -6.533  15.230  23.495  0.00  0.00    +0.000 A 
ATOM     32  C   UNL     1      -5.550  16.138  23.090  0.00  0.00    +0.000 A 
ATOM     33  C   UNL     1      -4.238  15.699  22.917  0.00  0.00    +0.000 A 
BRANCH  30  34
ATOM     34  O   UNL     1      -7.090  12.920  24.112  0.00  0.00    +0.000 OA
ATOM     35  C   UNL     1      -7.913  12.395  23.075  0.00  0.00    +0.000 C 
ENDBRANCH  30  34
BRANCH  32  36
ATOM     36  O   UNL     1      -5.994  17.419  22.894  0.00  0.00    +0.000 OA
ATOM     37  C   UNL     1      -7.161  17.807  23.611  0.00  0.00    +0.000 C 
ENDBRANCH  32  36
ENDBRANCH  27  28
ENDBRANCH  26  27
ENDBRANCH  11  26
TORSDOF 10
ENDMDL
