MODEL 1
REMARK VINA RESULT:      -7.8      0.000      0.000
REMARK  Name = 
REMARK  8 active torsions:
REMARK  status: ('A' for Active; 'I' for Inactive)
REMARK    1  A    between atoms: C_1  and  O_2
REMARK    2  A    between atoms: O_2  and  C_3
REMARK    3  A    between atoms: C_7  and  N_8
REMARK    4  A    between atoms: N_11  and  C_12
REMARK    5  A    between atoms: C_12  and  C_13
REMARK    6  A    between atoms: N_19  and  C_20
REMARK    7  A    between atoms: C_25  and  O_26
REMARK    8  A    between atoms: O_26  and  C_27
REMARK                            x       y       z     vdW  Elec       q    Type
REMARK                         _______ _______ _______ _____ _____    ______ ____
ROOT
ATOM      1  C   UNL     1       3.775   5.514  19.635  0.00  0.00    +0.000 A 
ATOM      2  N   UNL     1       2.936   4.556  20.048  0.00  0.00    +0.000 NA
ATOM      3  C   UNL     1       1.747   4.985  20.418  0.00  0.00    +0.000 A 
ATOM      4  N   UNL     1       0.816   4.052  20.816  0.00  0.00    +0.000 N 
ATOM      5  N   UNL     1       1.382   6.250  20.436  0.00  0.00    +0.000 NA
ATOM      6  C   UNL     1       2.283   7.141  20.026  0.00  0.00    +0.000 A 
ATOM      7  N   UNL     1       1.916   8.494  19.969  0.00  0.00    +0.000 N 
ATOM      8  N   UNL     1       3.507   6.824  19.633  0.00  0.00    +0.000 NA
ATOM      9  H   UNL     1       1.243   3.203  21.147  0.00  0.00    +0.000 HD
ATOM     10  H   UNL     1       0.108   4.486  21.401  0.00  0.00    +0.000 HD
ATOM     11  H   UNL     1       2.740   9.060  19.808  0.00  0.00    +0.000 HD
ENDROOT
BRANCH   7  12
ATOM     12  C   UNL     1       0.956   9.107  20.799  0.00  0.00    +0.000 A 
ATOM     13  C   UNL     1       0.969   8.830  22.186  0.00  0.00    +0.000 A 
ATOM     14  C   UNL     1       0.058   9.411  23.065  0.00  0.00    +0.000 A 
ATOM     15  C   UNL     1      -0.863  10.325  22.583  0.00  0.00    +0.000 A 
ATOM     16  C   UNL     1      -0.864  10.650  21.224  0.00  0.00    +0.000 A 
ATOM     17  C   UNL     1       0.032  10.051  20.323  0.00  0.00    +0.000 A 
BRANCH  17  18
ATOM     18  O   UNL     1      -0.106  10.542  19.052  0.00  0.00    +0.000 OA
ATOM     19  C   UNL     1      -1.274  10.205  18.317  0.00  0.00    +0.000 C 
ENDBRANCH  17  18
ENDBRANCH   7  12
BRANCH   1  20
ATOM     20  C   UNL     1       5.079   5.057  19.004  0.00  0.00    +0.000 C 
BRANCH  20  24
ATOM     21  N   UNL     1       6.039   4.454  15.655  0.00  0.00    +0.000 N 
ATOM     22  C   UNL     1       7.010   4.320  16.754  0.00  0.00    +0.000 C 
ATOM     23  C   UNL     1       7.041   5.572  17.663  0.00  0.00    +0.000 C 
ATOM     24  N   UNL     1       5.712   6.056  18.102  0.00  0.00    +0.000 NA
ATOM     25  C   UNL     1       4.911   6.294  16.874  0.00  0.00    +0.000 C 
ATOM     26  C   UNL     1       4.729   5.049  15.980  0.00  0.00    +0.000 C 
BRANCH  21  31
ATOM     27  C   UNL     1       6.163   3.218  12.153  0.00  0.00    +0.000 A 
ATOM     28  C   UNL     1       7.168   4.028  11.628  0.00  0.00    +0.000 A 
ATOM     29  C   UNL     1       7.780   4.988  12.425  0.00  0.00    +0.000 A 
ATOM     30  C   UNL     1       7.389   5.130  13.758  0.00  0.00    +0.000 A 
ATOM     31  C   UNL     1       6.392   4.323  14.324  0.00  0.00    +0.000 A 
ATOM     32  C   UNL     1       5.782   3.375  13.488  0.00  0.00    +0.000 A 
BRANCH  27  34
ATOM     33  C   UNL     1       6.396   1.109  11.087  0.00  0.00    +0.000 C 
ATOM     34  O   UNL     1       5.638   2.298  11.285  0.00  0.00    +0.000 OA
ENDBRANCH  27  34
ENDBRANCH  21  31
ENDBRANCH  20  24
ENDBRANCH   1  20
TORSDOF 6
ENDMDL
MODEL 2
REMARK VINA RESULT:      -7.8      2.684     10.756
REMARK  Name = 
REMARK  8 active torsions:
REMARK  status: ('A' for Active; 'I' for Inactive)
REMARK    1  A    between atoms: C_1  and  O_2
REMARK    2  A    between atoms: O_2  and  C_3
REMARK    3  A    between atoms: C_7  and  N_8
REMARK    4  A    between atoms: N_11  and  C_12
REMARK    5  A    between atoms: C_12  and  C_13
REMARK    6  A    between atoms: N_19  and  C_20
REMARK    7  A    between atoms: C_25  and  O_26
REMARK    8  A    between atoms: O_26  and  C_27
REMARK                            x       y       z     vdW  Elec       q    Type
REMARK                         _______ _______ _______ _____ _____    ______ ____
ROOT
ATOM      1  C   UNL     1       1.839   6.459  20.236  0.00  0.00    +0.000 A 
ATOM      2  N   UNL     1       1.582   5.166  20.470  0.00  0.00    +0.000 NA
ATOM      3  C   UNL     1       2.450   4.326  19.944  0.00  0.00    +0.000 A 
ATOM      4  N   UNL     1       2.273   2.980  20.178  0.00  0.00    +0.000 N 
ATOM      5  N   UNL     1       3.481   4.682  19.208  0.00  0.00    +0.000 NA
ATOM      6  C   UNL     1       3.656   5.987  19.008  0.00  0.00    +0.000 A 
ATOM      7  N   UNL     1       4.776   6.415  18.282  0.00  0.00    +0.000 N 
ATOM      8  N   UNL     1       2.846   6.920  19.487  0.00  0.00    +0.000 NA
ATOM      9  H   UNL     1       1.317   2.751  20.389  0.00  0.00    +0.000 HD
ATOM     10  H   UNL     1       2.745   2.433  19.465  0.00  0.00    +0.000 HD
ATOM     11  H   UNL     1       4.685   7.400  18.069  0.00  0.00    +0.000 HD
ENDROOT
BRANCH   7  12
ATOM     12  C   UNL     1       5.417   5.670  17.271  0.00  0.00    +0.000 A 
ATOM     13  C   UNL     1       4.952   5.777  15.938  0.00  0.00    +0.000 A 
ATOM     14  C   UNL     1       5.547   5.081  14.889  0.00  0.00    +0.000 A 
ATOM     15  C   UNL     1       6.657   4.292  15.140  0.00  0.00    +0.000 A 
ATOM     16  C   UNL     1       7.163   4.208  16.440  0.00  0.00    +0.000 A 
ATOM     17  C   UNL     1       6.556   4.884  17.511  0.00  0.00    +0.000 A 
BRANCH  17  18
ATOM     18  O   UNL     1       7.234   4.705  18.688  0.00  0.00    +0.000 OA
ATOM     19  C   UNL     1       7.900   5.819  19.264  0.00  0.00    +0.000 C 
ENDBRANCH  17  18
ENDBRANCH   7  12
BRANCH   1  20
ATOM     20  C   UNL     1       0.994   7.472  20.987  0.00  0.00    +0.000 C 
BRANCH  20  24
ATOM     21  N   UNL     1      -0.664  10.397  22.083  0.00  0.00    +0.000 N 
ATOM     22  C   UNL     1      -0.500  10.116  20.647  0.00  0.00    +0.000 C 
ATOM     23  C   UNL     1       0.969   9.798  20.276  0.00  0.00    +0.000 C 
ATOM     24  N   UNL     1       1.632   8.806  21.154  0.00  0.00    +0.000 NA
ATOM     25  C   UNL     1       1.518   9.314  22.545  0.00  0.00    +0.000 C 
ATOM     26  C   UNL     1       0.068   9.533  23.028  0.00  0.00    +0.000 C 
BRANCH  21  31
ATOM     27  C   UNL     1      -1.120  13.993  22.899  0.00  0.00    +0.000 A 
ATOM     28  C   UNL     1      -2.332  13.951  23.586  0.00  0.00    +0.000 A 
ATOM     29  C   UNL     1      -2.997  12.742  23.756  0.00  0.00    +0.000 A 
ATOM     30  C   UNL     1      -2.441  11.569  23.242  0.00  0.00    +0.000 A 
ATOM     31  C   UNL     1      -1.218  11.572  22.557  0.00  0.00    +0.000 A 
ATOM     32  C   UNL     1      -0.579  12.810  22.389  0.00  0.00    +0.000 A 
BRANCH  27  34
ATOM     33  C   UNL     1      -1.282  16.219  22.089  0.00  0.00    +0.000 C 
ATOM     34  O   UNL     1      -0.544  15.232  22.802  0.00  0.00    +0.000 OA
ENDBRANCH  27  34
ENDBRANCH  21  31
ENDBRANCH  20  24
ENDBRANCH   1  20
TORSDOF 6
ENDMDL
MODEL 3
REMARK VINA RESULT:      -7.8      2.877     10.892
REMARK  Name = 
REMARK  8 active torsions:
REMARK  status: ('A' for Active; 'I' for Inactive)
REMARK    1  A    between atoms: C_1  and  O_2
REMARK    2  A    between atoms: O_2  and  C_3
REMARK    3  A    between atoms: C_7  and  N_8
REMARK    4  A    between atoms: N_11  and  C_12
REMARK    5  A    between atoms: C_12  and  C_13
REMARK    6  A    between atoms: N_19  and  C_20
REMARK    7  A    between atoms: C_25  and  O_26
REMARK    8  A    between atoms: O_26  and  C_27
REMARK                            x       y       z     vdW  Elec       q    Type
REMARK                         _______ _______ _______ _____ _____    ______ ____
ROOT
ATOM      1  C   UNL     1       1.657   6.595  20.462  0.00  0.00    +0.000 A 
ATOM      2  N   UNL     1       1.499   5.342  20.908  0.00  0.00    +0.000 NA
ATOM      3  C   UNL     1       2.413   4.489  20.493  0.00  0.00    +0.000 A 
ATOM      4  N   UNL     1       2.339   3.190  20.944  0.00  0.00    +0.000 N 
ATOM      5  N   UNL     1       3.399   4.790  19.675  0.00  0.00    +0.000 NA
ATOM      6  C   UNL     1       3.475   6.055  19.264  0.00  0.00    +0.000 A 
ATOM      7  N   UNL     1       4.544   6.435  18.441  0.00  0.00    +0.000 N 
ATOM      8  N   UNL     1       2.611   6.996  19.615  0.00  0.00    +0.000 NA
ATOM      9  H   UNL     1       1.407   2.934  21.222  0.00  0.00    +0.000 HD
ATOM     10  H   UNL     1       2.833   2.568  20.312  0.00  0.00    +0.000 HD
ATOM     11  H   UNL     1       4.377   7.364  18.077  0.00  0.00    +0.000 HD
ENDROOT
BRANCH   7  12
ATOM     12  C   UNL     1       5.214   5.581  17.540  0.00  0.00    +0.000 A 
ATOM     13  C   UNL     1       4.452   4.752  16.683  0.00  0.00    +0.000 A 
ATOM     14  C   UNL     1       5.048   3.896  15.760  0.00  0.00    +0.000 A 
ATOM     15  C   UNL     1       6.427   3.883  15.638  0.00  0.00    +0.000 A 
ATOM     16  C   UNL     1       7.197   4.727  16.440  0.00  0.00    +0.000 A 
ATOM     17  C   UNL     1       6.610   5.575  17.393  0.00  0.00    +0.000 A 
BRANCH  17  18
ATOM     18  O   UNL     1       7.538   6.350  18.039  0.00  0.00    +0.000 OA
ATOM     19  C   UNL     1       7.745   7.680  17.586  0.00  0.00    +0.000 C 
ENDBRANCH  17  18
ENDBRANCH   7  12
BRANCH   1  20
ATOM     20  C   UNL     1       0.758   7.657  21.070  0.00  0.00    +0.000 C 
BRANCH  20  24
ATOM     21  N   UNL     1      -0.838  10.600  22.207  0.00  0.00    +0.000 N 
ATOM     22  C   UNL     1      -0.517  10.419  20.782  0.00  0.00    +0.000 C 
ATOM     23  C   UNL     1       0.964  10.025  20.561  0.00  0.00    +0.000 C 
ATOM     24  N   UNL     1       1.452   8.925  21.423  0.00  0.00    +0.000 NA
ATOM     25  C   UNL     1       1.200   9.332  22.829  0.00  0.00    +0.000 C 
ATOM     26  C   UNL     1      -0.283   9.616  23.155  0.00  0.00    +0.000 C 
BRANCH  21  31
ATOM     27  C   UNL     1      -3.157  12.980  23.869  0.00  0.00    +0.000 A 
ATOM     28  C   UNL     1      -2.477  14.181  23.678  0.00  0.00    +0.000 A 
ATOM     29  C   UNL     1      -1.251  14.193  23.022  0.00  0.00    +0.000 A 
ATOM     30  C   UNL     1      -0.709  12.997  22.549  0.00  0.00    +0.000 A 
ATOM     31  C   UNL     1      -1.372  11.772  22.711  0.00  0.00    +0.000 A 
ATOM     32  C   UNL     1      -2.599  11.792  23.391  0.00  0.00    +0.000 A 
BRANCH  27  34
ATOM     33  C   UNL     1      -5.525  12.919  23.712  0.00  0.00    +0.000 C 
ATOM     34  O   UNL     1      -4.361  13.085  24.514  0.00  0.00    +0.000 OA
ENDBRANCH  27  34
ENDBRANCH  21  31
ENDBRANCH  20  24
ENDBRANCH   1  20
TORSDOF 6
ENDMDL
MODEL 4
REMARK VINA RESULT:      -7.4      3.111     11.128
REMARK  Name = 
REMARK  8 active torsions:
REMARK  status: ('A' for Active; 'I' for Inactive)
REMARK    1  A    between atoms: C_1  and  O_2
REMARK    2  A    between atoms: O_2  and  C_3
REMARK    3  A    between atoms: C_7  and  N_8
REMARK    4  A    between atoms: N_11  and  C_12
REMARK    5  A    between atoms: C_12  and  C_13
REMARK    6  A    between atoms: N_19  and  C_20
REMARK    7  A    between atoms: C_25  and  O_26
REMARK    8  A    between atoms: O_26  and  C_27
REMARK                            x       y       z     vdW  Elec       q    Type
REMARK                         _______ _______ _______ _____ _____    ______ ____
ROOT
ATOM      1  C   UNL     1       1.731   8.309  18.681  0.00  0.00    +0.000 A 
ATOM      2  N   UNL     1       1.639   7.409  19.668  0.00  0.00    +0.000 NA
ATOM      3  C   UNL     1       2.606   6.515  19.692  0.00  0.00    +0.000 A 
ATOM      4  N   UNL     1       2.601   5.581  20.704  0.00  0.00    +0.000 N 
ATOM      5  N   UNL     1       3.584   6.450  18.814  0.00  0.00    +0.000 NA
ATOM      6  C   UNL     1       3.593   7.373  17.853  0.00  0.00    +0.000 A 
ATOM      7  N   UNL     1       4.650   7.380  16.932  0.00  0.00    +0.000 N 
ATOM      8  N   UNL     1       2.671   8.317  17.731  0.00  0.00    +0.000 NA
ATOM      9  H   UNL     1       1.681   5.434  21.083  0.00  0.00    +0.000 HD
ATOM     10  H   UNL     1       3.139   4.763  20.432  0.00  0.00    +0.000 HD
ATOM     11  H   UNL     1       4.435   8.016  16.175  0.00  0.00    +0.000 HD
ENDROOT
BRANCH   7  12
ATOM     12  C   UNL     1       5.380   6.242  16.531  0.00  0.00    +0.000 A 
ATOM     13  C   UNL     1       5.048   5.607  15.312  0.00  0.00    +0.000 A 
ATOM     14  C   UNL     1       5.736   4.488  14.849  0.00  0.00    +0.000 A 
ATOM     15  C   UNL     1       6.811   4.003  15.575  0.00  0.00    +0.000 A 
ATOM     16  C   UNL     1       7.187   4.643  16.758  0.00  0.00    +0.000 A 
ATOM     17  C   UNL     1       6.485   5.756  17.249  0.00  0.00    +0.000 A 
BRANCH  17  18
ATOM     18  O   UNL     1       7.044   6.257  18.395  0.00  0.00    +0.000 OA
ATOM     19  C   UNL     1       7.994   7.308  18.282  0.00  0.00    +0.000 C 
ENDBRANCH  17  18
ENDBRANCH   7  12
BRANCH   1  20
ATOM     20  C   UNL     1       0.764   9.479  18.730  0.00  0.00    +0.000 C 
BRANCH  20  24
ATOM     21  N   UNL     1      -1.059  11.647  20.847  0.00  0.00    +0.000 N 
ATOM     22  C   UNL     1      -0.932  11.930  19.408  0.00  0.00    +0.000 C 
ATOM     23  C   UNL     1       0.541  11.892  18.932  0.00  0.00    +0.000 C 
ATOM     24  N   UNL     1       1.308  10.705  19.373  0.00  0.00    +0.000 NA
ATOM     25  C   UNL     1       1.213  10.654  20.854  0.00  0.00    +0.000 C 
ATOM     26  C   UNL     1      -0.230  10.558  21.398  0.00  0.00    +0.000 C 
BRANCH  21  31
ATOM     27  C   UNL     1      -1.582  14.072  23.613  0.00  0.00    +0.000 A 
ATOM     28  C   UNL     1      -2.965  14.232  23.559  0.00  0.00    +0.000 A 
ATOM     29  C   UNL     1      -3.710  13.556  22.600  0.00  0.00    +0.000 A 
ATOM     30  C   UNL     1      -3.066  12.709  21.695  0.00  0.00    +0.000 A 
ATOM     31  C   UNL     1      -1.678  12.514  21.729  0.00  0.00    +0.000 A 
ATOM     32  C   UNL     1      -0.953  13.223  22.699  0.00  0.00    +0.000 A 
BRANCH  27  34
ATOM     33  C   UNL     1      -1.773  15.269  25.655  0.00  0.00    +0.000 C 
ATOM     34  O   UNL     1      -0.949  14.773  24.605  0.00  0.00    +0.000 OA
ENDBRANCH  27  34
ENDBRANCH  21  31
ENDBRANCH  20  24
ENDBRANCH   1  20
TORSDOF 6
ENDMDL
MODEL 5
REMARK VINA RESULT:      -7.3      3.439     10.493
REMARK  Name = 
REMARK  8 active torsions:
REMARK  status: ('A' for Active; 'I' for Inactive)
REMARK    1  A    between atoms: C_1  and  O_2
REMARK    2  A    between atoms: O_2  and  C_3
REMARK    3  A    between atoms: C_7  and  N_8
REMARK    4  A    between atoms: N_11  and  C_12
REMARK    5  A    between atoms: C_12  and  C_13
REMARK    6  A    between atoms: N_19  and  C_20
REMARK    7  A    between atoms: C_25  and  O_26
REMARK    8  A    between atoms: O_26  and  C_27
REMARK                            x       y       z     vdW  Elec       q    Type
REMARK                         _______ _______ _______ _____ _____    ______ ____
ROOT
ATOM      1  C   UNL     1       2.172   7.878  19.068  0.00  0.00    +0.000 A 
ATOM      2  N   UNL     1       2.107   6.812  19.875  0.00  0.00    +0.000 NA
ATOM      3  C   UNL     1       3.026   5.895  19.653  0.00  0.00    +0.000 A 
ATOM      4  N   UNL     1       3.048   4.787  20.471  0.00  0.00    +0.000 N 
ATOM      5  N   UNL     1       3.932   5.961  18.700  0.00  0.00    +0.000 NA
ATOM      6  C   UNL     1       3.916   7.047  17.930  0.00  0.00    +0.000 A 
ATOM      7  N   UNL     1       4.902   7.189  16.942  0.00  0.00    +0.000 N 
ATOM      8  N   UNL     1       3.039   8.031  18.061  0.00  0.00    +0.000 NA
ATOM      9  H   UNL     1       2.152   4.605  20.891  0.00  0.00    +0.000 HD
ATOM     10  H   UNL     1       3.521   4.016  20.009  0.00  0.00    +0.000 HD
ATOM     11  H   UNL     1       4.664   7.964  16.336  0.00  0.00    +0.000 HD
ENDROOT
BRANCH   7  12
ATOM     12  C   UNL     1       5.540   6.122  16.278  0.00  0.00    +0.000 A 
ATOM     13  C   UNL     1       4.884   5.498  15.190  0.00  0.00    +0.000 A 
ATOM     14  C   UNL     1       5.463   4.447  14.482  0.00  0.00    +0.000 A 
ATOM     15  C   UNL     1       6.739   4.025  14.815  0.00  0.00    +0.000 A 
ATOM     16  C   UNL     1       7.424   4.657  15.855  0.00  0.00    +0.000 A 
ATOM     17  C   UNL     1       6.841   5.699  16.594  0.00  0.00    +0.000 A 
BRANCH  17  18
ATOM     18  O   UNL     1       7.697   6.209  17.535  0.00  0.00    +0.000 OA
ATOM     19  C   UNL     1       7.631   5.701  18.859  0.00  0.00    +0.000 C 
ENDBRANCH  17  18
ENDBRANCH   7  12
BRANCH   1  20
ATOM     20  C   UNL     1       1.273   9.053  19.412  0.00  0.00    +0.000 C 
BRANCH  20  24
ATOM     21  N   UNL     1      -0.037  12.323  19.715  0.00  0.00    +0.000 N 
ATOM     22  C   UNL     1      -0.923  11.177  19.451  0.00  0.00    +0.000 C 
ATOM     23  C   UNL     1      -0.441  10.329  18.250  0.00  0.00    +0.000 C 
ATOM     24  N   UNL     1       0.997   9.973  18.276  0.00  0.00    +0.000 NA
ATOM     25  C   UNL     1       1.755  11.245  18.384  0.00  0.00    +0.000 C 
ATOM     26  C   UNL     1       1.416  12.086  19.634  0.00  0.00    +0.000 C 
BRANCH  21  31
ATOM     27  C   UNL     1      -0.484  15.912  18.865  0.00  0.00    +0.000 A 
ATOM     28  C   UNL     1      -1.380  16.304  19.858  0.00  0.00    +0.000 A 
ATOM     29  C   UNL     1      -1.845  15.378  20.785  0.00  0.00    +0.000 A 
ATOM     30  C   UNL     1      -1.402  14.055  20.721  0.00  0.00    +0.000 A 
ATOM     31  C   UNL     1      -0.491  13.630  19.745  0.00  0.00    +0.000 A 
ATOM     32  C   UNL     1      -0.054  14.585  18.814  0.00  0.00    +0.000 A 
BRANCH  27  34
ATOM     33  C   UNL     1      -0.636  18.198  18.241  0.00  0.00    +0.000 C 
ATOM     34  O   UNL     1      -0.081  16.908  18.014  0.00  0.00    +0.000 OA
ENDBRANCH  27  34
ENDBRANCH  21  31
ENDBRANCH  20  24
ENDBRANCH   1  20
TORSDOF 6
ENDMDL
MODEL 6
REMARK VINA RESULT:      -7.2      3.714     10.722
REMARK  Name = 
REMARK  8 active torsions:
REMARK  status: ('A' for Active; 'I' for Inactive)
REMARK    1  A    between atoms: C_1  and  O_2
REMARK    2  A    between atoms: O_2  and  C_3
REMARK    3  A    between atoms: C_7  and  N_8
REMARK    4  A    between atoms: N_11  and  C_12
REMARK    5  A    between atoms: C_12  and  C_13
REMARK    6  A    between atoms: N_19  and  C_20
REMARK    7  A    between atoms: C_25  and  O_26
REMARK    8  A    between atoms: O_26  and  C_27
REMARK                            x       y       z     vdW  Elec       q    Type
REMARK                         _______ _______ _______ _____ _____    ______ ____
ROOT
ATOM      1  C   UNL     1       1.902   8.513  18.256  0.00  0.00    +0.000 A 
ATOM      2  N   UNL     1       1.724   7.669  19.280  0.00  0.00    +0.000 NA
ATOM      3  C   UNL     1       2.641   6.730  19.388  0.00  0.00    +0.000 A 
ATOM      4  N   UNL     1       2.547   5.850  20.444  0.00  0.00    +0.000 N 
ATOM      5  N   UNL     1       3.648   6.571  18.556  0.00  0.00    +0.000 NA
ATOM      6  C   UNL     1       3.743   7.442  17.553  0.00  0.00    +0.000 A 
ATOM      7  N   UNL     1       4.834   7.348  16.678  0.00  0.00    +0.000 N 
ATOM      8  N   UNL     1       2.878   8.424  17.347  0.00  0.00    +0.000 NA
ATOM      9  H   UNL     1       1.606   5.769  20.791  0.00  0.00    +0.000 HD
ATOM     10  H   UNL     1       3.051   4.993  20.235  0.00  0.00    +0.000 HD
ATOM     11  H   UNL     1       4.683   7.955  15.882  0.00  0.00    +0.000 HD
ENDROOT
BRANCH   7  12
ATOM     12  C   UNL     1       5.518   6.156  16.363  0.00  0.00    +0.000 A 
ATOM     13  C   UNL     1       5.076   5.378  15.267  0.00  0.00    +0.000 A 
ATOM     14  C   UNL     1       5.714   4.198  14.893  0.00  0.00    +0.000 A 
ATOM     15  C   UNL     1       6.843   3.788  15.580  0.00  0.00    +0.000 A 
ATOM     16  C   UNL     1       7.326   4.564  16.636  0.00  0.00    +0.000 A 
ATOM     17  C   UNL     1       6.677   5.743  17.041  0.00  0.00    +0.000 A 
BRANCH  17  18
ATOM     18  O   UNL     1       7.337   6.374  18.062  0.00  0.00    +0.000 OA
ATOM     19  C   UNL     1       7.414   5.725  19.323  0.00  0.00    +0.000 C 
ENDBRANCH  17  18
ENDBRANCH   7  12
BRANCH   1  20
ATOM     20  C   UNL     1       0.997   9.732  18.207  0.00  0.00    +0.000 C 
BRANCH  20  24
ATOM     21  N   UNL     1      -0.134  12.975  19.046  0.00  0.00    +0.000 N 
ATOM     22  C   UNL     1       1.229  12.538  19.393  0.00  0.00    +0.000 C 
ATOM     23  C   UNL     1       1.237  11.184  20.142  0.00  0.00    +0.000 C 
ATOM     24  N   UNL     1       0.414  10.122  19.519  0.00  0.00    +0.000 NA
ATOM     25  C   UNL     1      -0.962  10.663  19.385  0.00  0.00    +0.000 C 
ATOM     26  C   UNL     1      -1.063  11.949  18.536  0.00  0.00    +0.000 C 
BRANCH  21  31
ATOM     27  C   UNL     1      -0.726  16.636  19.273  0.00  0.00    +0.000 A 
ATOM     28  C   UNL     1      -1.672  16.682  20.296  0.00  0.00    +0.000 A 
ATOM     29  C   UNL     1      -2.122  15.507  20.886  0.00  0.00    +0.000 A 
ATOM     30  C   UNL     1      -1.614  14.279  20.455  0.00  0.00    +0.000 A 
ATOM     31  C   UNL     1      -0.651  14.196  19.439  0.00  0.00    +0.000 A 
ATOM     32  C   UNL     1      -0.230  15.399  18.853  0.00  0.00    +0.000 A 
BRANCH  27  34
ATOM     33  C   UNL     1      -0.559  18.060  17.381  0.00  0.00    +0.000 C 
ATOM     34  O   UNL     1      -0.344  17.852  18.773  0.00  0.00    +0.000 OA
ENDBRANCH  27  34
ENDBRANCH  21  31
ENDBRANCH  20  24
ENDBRANCH   1  20
TORSDOF 6
ENDMDL
MODEL 7
REMARK VINA RESULT:      -7.2      2.073      2.801
REMARK  Name = 
REMARK  8 active torsions:
REMARK  status: ('A' for Active; 'I' for Inactive)
REMARK    1  A    between atoms: C_1  and  O_2
REMARK    2  A    between atoms: O_2  and  C_3
REMARK    3  A    between atoms: C_7  and  N_8
REMARK    4  A    between atoms: N_11  and  C_12
REMARK    5  A    between atoms: C_12  and  C_13
REMARK    6  A    between atoms: N_19  and  C_20
REMARK    7  A    between atoms: C_25  and  O_26
REMARK    8  A    between atoms: O_26  and  C_27
REMARK                            x       y       z     vdW  Elec       q    Type
REMARK                         _______ _______ _______ _____ _____    ______ ____
ROOT
ATOM      1  C   UNL     1       2.599   7.063  19.078  0.00  0.00    +0.000 A 
ATOM      2  N   UNL     1       2.113   7.061  20.325  0.00  0.00    +0.000 NA
ATOM      3  C   UNL     1       1.460   8.154  20.665  0.00  0.00    +0.000 A 
ATOM      4  N   UNL     1       0.895   8.207  21.920  0.00  0.00    +0.000 N 
ATOM      5  N   UNL     1       1.308   9.205  19.887  0.00  0.00    +0.000 NA
ATOM      6  C   UNL     1       1.838   9.132  18.668  0.00  0.00    +0.000 A 
ATOM      7  N   UNL     1       1.646  10.204  17.783  0.00  0.00    +0.000 N 
ATOM      8  N   UNL     1       2.515   8.085  18.220  0.00  0.00    +0.000 NA
ATOM      9  H   UNL     1       1.352   7.592  22.571  0.00  0.00    +0.000 HD
ATOM     10  H   UNL     1       0.750   9.173  22.201  0.00  0.00    +0.000 HD
ATOM     11  H   UNL     1       2.240  10.083  16.972  0.00  0.00    +0.000 HD
ENDROOT
BRANCH   7  12
ATOM     12  C   UNL     1       1.474  11.549  18.168  0.00  0.00    +0.000 A 
ATOM     13  C   UNL     1       2.587  12.422  18.133  0.00  0.00    +0.000 A 
ATOM     14  C   UNL     1       2.485  13.765  18.487  0.00  0.00    +0.000 A 
ATOM     15  C   UNL     1       1.250  14.282  18.841  0.00  0.00    +0.000 A 
ATOM     16  C   UNL     1       0.128  13.450  18.837  0.00  0.00    +0.000 A 
ATOM     17  C   UNL     1       0.223  12.088  18.508  0.00  0.00    +0.000 A 
BRANCH  17  18
ATOM     18  O   UNL     1      -0.997  11.466  18.522  0.00  0.00    +0.000 OA
ATOM     19  C   UNL     1      -1.934  11.831  19.526  0.00  0.00    +0.000 C 
ENDBRANCH  17  18
ENDBRANCH   7  12
BRANCH   1  20
ATOM     20  C   UNL     1       3.177   5.755  18.566  0.00  0.00    +0.000 C 
BRANCH  20  24
ATOM     21  N   UNL     1       4.922   4.852  15.626  0.00  0.00    +0.000 N 
ATOM     22  C   UNL     1       4.681   3.866  16.693  0.00  0.00    +0.000 C 
ATOM     23  C   UNL     1       5.127   4.386  18.081  0.00  0.00    +0.000 C 
ATOM     24  N   UNL     1       4.657   5.750  18.417  0.00  0.00    +0.000 NA
ATOM     25  C   UNL     1       5.117   6.646  17.326  0.00  0.00    +0.000 C 
ATOM     26  C   UNL     1       4.601   6.260  15.922  0.00  0.00    +0.000 C 
BRANCH  21  31
ATOM     27  C   UNL     1       6.014   3.378  12.395  0.00  0.00    +0.000 A 
ATOM     28  C   UNL     1       7.272   3.961  12.256  0.00  0.00    +0.000 A 
ATOM     29  C   UNL     1       7.740   4.850  13.217  0.00  0.00    +0.000 A 
ATOM     30  C   UNL     1       6.947   5.149  14.326  0.00  0.00    +0.000 A 
ATOM     31  C   UNL     1       5.682   4.570  14.505  0.00  0.00    +0.000 A 
ATOM     32  C   UNL     1       5.232   3.690  13.510  0.00  0.00    +0.000 A 
BRANCH  27  34
ATOM     33  C   UNL     1       6.492   1.366  11.228  0.00  0.00    +0.000 C 
ATOM     34  O   UNL     1       5.659   2.507  11.399  0.00  0.00    +0.000 OA
ENDBRANCH  27  34
ENDBRANCH  21  31
ENDBRANCH  20  24
ENDBRANCH   1  20
TORSDOF 6
ENDMDL
MODEL 8
REMARK VINA RESULT:      -7.1      4.579      7.882
REMARK  Name = 
REMARK  8 active torsions:
REMARK  status: ('A' for Active; 'I' for Inactive)
REMARK    1  A    between atoms: C_1  and  O_2
REMARK    2  A    between atoms: O_2  and  C_3
REMARK    3  A    between atoms: C_7  and  N_8
REMARK    4  A    between atoms: N_11  and  C_12
REMARK    5  A    between atoms: C_12  and  C_13
REMARK    6  A    between atoms: N_19  and  C_20
REMARK    7  A    between atoms: C_25  and  O_26
REMARK    8  A    between atoms: O_26  and  C_27
REMARK                            x       y       z     vdW  Elec       q    Type
REMARK                         _______ _______ _______ _____ _____    ______ ____
ROOT
ATOM      1  C   UNL     1       0.634  12.549  20.562  0.00  0.00    +0.000 A 
ATOM      2  N   UNL     1       0.874  13.695  19.911  0.00  0.00    +0.000 NA
ATOM      3  C   UNL     1       0.454  14.779  20.530  0.00  0.00    +0.000 A 
ATOM      4  N   UNL     1       0.703  15.999  19.940  0.00  0.00    +0.000 N 
ATOM      5  N   UNL     1      -0.190  14.783  21.678  0.00  0.00    +0.000 NA
ATOM      6  C   UNL     1      -0.404  13.600  22.250  0.00  0.00    +0.000 A 
ATOM      7  N   UNL     1      -1.031  13.559  23.504  0.00  0.00    +0.000 N 
ATOM      8  N   UNL     1      -0.028  12.445  21.719  0.00  0.00    +0.000 NA
ATOM      9  H   UNL     1       0.828  15.924  18.945  0.00  0.00    +0.000 HD
ATOM     10  H   UNL     1       0.052  16.698  20.285  0.00  0.00    +0.000 HD
ATOM     11  H   UNL     1      -1.276  12.604  23.729  0.00  0.00    +0.000 HD
ENDROOT
BRANCH   7  12
ATOM     12  C   UNL     1      -1.958  14.512  23.975  0.00  0.00    +0.000 A 
ATOM     13  C   UNL     1      -3.294  14.457  23.513  0.00  0.00    +0.000 A 
ATOM     14  C   UNL     1      -4.264  15.358  23.948  0.00  0.00    +0.000 A 
ATOM     15  C   UNL     1      -3.931  16.310  24.895  0.00  0.00    +0.000 A 
ATOM     16  C   UNL     1      -2.630  16.353  25.401  0.00  0.00    +0.000 A 
ATOM     17  C   UNL     1      -1.636  15.468  24.951  0.00  0.00    +0.000 A 
BRANCH  17  18
ATOM     18  O   UNL     1      -0.446  15.649  25.606  0.00  0.00    +0.000 OA
ATOM     19  C   UNL     1      -0.444  16.395  26.816  0.00  0.00    +0.000 C 
ENDBRANCH  17  18
ENDBRANCH   7  12
BRANCH   1  20
ATOM     20  C   UNL     1       1.276  11.294  19.998  0.00  0.00    +0.000 C 
BRANCH  20  24
ATOM     21  N   UNL     1       2.025   7.858  19.626  0.00  0.00    +0.000 N 
ATOM     22  C   UNL     1       2.088   8.773  18.474  0.00  0.00    +0.000 C 
ATOM     23  C   UNL     1       0.793   9.606  18.316  0.00  0.00    +0.000 C 
ATOM     24  N   UNL     1       0.311  10.250  19.560  0.00  0.00    +0.000 NA
ATOM     25  C   UNL     1       0.148   9.174  20.570  0.00  0.00    +0.000 C 
ATOM     26  C   UNL     1       1.439   8.382  20.873  0.00  0.00    +0.000 C 
BRANCH  21  31
ATOM     27  C   UNL     1       2.983   4.545  18.244  0.00  0.00    +0.000 A 
ATOM     28  C   UNL     1       2.537   3.702  19.260  0.00  0.00    +0.000 A 
ATOM     29  C   UNL     1       1.945   4.234  20.400  0.00  0.00    +0.000 A 
ATOM     30  C   UNL     1       1.791   5.616  20.517  0.00  0.00    +0.000 A 
ATOM     31  C   UNL     1       2.215   6.493  19.509  0.00  0.00    +0.000 A 
ATOM     32  C   UNL     1       2.823   5.926  18.379  0.00  0.00    +0.000 A 
BRANCH  27  34
ATOM     33  C   UNL     1       4.682   4.537  16.585  0.00  0.00    +0.000 C 
ATOM     34  O   UNL     1       3.538   3.915  17.162  0.00  0.00    +0.000 OA
ENDBRANCH  27  34
ENDBRANCH  21  31
ENDBRANCH  20  24
ENDBRANCH   1  20
TORSDOF 6
ENDMDL
MODEL 9
REMARK VINA RESULT:      -7.1      3.380     10.660
REMARK  Name = 
REMARK  8 active torsions:
REMARK  status: ('A' for Active; 'I' for Inactive)
REMARK    1  A    between atoms: C_1  and  O_2
REMARK    2  A    between atoms: O_2  and  C_3
REMARK    3  A    between atoms: C_7  and  N_8
REMARK    4  A    between atoms: N_11  and  C_12
REMARK    5  A    between atoms: C_12  and  C_13
REMARK    6  A    between atoms: N_19  and  C_20
REMARK    7  A    between atoms: C_25  and  O_26
REMARK    8  A    between atoms: O_26  and  C_27
REMARK                            x       y       z     vdW  Elec       q    Type
REMARK                         _______ _______ _______ _____ _____    ______ ____
ROOT
ATOM      1  C   UNL     1       2.128   7.864  19.099  0.00  0.00    +0.000 A 
ATOM      2  N   UNL     1       2.062   6.803  19.914  0.00  0.00    +0.000 NA
ATOM      3  C   UNL     1       2.988   5.889  19.706  0.00  0.00    +0.000 A 
ATOM      4  N   UNL     1       3.009   4.789  20.533  0.00  0.00    +0.000 N 
ATOM      5  N   UNL     1       3.900   5.952  18.759  0.00  0.00    +0.000 NA
ATOM      6  C   UNL     1       3.884   7.032  17.980  0.00  0.00    +0.000 A 
ATOM      7  N   UNL     1       4.876   7.171  16.998  0.00  0.00    +0.000 N 
ATOM      8  N   UNL     1       3.001   8.012  18.097  0.00  0.00    +0.000 NA
ATOM      9  H   UNL     1       2.112   4.605  20.948  0.00  0.00    +0.000 HD
ATOM     10  H   UNL     1       3.489   4.016  20.081  0.00  0.00    +0.000 HD
ATOM     11  H   UNL     1       4.638   7.940  16.384  0.00  0.00    +0.000 HD
ENDROOT
BRANCH   7  12
ATOM     12  C   UNL     1       5.524   6.102  16.347  0.00  0.00    +0.000 A 
ATOM     13  C   UNL     1       4.875   5.459  15.266  0.00  0.00    +0.000 A 
ATOM     14  C   UNL     1       5.463   4.406  14.570  0.00  0.00    +0.000 A 
ATOM     15  C   UNL     1       6.742   3.998  14.910  0.00  0.00    +0.000 A 
ATOM     16  C   UNL     1       7.421   4.649  15.942  0.00  0.00    +0.000 A 
ATOM     17  C   UNL     1       6.828   5.694  16.669  0.00  0.00    +0.000 A 
BRANCH  17  18
ATOM     18  O   UNL     1       7.679   6.222  17.604  0.00  0.00    +0.000 OA
ATOM     19  C   UNL     1       7.608   5.737  18.937  0.00  0.00    +0.000 C 
ENDBRANCH  17  18
ENDBRANCH   7  12
BRANCH   1  20
ATOM     20  C   UNL     1       1.221   9.037  19.427  0.00  0.00    +0.000 C 
BRANCH  20  24
ATOM     21  N   UNL     1       0.008  12.345  19.722  0.00  0.00    +0.000 N 
ATOM     22  C   UNL     1      -0.912  11.225  19.464  0.00  0.00    +0.000 C 
ATOM     23  C   UNL     1      -0.457  10.358  18.265  0.00  0.00    +0.000 C 
ATOM     24  N   UNL     1       0.969   9.961  18.289  0.00  0.00    +0.000 NA
ATOM     25  C   UNL     1       1.765  11.211  18.392  0.00  0.00    +0.000 C 
ATOM     26  C   UNL     1       1.453  12.065  19.640  0.00  0.00    +0.000 C 
BRANCH  21  31
ATOM     27  C   UNL     1      -1.856  15.429  20.627  0.00  0.00    +0.000 A 
ATOM     28  C   UNL     1      -1.285  16.345  19.745  0.00  0.00    +0.000 A 
ATOM     29  C   UNL     1      -0.278  15.943  18.876  0.00  0.00    +0.000 A 
ATOM     30  C   UNL     1       0.154  14.615  18.884  0.00  0.00    +0.000 A 
ATOM     31  C   UNL     1      -0.408  13.664  19.748  0.00  0.00    +0.000 A 
ATOM     32  C   UNL     1      -1.411  14.105  20.624  0.00  0.00    +0.000 A 
BRANCH  27  34
ATOM     33  C   UNL     1      -2.684  17.268  21.880  0.00  0.00    +0.000 C 
ATOM     34  O   UNL     1      -2.848  15.928  21.429  0.00  0.00    +0.000 OA
ENDBRANCH  27  34
ENDBRANCH  21  31
ENDBRANCH  20  24
ENDBRANCH   1  20
TORSDOF 6
ENDMDL
