MODEL 1
REMARK VINA RESULT:      -7.3      0.000      0.000
REMARK  Name = 
REMARK  10 active torsions:
REMARK  status: ('A' for Active; 'I' for Inactive)
REMARK    1  A    between atoms: C_2  and  C_3
REMARK    2  A    between atoms: C_3  and  N_4
REMARK    3  A    between atoms: N_4  and  C_5
REMARK    4  A    between atoms: C_11  and  O_12
REMARK    5  A    between atoms: O_12  and  C_13
REMARK    6  A    between atoms: N_15  and  C_16
REMARK    7  A    between atoms: N_15  and  C_17
REMARK    8  A    between atoms: C_17  and  C_18
REMARK    9  A    between atoms: C_18  and  C_19
REMARK   10  A    between atoms: C_19  and  C_20
REMARK                            x       y       z     vdW  Elec       q    Type
REMARK                         _______ _______ _______ _____ _____    ______ ____
ROOT
ATOM      1  C   UNL     1       1.679   5.193  19.676  0.00  0.00    +0.000 C 
ATOM      2  C   UNL     1       1.166   4.117  20.666  0.00  0.00    +0.000 C 
ATOM      3  C   UNL     1       1.171   2.799  19.913  0.00  0.00    +0.000 C 
ATOM      4  C   UNL     1       2.295   3.022  18.974  0.00  0.00    +0.000 A 
ATOM      5  C   UNL     1       2.949   2.049  18.254  0.00  0.00    +0.000 A 
ATOM      6  C   UNL     1       3.921   2.425  17.336  0.00  0.00    +0.000 A 
ATOM      7  C   UNL     1       4.220   3.801  17.080  0.00  0.00    +0.000 A 
ATOM      8  C   UNL     1       3.526   4.779  17.841  0.00  0.00    +0.000 A 
ATOM      9  C   UNL     1       2.572   4.363  18.795  0.00  0.00    +0.000 A 
ENDROOT
BRANCH   1  10
ATOM     10  N   UNL     1       2.432   6.263  20.361  0.00  0.00    +0.000 NA
ATOM     11  H   UNL     1       2.257   6.190  21.394  0.00  0.00    +0.000 HD
BRANCH  10  12
ATOM     12  C   UNL     1       2.047   7.625  19.956  0.00  0.00    +0.000 C 
BRANCH  12  14
ATOM     13  C   UNL     1       0.649   8.841  21.881  0.00  0.00    +0.000 C 
ATOM     14  C   UNL     1       1.288   8.322  21.002  0.00  0.00    +0.000 C 
ENDBRANCH  12  14
ENDBRANCH  10  12
ENDBRANCH   1  10
BRANCH   7  15
ATOM     15  O   UNL     1       5.091   4.210  16.089  0.00  0.00    +0.000 OA
BRANCH  15  16
ATOM     16  C   UNL     1       5.627   5.469  16.061  0.00  0.00    +0.000 C 
ATOM     17  O   UNL     1       5.162   6.322  15.323  0.00  0.00    +0.000 OA
ATOM     18  N   UNL     1       6.515   5.858  17.016  0.00  0.00    +0.000 N 
ATOM     19  C   UNL     1       7.375   4.933  17.735  0.00  0.00    +0.000 C 
BRANCH  18  20
ATOM     20  C   UNL     1       6.486   7.258  17.429  0.00  0.00    +0.000 C 
BRANCH  20  21
ATOM     21  C   UNL     1       7.915   7.675  17.893  0.00  0.00    +0.000 C 
BRANCH  21  22
ATOM     22  C   UNL     1       8.121   9.205  17.850  0.00  0.00    +0.000 C 
ATOM     23  C   UNL     1       9.069   9.686  18.948  0.00  0.00    +0.000 C 
ENDBRANCH  21  22
ENDBRANCH  20  21
ENDBRANCH  18  20
ENDBRANCH  15  16
ENDBRANCH   7  15
TORSDOF 8
ENDMDL
MODEL 2
REMARK VINA RESULT:      -7.2      2.289      3.721
REMARK  Name = 
REMARK  10 active torsions:
REMARK  status: ('A' for Active; 'I' for Inactive)
REMARK    1  A    between atoms: C_2  and  C_3
REMARK    2  A    between atoms: C_3  and  N_4
REMARK    3  A    between atoms: N_4  and  C_5
REMARK    4  A    between atoms: C_11  and  O_12
REMARK    5  A    between atoms: O_12  and  C_13
REMARK    6  A    between atoms: N_15  and  C_16
REMARK    7  A    between atoms: N_15  and  C_17
REMARK    8  A    between atoms: C_17  and  C_18
REMARK    9  A    between atoms: C_18  and  C_19
REMARK   10  A    between atoms: C_19  and  C_20
REMARK                            x       y       z     vdW  Elec       q    Type
REMARK                         _______ _______ _______ _____ _____    ______ ____
ROOT
ATOM      1  C   UNL     1       1.894   5.933  19.931  0.00  0.00    +0.000 C 
ATOM      2  C   UNL     1       1.191   4.817  20.743  0.00  0.00    +0.000 C 
ATOM      3  C   UNL     1       1.679   3.496  20.176  0.00  0.00    +0.000 C 
ATOM      4  C   UNL     1       3.038   3.876  19.724  0.00  0.00    +0.000 A 
ATOM      5  C   UNL     1       4.054   3.005  19.405  0.00  0.00    +0.000 A 
ATOM      6  C   UNL     1       5.245   3.511  18.900  0.00  0.00    +0.000 A 
ATOM      7  C   UNL     1       5.422   4.909  18.652  0.00  0.00    +0.000 A 
ATOM      8  C   UNL     1       4.353   5.780  18.994  0.00  0.00    +0.000 A 
ATOM      9  C   UNL     1       3.169   5.239  19.542  0.00  0.00    +0.000 A 
ENDROOT
BRANCH   1  10
ATOM     10  N   UNL     1       2.155   7.134  20.750  0.00  0.00    +0.000 NA
ATOM     11  H   UNL     1       1.837   6.947  21.733  0.00  0.00    +0.000 HD
BRANCH  10  12
ATOM     12  C   UNL     1       1.448   8.342  20.292  0.00  0.00    +0.000 C 
BRANCH  12  14
ATOM     13  C   UNL     1       1.977   8.903  17.733  0.00  0.00    +0.000 C 
ATOM     14  C   UNL     1       1.760   8.672  18.895  0.00  0.00    +0.000 C 
ENDBRANCH  12  14
ENDBRANCH  10  12
ENDBRANCH   1  10
BRANCH   7  15
ATOM     15  O   UNL     1       6.545   5.428  18.038  0.00  0.00    +0.000 OA
BRANCH  15  16
ATOM     16  C   UNL     1       7.032   4.927  16.861  0.00  0.00    +0.000 C 
ATOM     17  O   UNL     1       8.009   4.198  16.858  0.00  0.00    +0.000 OA
ATOM     18  N   UNL     1       6.302   5.031  15.717  0.00  0.00    +0.000 N 
ATOM     19  C   UNL     1       5.328   6.084  15.482  0.00  0.00    +0.000 C 
BRANCH  18  20
ATOM     20  C   UNL     1       6.409   3.942  14.751  0.00  0.00    +0.000 C 
BRANCH  20  21
ATOM     21  C   UNL     1       6.946   4.517  13.404  0.00  0.00    +0.000 C 
BRANCH  21  22
ATOM     22  C   UNL     1       6.634   3.592  12.208  0.00  0.00    +0.000 C 
ATOM     23  C   UNL     1       5.137   3.316  12.073  0.00  0.00    +0.000 C 
ENDBRANCH  21  22
ENDBRANCH  20  21
ENDBRANCH  18  20
ENDBRANCH  15  16
ENDBRANCH   7  15
TORSDOF 8
ENDMDL
MODEL 3
REMARK VINA RESULT:      -7.1      2.741      6.781
REMARK  Name = 
REMARK  10 active torsions:
REMARK  status: ('A' for Active; 'I' for Inactive)
REMARK    1  A    between atoms: C_2  and  C_3
REMARK    2  A    between atoms: C_3  and  N_4
REMARK    3  A    between atoms: N_4  and  C_5
REMARK    4  A    between atoms: C_11  and  O_12
REMARK    5  A    between atoms: O_12  and  C_13
REMARK    6  A    between atoms: N_15  and  C_16
REMARK    7  A    between atoms: N_15  and  C_17
REMARK    8  A    between atoms: C_17  and  C_18
REMARK    9  A    between atoms: C_18  and  C_19
REMARK   10  A    between atoms: C_19  and  C_20
REMARK                            x       y       z     vdW  Elec       q    Type
REMARK                         _______ _______ _______ _____ _____    ______ ____
ROOT
ATOM      1  C   UNL     1       5.800   4.569  15.069  0.00  0.00    +0.000 C 
ATOM      2  C   UNL     1       7.081   5.425  15.231  0.00  0.00    +0.000 C 
ATOM      3  C   UNL     1       6.987   6.091  16.593  0.00  0.00    +0.000 C 
ATOM      4  C   UNL     1       6.206   5.078  17.341  0.00  0.00    +0.000 A 
ATOM      5  C   UNL     1       6.078   5.009  18.709  0.00  0.00    +0.000 A 
ATOM      6  C   UNL     1       5.229   4.059  19.262  0.00  0.00    +0.000 A 
ATOM      7  C   UNL     1       4.441   3.189  18.443  0.00  0.00    +0.000 A 
ATOM      8  C   UNL     1       4.598   3.288  17.035  0.00  0.00    +0.000 A 
ATOM      9  C   UNL     1       5.499   4.237  16.504  0.00  0.00    +0.000 A 
ENDROOT
BRANCH   1  10
ATOM     10  N   UNL     1       6.044   3.352  14.269  0.00  0.00    +0.000 NA
ATOM     11  H   UNL     1       6.886   2.857  14.655  0.00  0.00    +0.000 HD
BRANCH  10  12
ATOM     12  C   UNL     1       6.315   3.612  12.845  0.00  0.00    +0.000 C 
BRANCH  12  14
ATOM     13  C   UNL     1       4.159   3.202  11.321  0.00  0.00    +0.000 C 
ATOM     14  C   UNL     1       5.141   3.357  12.000  0.00  0.00    +0.000 C 
ENDBRANCH  12  14
ENDBRANCH  10  12
ENDBRANCH   1  10
BRANCH   7  15
ATOM     15  O   UNL     1       3.499   2.320  18.958  0.00  0.00    +0.000 OA
BRANCH  15  16
ATOM     16  C   UNL     1       2.566   2.716  19.879  0.00  0.00    +0.000 C 
ATOM     17  O   UNL     1       2.736   2.489  21.065  0.00  0.00    +0.000 OA
ATOM     18  N   UNL     1       1.570   3.572  19.522  0.00  0.00    +0.000 N 
ATOM     19  C   UNL     1       1.055   3.681  18.167  0.00  0.00    +0.000 C 
BRANCH  18  20
ATOM     20  C   UNL     1       1.107   4.520  20.530  0.00  0.00    +0.000 C 
BRANCH  20  21
ATOM     21  C   UNL     1       2.212   5.599  20.751  0.00  0.00    +0.000 C 
BRANCH  21  22
ATOM     22  C   UNL     1       1.977   6.861  19.893  0.00  0.00    +0.000 C 
ATOM     23  C   UNL     1       2.848   6.869  18.638  0.00  0.00    +0.000 C 
ENDBRANCH  21  22
ENDBRANCH  20  21
ENDBRANCH  18  20
ENDBRANCH  15  16
ENDBRANCH   7  15
TORSDOF 8
ENDMDL
MODEL 4
REMARK VINA RESULT:      -6.9      2.216      3.434
REMARK  Name = 
REMARK  10 active torsions:
REMARK  status: ('A' for Active; 'I' for Inactive)
REMARK    1  A    between atoms: C_2  and  C_3
REMARK    2  A    between atoms: C_3  and  N_4
REMARK    3  A    between atoms: N_4  and  C_5
REMARK    4  A    between atoms: C_11  and  O_12
REMARK    5  A    between atoms: O_12  and  C_13
REMARK    6  A    between atoms: N_15  and  C_16
REMARK    7  A    between atoms: N_15  and  C_17
REMARK    8  A    between atoms: C_17  and  C_18
REMARK    9  A    between atoms: C_18  and  C_19
REMARK   10  A    between atoms: C_19  and  C_20
REMARK                            x       y       z     vdW  Elec       q    Type
REMARK                         _______ _______ _______ _____ _____    ______ ____
ROOT
ATOM      1  C   UNL     1       1.798   5.848  20.011  0.00  0.00    +0.000 C 
ATOM      2  C   UNL     1       0.888   4.706  20.530  0.00  0.00    +0.000 C 
ATOM      3  C   UNL     1       1.377   3.429  19.868  0.00  0.00    +0.000 C 
ATOM      4  C   UNL     1       2.817   3.738  19.705  0.00  0.00    +0.000 A 
ATOM      5  C   UNL     1       3.811   2.825  19.437  0.00  0.00    +0.000 A 
ATOM      6  C   UNL     1       5.104   3.281  19.212  0.00  0.00    +0.000 A 
ATOM      7  C   UNL     1       5.417   4.677  19.198  0.00  0.00    +0.000 A 
ATOM      8  C   UNL     1       4.367   5.591  19.479  0.00  0.00    +0.000 A 
ATOM      9  C   UNL     1       3.071   5.095  19.743  0.00  0.00    +0.000 A 
ENDROOT
BRANCH   1  10
ATOM     10  N   UNL     1       1.993   6.904  21.024  0.00  0.00    +0.000 NA
ATOM     11  H   UNL     1       1.579   6.580  21.934  0.00  0.00    +0.000 HD
BRANCH  10  12
ATOM     12  C   UNL     1       1.348   8.186  20.691  0.00  0.00    +0.000 C 
BRANCH  12  14
ATOM     13  C   UNL     1      -0.026   9.242  22.725  0.00  0.00    +0.000 C 
ATOM     14  C   UNL     1       0.589   8.736  21.821  0.00  0.00    +0.000 C 
ENDBRANCH  12  14
ENDBRANCH  10  12
ENDBRANCH   1  10
BRANCH   7  15
ATOM     15  O   UNL     1       6.664   5.165  18.858  0.00  0.00    +0.000 OA
BRANCH  15  16
ATOM     16  C   UNL     1       7.288   4.822  17.689  0.00  0.00    +0.000 C 
ATOM     17  O   UNL     1       8.230   4.046  17.697  0.00  0.00    +0.000 OA
ATOM     18  N   UNL     1       6.726   5.141  16.491  0.00  0.00    +0.000 N 
ATOM     19  C   UNL     1       5.833   6.272  16.302  0.00  0.00    +0.000 C 
BRANCH  18  20
ATOM     20  C   UNL     1       6.925   4.208  15.387  0.00  0.00    +0.000 C 
BRANCH  20  21
ATOM     21  C   UNL     1       6.006   4.630  14.200  0.00  0.00    +0.000 C 
BRANCH  21  22
ATOM     22  C   UNL     1       5.959   3.562  13.087  0.00  0.00    +0.000 C 
ATOM     23  C   UNL     1       6.954   3.858  11.966  0.00  0.00    +0.000 C 
ENDBRANCH  21  22
ENDBRANCH  20  21
ENDBRANCH  18  20
ENDBRANCH  15  16
ENDBRANCH   7  15
TORSDOF 8
ENDMDL
MODEL 5
REMARK VINA RESULT:      -6.8      2.758      4.823
REMARK  Name = 
REMARK  10 active torsions:
REMARK  status: ('A' for Active; 'I' for Inactive)
REMARK    1  A    between atoms: C_2  and  C_3
REMARK    2  A    between atoms: C_3  and  N_4
REMARK    3  A    between atoms: N_4  and  C_5
REMARK    4  A    between atoms: C_11  and  O_12
REMARK    5  A    between atoms: O_12  and  C_13
REMARK    6  A    between atoms: N_15  and  C_16
REMARK    7  A    between atoms: N_15  and  C_17
REMARK    8  A    between atoms: C_17  and  C_18
REMARK    9  A    between atoms: C_18  and  C_19
REMARK   10  A    between atoms: C_19  and  C_20
REMARK                            x       y       z     vdW  Elec       q    Type
REMARK                         _______ _______ _______ _____ _____    ______ ____
ROOT
ATOM      1  C   UNL     1       0.734   9.549  20.815  0.00  0.00    +0.000 C 
ATOM      2  C   UNL     1       0.115  10.457  19.723  0.00  0.00    +0.000 C 
ATOM      3  C   UNL     1       1.048  10.394  18.527  0.00  0.00    +0.000 C 
ATOM      4  C   UNL     1       1.596   9.026  18.678  0.00  0.00    +0.000 A 
ATOM      5  C   UNL     1       2.265   8.314  17.708  0.00  0.00    +0.000 A 
ATOM      6  C   UNL     1       2.808   7.077  18.031  0.00  0.00    +0.000 A 
ATOM      7  C   UNL     1       2.739   6.550  19.360  0.00  0.00    +0.000 A 
ATOM      8  C   UNL     1       2.042   7.311  20.335  0.00  0.00    +0.000 A 
ATOM      9  C   UNL     1       1.466   8.547  19.966  0.00  0.00    +0.000 A 
ENDROOT
BRANCH   1  10
ATOM     10  N   UNL     1      -0.298   8.905  21.651  0.00  0.00    +0.000 NA
ATOM     11  H   UNL     1      -1.236   9.047  21.199  0.00  0.00    +0.000 HD
BRANCH  10  12
ATOM     12  C   UNL     1      -0.393   9.447  23.017  0.00  0.00    +0.000 C 
BRANCH  12  14
ATOM     13  C   UNL     1      -1.671  11.794  23.036  0.00  0.00    +0.000 C 
ATOM     14  C   UNL     1      -1.107  10.730  23.057  0.00  0.00    +0.000 C 
ENDBRANCH  12  14
ENDBRANCH  10  12
ENDBRANCH   1  10
BRANCH   7  15
ATOM     15  O   UNL     1       3.374   5.384  19.740  0.00  0.00    +0.000 OA
BRANCH  15  16
ATOM     16  C   UNL     1       3.859   4.485  18.828  0.00  0.00    +0.000 C 
ATOM     17  O   UNL     1       3.105   3.706  18.270  0.00  0.00    +0.000 OA
ATOM     18  N   UNL     1       5.128   4.607  18.353  0.00  0.00    +0.000 N 
ATOM     19  C   UNL     1       6.205   5.238  19.098  0.00  0.00    +0.000 C 
BRANCH  18  20
ATOM     20  C   UNL     1       5.368   4.209  16.969  0.00  0.00    +0.000 C 
BRANCH  20  21
ATOM     21  C   UNL     1       6.815   4.631  16.568  0.00  0.00    +0.000 C 
BRANCH  21  22
ATOM     22  C   UNL     1       7.000   4.703  15.037  0.00  0.00    +0.000 C 
ATOM     23  C   UNL     1       5.773   4.187  14.287  0.00  0.00    +0.000 C 
ENDBRANCH  21  22
ENDBRANCH  20  21
ENDBRANCH  18  20
ENDBRANCH  15  16
ENDBRANCH   7  15
TORSDOF 8
ENDMDL
MODEL 6
REMARK VINA RESULT:      -6.8      3.225      7.583
REMARK  Name = 
REMARK  10 active torsions:
REMARK  status: ('A' for Active; 'I' for Inactive)
REMARK    1  A    between atoms: C_2  and  C_3
REMARK    2  A    between atoms: C_3  and  N_4
REMARK    3  A    between atoms: N_4  and  C_5
REMARK    4  A    between atoms: C_11  and  O_12
REMARK    5  A    between atoms: O_12  and  C_13
REMARK    6  A    between atoms: N_15  and  C_16
REMARK    7  A    between atoms: N_15  and  C_17
REMARK    8  A    between atoms: C_17  and  C_18
REMARK    9  A    between atoms: C_18  and  C_19
REMARK   10  A    between atoms: C_19  and  C_20
REMARK                            x       y       z     vdW  Elec       q    Type
REMARK                         _______ _______ _______ _____ _____    ______ ____
ROOT
ATOM      1  C   UNL     1       5.978   3.848  12.912  0.00  0.00    +0.000 C 
ATOM      2  C   UNL     1       7.372   4.396  12.516  0.00  0.00    +0.000 C 
ATOM      3  C   UNL     1       7.734   5.446  13.552  0.00  0.00    +0.000 C 
ATOM      4  C   UNL     1       7.027   4.915  14.741  0.00  0.00    +0.000 A 
ATOM      5  C   UNL     1       7.246   5.295  16.045  0.00  0.00    +0.000 A 
ATOM      6  C   UNL     1       6.433   4.777  17.046  0.00  0.00    +0.000 A 
ATOM      7  C   UNL     1       5.339   3.905  16.748  0.00  0.00    +0.000 A 
ATOM      8  C   UNL     1       5.142   3.533  15.392  0.00  0.00    +0.000 A 
ATOM      9  C   UNL     1       6.010   4.044  14.402  0.00  0.00    +0.000 A 
ENDROOT
BRANCH   1  10
ATOM     10  N   UNL     1       5.821   2.424  12.554  0.00  0.00    +0.000 NA
ATOM     11  H   UNL     1       6.758   1.955  12.615  0.00  0.00    +0.000 HD
BRANCH  10  12
ATOM     12  C   UNL     1       5.317   2.198  11.189  0.00  0.00    +0.000 C 
BRANCH  12  14
ATOM     13  C   UNL     1       3.244   3.758  10.549  0.00  0.00    +0.000 C 
ATOM     14  C   UNL     1       4.173   3.061  10.869  0.00  0.00    +0.000 C 
ENDBRANCH  12  14
ENDBRANCH  10  12
ENDBRANCH   1  10
BRANCH   7  15
ATOM     15  O   UNL     1       4.441   3.473  17.704  0.00  0.00    +0.000 OA
BRANCH  15  16
ATOM     16  C   UNL     1       3.127   3.859  17.700  0.00  0.00    +0.000 C 
ATOM     17  O   UNL     1       2.309   3.256  17.025  0.00  0.00    +0.000 OA
ATOM     18  N   UNL     1       2.671   4.750  18.621  0.00  0.00    +0.000 N 
ATOM     19  C   UNL     1       3.514   5.751  19.253  0.00  0.00    +0.000 C 
BRANCH  18  20
ATOM     20  C   UNL     1       1.299   4.585  19.093  0.00  0.00    +0.000 C 
BRANCH  20  21
ATOM     21  C   UNL     1       1.318   4.412  20.643  0.00  0.00    +0.000 C 
BRANCH  21  22
ATOM     22  C   UNL     1       1.295   2.928  21.067  0.00  0.00    +0.000 C 
ATOM     23  C   UNL     1       2.652   2.461  21.592  0.00  0.00    +0.000 C 
ENDBRANCH  21  22
ENDBRANCH  20  21
ENDBRANCH  18  20
ENDBRANCH  15  16
ENDBRANCH   7  15
TORSDOF 8
ENDMDL
MODEL 7
REMARK VINA RESULT:      -6.7      3.074      7.015
REMARK  Name = 
REMARK  10 active torsions:
REMARK  status: ('A' for Active; 'I' for Inactive)
REMARK    1  A    between atoms: C_2  and  C_3
REMARK    2  A    between atoms: C_3  and  N_4
REMARK    3  A    between atoms: N_4  and  C_5
REMARK    4  A    between atoms: C_11  and  O_12
REMARK    5  A    between atoms: O_12  and  C_13
REMARK    6  A    between atoms: N_15  and  C_16
REMARK    7  A    between atoms: N_15  and  C_17
REMARK    8  A    between atoms: C_17  and  C_18
REMARK    9  A    between atoms: C_18  and  C_19
REMARK   10  A    between atoms: C_19  and  C_20
REMARK                            x       y       z     vdW  Elec       q    Type
REMARK                         _______ _______ _______ _____ _____    ______ ____
ROOT
ATOM      1  C   UNL     1       6.186   6.061  16.797  0.00  0.00    +0.000 C 
ATOM      2  C   UNL     1       6.746   4.790  17.483  0.00  0.00    +0.000 C 
ATOM      3  C   UNL     1       6.220   4.800  18.908  0.00  0.00    +0.000 C 
ATOM      4  C   UNL     1       4.930   5.503  18.719  0.00  0.00    +0.000 A 
ATOM      5  C   UNL     1       3.888   5.530  19.618  0.00  0.00    +0.000 A 
ATOM      6  C   UNL     1       2.777   6.317  19.342  0.00  0.00    +0.000 A 
ATOM      7  C   UNL     1       2.713   7.143  18.175  0.00  0.00    +0.000 A 
ATOM      8  C   UNL     1       3.806   7.091  17.269  0.00  0.00    +0.000 A 
ATOM      9  C   UNL     1       4.903   6.250  17.558  0.00  0.00    +0.000 A 
ENDROOT
BRANCH   1  10
ATOM     10  N   UNL     1       5.938   5.849  15.357  0.00  0.00    +0.000 NA
ATOM     11  H   UNL     1       5.205   6.530  15.037  0.00  0.00    +0.000 HD
BRANCH  10  12
ATOM     12  C   UNL     1       5.450   4.501  15.021  0.00  0.00    +0.000 C 
BRANCH  12  14
ATOM     13  C   UNL     1       6.295   3.627  12.641  0.00  0.00    +0.000 C 
ATOM     14  C   UNL     1       5.937   4.044  13.713  0.00  0.00    +0.000 C 
ENDBRANCH  12  14
ENDBRANCH  10  12
ENDBRANCH   1  10
BRANCH   7  15
ATOM     15  O   UNL     1       1.679   8.028  17.936  0.00  0.00    +0.000 OA
BRANCH  15  16
ATOM     16  C   UNL     1       1.761   9.354  18.264  0.00  0.00    +0.000 C 
ATOM     17  O   UNL     1       2.270  10.150  17.494  0.00  0.00    +0.000 OA
ATOM     18  N   UNL     1       1.068   9.841  19.329  0.00  0.00    +0.000 N 
ATOM     19  C   UNL     1       0.694   9.033  20.478  0.00  0.00    +0.000 C 
BRANCH  18  20
ATOM     20  C   UNL     1       0.558  11.205  19.231  0.00  0.00    +0.000 C 
BRANCH  20  21
ATOM     21  C   UNL     1      -1.000  11.166  19.302  0.00  0.00    +0.000 C 
BRANCH  21  22
ATOM     22  C   UNL     1      -1.652  11.294  17.909  0.00  0.00    +0.000 C 
ATOM     23  C   UNL     1      -1.801   9.939  17.220  0.00  0.00    +0.000 C 
ENDBRANCH  21  22
ENDBRANCH  20  21
ENDBRANCH  18  20
ENDBRANCH  15  16
ENDBRANCH   7  15
TORSDOF 8
ENDMDL
MODEL 8
REMARK VINA RESULT:      -6.7      3.061      6.384
REMARK  Name = 
REMARK  10 active torsions:
REMARK  status: ('A' for Active; 'I' for Inactive)
REMARK    1  A    between atoms: C_2  and  C_3
REMARK    2  A    between atoms: C_3  and  N_4
REMARK    3  A    between atoms: N_4  and  C_5
REMARK    4  A    between atoms: C_11  and  O_12
REMARK    5  A    between atoms: O_12  and  C_13
REMARK    6  A    between atoms: N_15  and  C_16
REMARK    7  A    between atoms: N_15  and  C_17
REMARK    8  A    between atoms: C_17  and  C_18
REMARK    9  A    between atoms: C_18  and  C_19
REMARK   10  A    between atoms: C_19  and  C_20
REMARK                            x       y       z     vdW  Elec       q    Type
REMARK                         _______ _______ _______ _____ _____    ______ ____
ROOT
ATOM      1  C   UNL     1       4.122   3.481  17.827  0.00  0.00    +0.000 C 
ATOM      2  C   UNL     1       3.325   2.157  17.713  0.00  0.00    +0.000 C 
ATOM      3  C   UNL     1       2.532   2.017  19.000  0.00  0.00    +0.000 C 
ATOM      4  C   UNL     1       2.309   3.442  19.341  0.00  0.00    +0.000 A 
ATOM      5  C   UNL     1       1.388   3.918  20.247  0.00  0.00    +0.000 A 
ATOM      6  C   UNL     1       1.364   5.277  20.534  0.00  0.00    +0.000 A 
ATOM      7  C   UNL     1       2.308   6.184  19.955  0.00  0.00    +0.000 A 
ATOM      8  C   UNL     1       3.243   5.658  19.025  0.00  0.00    +0.000 A 
ATOM      9  C   UNL     1       3.217   4.279  18.724  0.00  0.00    +0.000 A 
ENDROOT
BRANCH   1  10
ATOM     10  N   UNL     1       4.302   4.134  16.515  0.00  0.00    +0.000 NA
ATOM     11  H   UNL     1       3.599   3.739  15.842  0.00  0.00    +0.000 HD
BRANCH  10  12
ATOM     12  C   UNL     1       5.632   3.928  15.917  0.00  0.00    +0.000 C 
BRANCH  12  14
ATOM     13  C   UNL     1       7.564   4.714  17.586  0.00  0.00    +0.000 C 
ATOM     14  C   UNL     1       6.716   4.354  16.811  0.00  0.00    +0.000 C 
ENDBRANCH  12  14
ENDBRANCH  10  12
ENDBRANCH   1  10
BRANCH   7  15
ATOM     15  O   UNL     1       2.388   7.516  20.314  0.00  0.00    +0.000 OA
BRANCH  15  16
ATOM     16  C   UNL     1       1.308   8.355  20.254  0.00  0.00    +0.000 C 
ATOM     17  O   UNL     1       0.527   8.423  21.188  0.00  0.00    +0.000 OA
ATOM     18  N   UNL     1       1.222   9.294  19.273  0.00  0.00    +0.000 N 
ATOM     19  C   UNL     1       1.855   9.153  17.971  0.00  0.00    +0.000 C 
BRANCH  18  20
ATOM     20  C   UNL     1       0.580  10.561  19.610  0.00  0.00    +0.000 C 
BRANCH  20  21
ATOM     21  C   UNL     1      -0.398  10.951  18.460  0.00  0.00    +0.000 C 
BRANCH  21  22
ATOM     22  C   UNL     1      -1.697  10.116  18.488  0.00  0.00    +0.000 C 
ATOM     23  C   UNL     1      -2.365  10.051  17.116  0.00  0.00    +0.000 C 
ENDBRANCH  21  22
ENDBRANCH  20  21
ENDBRANCH  18  20
ENDBRANCH  15  16
ENDBRANCH   7  15
TORSDOF 8
ENDMDL
MODEL 9
REMARK VINA RESULT:      -6.6      3.360      7.721
REMARK  Name = 
REMARK  10 active torsions:
REMARK  status: ('A' for Active; 'I' for Inactive)
REMARK    1  A    between atoms: C_2  and  C_3
REMARK    2  A    between atoms: C_3  and  N_4
REMARK    3  A    between atoms: N_4  and  C_5
REMARK    4  A    between atoms: C_11  and  O_12
REMARK    5  A    between atoms: O_12  and  C_13
REMARK    6  A    between atoms: N_15  and  C_16
REMARK    7  A    between atoms: N_15  and  C_17
REMARK    8  A    between atoms: C_17  and  C_18
REMARK    9  A    between atoms: C_18  and  C_19
REMARK   10  A    between atoms: C_19  and  C_20
REMARK                            x       y       z     vdW  Elec       q    Type
REMARK                         _______ _______ _______ _____ _____    ______ ____
ROOT
ATOM      1  C   UNL     1       5.436   4.237  12.925  0.00  0.00    +0.000 C 
ATOM      2  C   UNL     1       6.880   4.213  12.366  0.00  0.00    +0.000 C 
ATOM      3  C   UNL     1       7.742   4.972  13.360  0.00  0.00    +0.000 C 
ATOM      4  C   UNL     1       7.016   4.692  14.621  0.00  0.00    +0.000 A 
ATOM      5  C   UNL     1       7.510   4.875  15.893  0.00  0.00    +0.000 A 
ATOM      6  C   UNL     1       6.673   4.662  16.981  0.00  0.00    +0.000 A 
ATOM      7  C   UNL     1       5.296   4.312  16.811  0.00  0.00    +0.000 A 
ATOM      8  C   UNL     1       4.820   4.131  15.485  0.00  0.00    +0.000 A 
ATOM      9  C   UNL     1       5.706   4.316  14.401  0.00  0.00    +0.000 A 
ENDROOT
BRANCH   1  10
ATOM     10  N   UNL     1       4.685   3.015  12.572  0.00  0.00    +0.000 NA
ATOM     11  H   UNL     1       5.128   2.196  13.058  0.00  0.00    +0.000 HD
BRANCH  10  12
ATOM     12  C   UNL     1       4.675   2.708  11.132  0.00  0.00    +0.000 C 
BRANCH  12  14
ATOM     13  C   UNL     1       2.956   4.255   9.795  0.00  0.00    +0.000 C 
ATOM     14  C   UNL     1       3.710   3.533  10.395  0.00  0.00    +0.000 C 
ENDBRANCH  12  14
ENDBRANCH  10  12
ENDBRANCH   1  10
BRANCH   7  15
ATOM     15  O   UNL     1       4.410   4.213  17.866  0.00  0.00    +0.000 OA
BRANCH  15  16
ATOM     16  C   UNL     1       3.590   3.130  18.033  0.00  0.00    +0.000 C 
ATOM     17  O   UNL     1       4.062   2.026  18.251  0.00  0.00    +0.000 OA
ATOM     18  N   UNL     1       2.251   3.302  18.202  0.00  0.00    +0.000 N 
ATOM     19  C   UNL     1       1.519   4.445  17.681  0.00  0.00    +0.000 C 
BRANCH  18  20
ATOM     20  C   UNL     1       1.558   2.360  19.075  0.00  0.00    +0.000 C 
BRANCH  20  21
ATOM     21  C   UNL     1       0.718   3.163  20.116  0.00  0.00    +0.000 C 
BRANCH  21  22
ATOM     22  C   UNL     1       1.353   3.140  21.522  0.00  0.00    +0.000 C 
ATOM     23  C   UNL     1       2.701   2.419  21.530  0.00  0.00    +0.000 C 
ENDBRANCH  21  22
ENDBRANCH  20  21
ENDBRANCH  18  20
ENDBRANCH  15  16
ENDBRANCH   7  15
TORSDOF 8
ENDMDL
