MODEL 1
REMARK VINA RESULT:      -7.3      0.000      0.000
REMARK  Name = 
REMARK  10 active torsions:
REMARK  status: ('A' for Active; 'I' for Inactive)
REMARK    1  A    between atoms: C_6  and  C_7
REMARK    2  A    between atoms: C_6  and  C_8
REMARK    3  A    between atoms: N_10  and  C_11
REMARK    4  A    between atoms: C_11  and  C_12
REMARK    5  A    between atoms: C_12  and  C_13
REMARK    6  A    between atoms: C_13  and  C_14
REMARK    7  A    between atoms: C_18  and  C_19
REMARK    8  A    between atoms: C_20  and  C_21
REMARK    9  A    between atoms: C_21  and  C_22
REMARK   10  A    between atoms: C_22  and  C_23
REMARK                            x       y       z     vdW  Elec       q    Type
REMARK                         _______ _______ _______ _____ _____    ______ ____
ROOT
ATOM      1  C   UNL     1       1.410   9.000  17.777  0.00  0.00    +0.000 C 
ATOM      2  C   UNL     1       2.453   8.259  18.196  0.00  0.00    +0.000 C 
ATOM      3  C   UNL     1       3.729   8.240  17.384  0.00  0.00    +0.000 C 
ATOM      4  C   UNL     1       4.126   6.823  16.942  0.00  0.00    +0.000 C 
ATOM      5  C   UNL     1       4.129   5.835  18.126  0.00  0.00    +0.000 C 
ATOM      6  C   UNL     1       4.690   4.395  17.806  0.00  0.00    +0.000 C 
ATOM      7  C   UNL     1       3.753   3.455  17.015  0.00  0.00    +0.000 C 
ATOM      8  C   UNL     1       4.988   3.729  19.168  0.00  0.00    +0.000 C 
ATOM      9  C   UNL     1       3.743   3.606  20.027  0.00  0.00    +0.000 C 
ATOM     10  C   UNL     1       2.894   4.870  20.115  0.00  0.00    +0.000 C 
ATOM     11  C   UNL     1       2.756   5.837  18.906  0.00  0.00    +0.000 C 
ATOM     12  C   UNL     1       1.539   5.449  18.014  0.00  0.00    +0.000 C 
ATOM     13  C   UNL     1       2.452   7.323  19.428  0.00  0.00    +0.000 C 
ENDROOT
BRANCH   6  14
ATOM     14  C   UNL     1       5.990   4.444  16.977  0.00  0.00    +0.000 C 
ATOM     15  O   UNL     1       7.107   4.405  17.493  0.00  0.00    +0.000 OA
ATOM     16  N   UNL     1       5.842   4.526  15.607  0.00  0.00    +0.000 N 
ATOM     17  H   UNL     1       4.935   4.378  15.191  0.00  0.00    +0.000 HD
BRANCH  16  18
ATOM     18  C   UNL     1       7.003   4.594  14.753  0.00  0.00    +0.000 C 
BRANCH  18  19
ATOM     19  C   UNL     1       6.647   4.244  13.314  0.00  0.00    +0.000 C 
BRANCH  19  20
ATOM     20  C   UNL     1       5.305   3.523  13.245  0.00  0.00    +0.000 C 
ATOM     21  C   UNL     1       4.873   3.308  11.804  0.00  0.00    +0.000 C 
ENDBRANCH  19  20
ENDBRANCH  18  19
ENDBRANCH  16  18
ENDBRANCH   6  14
BRANCH  13  22
ATOM     22  C   UNL     1       1.158   7.497  20.298  0.00  0.00    +0.000 C 
BRANCH  22  23
ATOM     23  C   UNL     1       1.314   7.890  21.776  0.00  0.00    +0.000 C 
BRANCH  23  24
ATOM     24  C   UNL     1       0.650   9.184  22.095  0.00  0.00    +0.000 A 
ATOM     25  C   UNL     1       0.404  10.268  21.189  0.00  0.00    +0.000 A 
ATOM     26  C   UNL     1      -0.285  11.220  21.898  0.00  0.00    +0.000 A 
ATOM     27  O   UNL     1      -0.485  10.807  23.175  0.00  0.00    +0.000 OA
ATOM     28  C   UNL     1       0.072   9.572  23.289  0.00  0.00    +0.000 A 
ENDBRANCH  23  24
ENDBRANCH  22  23
ENDBRANCH  13  22
TORSDOF 7
ENDMDL
MODEL 2
REMARK VINA RESULT:      -7.1      1.467      2.935
REMARK  Name = 
REMARK  10 active torsions:
REMARK  status: ('A' for Active; 'I' for Inactive)
REMARK    1  A    between atoms: C_6  and  C_7
REMARK    2  A    between atoms: C_6  and  C_8
REMARK    3  A    between atoms: N_10  and  C_11
REMARK    4  A    between atoms: C_11  and  C_12
REMARK    5  A    between atoms: C_12  and  C_13
REMARK    6  A    between atoms: C_13  and  C_14
REMARK    7  A    between atoms: C_18  and  C_19
REMARK    8  A    between atoms: C_20  and  C_21
REMARK    9  A    between atoms: C_21  and  C_22
REMARK   10  A    between atoms: C_22  and  C_23
REMARK                            x       y       z     vdW  Elec       q    Type
REMARK                         _______ _______ _______ _____ _____    ______ ____
ROOT
ATOM      1  C   UNL     1       1.363   3.716  20.200  0.00  0.00    +0.000 C 
ATOM      2  C   UNL     1       1.843   4.250  19.062  0.00  0.00    +0.000 C 
ATOM      3  C   UNL     1       1.997   3.377  17.835  0.00  0.00    +0.000 C 
ATOM      4  C   UNL     1       3.441   3.350  17.309  0.00  0.00    +0.000 C 
ATOM      5  C   UNL     1       4.013   4.770  17.135  0.00  0.00    +0.000 C 
ATOM      6  C   UNL     1       5.426   4.852  16.438  0.00  0.00    +0.000 C 
ATOM      7  C   UNL     1       6.643   4.459  17.305  0.00  0.00    +0.000 C 
ATOM      8  C   UNL     1       5.614   6.321  15.997  0.00  0.00    +0.000 C 
ATOM      9  C   UNL     1       5.577   7.277  17.175  0.00  0.00    +0.000 C 
ATOM     10  C   UNL     1       4.428   7.053  18.152  0.00  0.00    +0.000 C 
ATOM     11  C   UNL     1       3.894   5.625  18.458  0.00  0.00    +0.000 C 
ATOM     12  C   UNL     1       4.644   4.995  19.670  0.00  0.00    +0.000 C 
ATOM     13  C   UNL     1       2.353   5.701  18.896  0.00  0.00    +0.000 C 
ENDROOT
BRANCH   6  14
ATOM     14  C   UNL     1       5.519   3.941  15.195  0.00  0.00    +0.000 C 
ATOM     15  O   UNL     1       5.916   2.778  15.256  0.00  0.00    +0.000 OA
ATOM     16  N   UNL     1       5.121   4.495  13.996  0.00  0.00    +0.000 N 
ATOM     17  H   UNL     1       4.634   5.379  13.989  0.00  0.00    +0.000 HD
BRANCH  16  18
ATOM     18  C   UNL     1       5.189   3.722  12.780  0.00  0.00    +0.000 C 
BRANCH  18  19
ATOM     19  C   UNL     1       6.580   3.795  12.162  0.00  0.00    +0.000 C 
BRANCH  19  20
ATOM     20  C   UNL     1       7.043   2.418  11.698  0.00  0.00    +0.000 C 
ATOM     21  C   UNL     1       5.862   1.543  11.317  0.00  0.00    +0.000 C 
ENDBRANCH  19  20
ENDBRANCH  18  19
ENDBRANCH  16  18
ENDBRANCH   6  14
BRANCH  13  22
ATOM     22  C   UNL     1       2.036   6.583  20.154  0.00  0.00    +0.000 C 
BRANCH  22  23
ATOM     23  C   UNL     1       1.576   8.034  19.937  0.00  0.00    +0.000 C 
BRANCH  23  24
ATOM     24  C   UNL     1       0.979   8.632  21.163  0.00  0.00    +0.000 A 
ATOM     25  C   UNL     1      -0.401   8.600  21.548  0.00  0.00    +0.000 A 
ATOM     26  C   UNL     1      -0.479   9.215  22.772  0.00  0.00    +0.000 A 
ATOM     27  O   UNL     1       0.750   9.625  23.175  0.00  0.00    +0.000 OA
ATOM     28  C   UNL     1       1.631   9.263  22.206  0.00  0.00    +0.000 A 
ENDBRANCH  23  24
ENDBRANCH  22  23
ENDBRANCH  13  22
TORSDOF 7
ENDMDL
MODEL 3
REMARK VINA RESULT:      -7.0      1.404      2.994
REMARK  Name = 
REMARK  10 active torsions:
REMARK  status: ('A' for Active; 'I' for Inactive)
REMARK    1  A    between atoms: C_6  and  C_7
REMARK    2  A    between atoms: C_6  and  C_8
REMARK    3  A    between atoms: N_10  and  C_11
REMARK    4  A    between atoms: C_11  and  C_12
REMARK    5  A    between atoms: C_12  and  C_13
REMARK    6  A    between atoms: C_13  and  C_14
REMARK    7  A    between atoms: C_18  and  C_19
REMARK    8  A    between atoms: C_20  and  C_21
REMARK    9  A    between atoms: C_21  and  C_22
REMARK   10  A    between atoms: C_22  and  C_23
REMARK                            x       y       z     vdW  Elec       q    Type
REMARK                         _______ _______ _______ _____ _____    ______ ____
ROOT
ATOM      1  C   UNL     1       1.351   4.124  19.807  0.00  0.00    +0.000 C 
ATOM      2  C   UNL     1       1.948   4.575  18.689  0.00  0.00    +0.000 C 
ATOM      3  C   UNL     1       2.161   3.632  17.525  0.00  0.00    +0.000 C 
ATOM      4  C   UNL     1       3.641   3.514  17.125  0.00  0.00    +0.000 C 
ATOM      5  C   UNL     1       4.291   4.898  16.930  0.00  0.00    +0.000 C 
ATOM      6  C   UNL     1       5.760   4.881  16.352  0.00  0.00    +0.000 C 
ATOM      7  C   UNL     1       6.881   4.484  17.338  0.00  0.00    +0.000 C 
ATOM      8  C   UNL     1       6.052   6.315  15.856  0.00  0.00    +0.000 C 
ATOM      9  C   UNL     1       5.963   7.334  16.977  0.00  0.00    +0.000 C 
ATOM     10  C   UNL     1       4.728   7.212  17.863  0.00  0.00    +0.000 C 
ATOM     11  C   UNL     1       4.104   5.827  18.193  0.00  0.00    +0.000 C 
ATOM     12  C   UNL     1       4.720   5.231  19.494  0.00  0.00    +0.000 C 
ATOM     13  C   UNL     1       2.537   5.992  18.495  0.00  0.00    +0.000 C 
ENDROOT
BRANCH   6  14
ATOM     14  C   UNL     1       5.911   3.901  15.169  0.00  0.00    +0.000 C 
ATOM     15  O   UNL     1       6.136   2.702  15.327  0.00  0.00    +0.000 OA
ATOM     16  N   UNL     1       5.772   4.438  13.905  0.00  0.00    +0.000 N 
ATOM     17  H   UNL     1       5.415   5.375  13.795  0.00  0.00    +0.000 HD
BRANCH  16  18
ATOM     18  C   UNL     1       5.916   3.600  12.740  0.00  0.00    +0.000 C 
BRANCH  18  19
ATOM     19  C   UNL     1       4.556   3.202  12.179  0.00  0.00    +0.000 C 
BRANCH  19  20
ATOM     20  C   UNL     1       4.273   3.928  10.868  0.00  0.00    +0.000 C 
ATOM     21  C   UNL     1       3.030   3.374  10.194  0.00  0.00    +0.000 C 
ENDBRANCH  19  20
ENDBRANCH  18  19
ENDBRANCH  16  18
ENDBRANCH   6  14
BRANCH  13  22
ATOM     22  C   UNL     1       2.159   6.953  19.676  0.00  0.00    +0.000 C 
BRANCH  22  23
ATOM     23  C   UNL     1       1.741   8.395  19.344  0.00  0.00    +0.000 C 
BRANCH  23  24
ATOM     24  C   UNL     1       0.932   9.017  20.428  0.00  0.00    +0.000 A 
ATOM     25  C   UNL     1       0.929   8.651  21.814  0.00  0.00    +0.000 A 
ATOM     26  C   UNL     1       0.087   9.531  22.447  0.00  0.00    +0.000 A 
ATOM     27  O   UNL     1      -0.432  10.414  21.558  0.00  0.00    +0.000 OA
ATOM     28  C   UNL     1       0.088  10.108  20.340  0.00  0.00    +0.000 A 
ENDBRANCH  23  24
ENDBRANCH  22  23
ENDBRANCH  13  22
TORSDOF 7
ENDMDL
MODEL 4
REMARK VINA RESULT:      -7.0      1.465      3.207
REMARK  Name = 
REMARK  10 active torsions:
REMARK  status: ('A' for Active; 'I' for Inactive)
REMARK    1  A    between atoms: C_6  and  C_7
REMARK    2  A    between atoms: C_6  and  C_8
REMARK    3  A    between atoms: N_10  and  C_11
REMARK    4  A    between atoms: C_11  and  C_12
REMARK    5  A    between atoms: C_12  and  C_13
REMARK    6  A    between atoms: C_13  and  C_14
REMARK    7  A    between atoms: C_18  and  C_19
REMARK    8  A    between atoms: C_20  and  C_21
REMARK    9  A    between atoms: C_21  and  C_22
REMARK   10  A    between atoms: C_22  and  C_23
REMARK                            x       y       z     vdW  Elec       q    Type
REMARK                         _______ _______ _______ _____ _____    ______ ____
ROOT
ATOM      1  C   UNL     1       2.205   2.519  20.031  0.00  0.00    +0.000 C 
ATOM      2  C   UNL     1       2.482   3.163  18.882  0.00  0.00    +0.000 C 
ATOM      3  C   UNL     1       3.234   2.442  17.785  0.00  0.00    +0.000 C 
ATOM      4  C   UNL     1       4.533   3.162  17.389  0.00  0.00    +0.000 C 
ATOM      5  C   UNL     1       4.293   4.656  17.098  0.00  0.00    +0.000 C 
ATOM      6  C   UNL     1       5.532   5.442  16.517  0.00  0.00    +0.000 C 
ATOM      7  C   UNL     1       6.644   5.810  17.525  0.00  0.00    +0.000 C 
ATOM      8  C   UNL     1       4.978   6.757  15.923  0.00  0.00    +0.000 C 
ATOM      9  C   UNL     1       4.288   7.608  16.972  0.00  0.00    +0.000 C 
ATOM     10  C   UNL     1       3.307   6.859  17.869  0.00  0.00    +0.000 C 
ATOM     11  C   UNL     1       3.566   5.387  18.295  0.00  0.00    +0.000 C 
ATOM     12  C   UNL     1       4.364   5.322  19.632  0.00  0.00    +0.000 C 
ATOM     13  C   UNL     1       2.172   4.651  18.589  0.00  0.00    +0.000 C 
ENDROOT
BRANCH   6  14
ATOM     14  C   UNL     1       6.255   4.655  15.404  0.00  0.00    +0.000 C 
ATOM     15  O   UNL     1       7.452   4.376  15.461  0.00  0.00    +0.000 OA
ATOM     16  N   UNL     1       5.483   4.263  14.329  0.00  0.00    +0.000 N 
ATOM     17  H   UNL     1       4.479   4.340  14.378  0.00  0.00    +0.000 HD
BRANCH  16  18
ATOM     18  C   UNL     1       6.079   3.538  13.233  0.00  0.00    +0.000 C 
BRANCH  18  19
ATOM     19  C   UNL     1       5.454   3.942  11.904  0.00  0.00    +0.000 C 
BRANCH  19  20
ATOM     20  C   UNL     1       4.309   3.006  11.531  0.00  0.00    +0.000 C 
ATOM     21  C   UNL     1       3.427   3.621  10.458  0.00  0.00    +0.000 C 
ENDBRANCH  19  20
ENDBRANCH  18  19
ENDBRANCH  16  18
ENDBRANCH   6  14
BRANCH  13  22
ATOM     22  C   UNL     1       1.273   5.294  19.703  0.00  0.00    +0.000 C 
BRANCH  22  23
ATOM     23  C   UNL     1       1.925   6.259  20.706  0.00  0.00    +0.000 C 
BRANCH  23  24
ATOM     24  C   UNL     1       1.233   7.576  20.762  0.00  0.00    +0.000 A 
ATOM     25  C   UNL     1       1.468   8.705  19.910  0.00  0.00    +0.000 A 
ATOM     26  C   UNL     1       0.563   9.668  20.281  0.00  0.00    +0.000 A 
ATOM     27  O   UNL     1      -0.215   9.220  21.297  0.00  0.00    +0.000 OA
ATOM     28  C   UNL     1       0.185   7.952  21.580  0.00  0.00    +0.000 A 
ENDBRANCH  23  24
ENDBRANCH  22  23
ENDBRANCH  13  22
TORSDOF 7
ENDMDL
MODEL 5
REMARK VINA RESULT:      -6.8      1.492      3.291
REMARK  Name = 
REMARK  10 active torsions:
REMARK  status: ('A' for Active; 'I' for Inactive)
REMARK    1  A    between atoms: C_6  and  C_7
REMARK    2  A    between atoms: C_6  and  C_8
REMARK    3  A    between atoms: N_10  and  C_11
REMARK    4  A    between atoms: C_11  and  C_12
REMARK    5  A    between atoms: C_12  and  C_13
REMARK    6  A    between atoms: C_13  and  C_14
REMARK    7  A    between atoms: C_18  and  C_19
REMARK    8  A    between atoms: C_20  and  C_21
REMARK    9  A    between atoms: C_21  and  C_22
REMARK   10  A    between atoms: C_22  and  C_23
REMARK                            x       y       z     vdW  Elec       q    Type
REMARK                         _______ _______ _______ _____ _____    ______ ____
ROOT
ATOM      1  C   UNL     1       2.132   2.764  20.016  0.00  0.00    +0.000 C 
ATOM      2  C   UNL     1       2.465   3.347  18.850  0.00  0.00    +0.000 C 
ATOM      3  C   UNL     1       3.247   2.562  17.820  0.00  0.00    +0.000 C 
ATOM      4  C   UNL     1       4.574   3.241  17.443  0.00  0.00    +0.000 C 
ATOM      5  C   UNL     1       4.371   4.724  17.072  0.00  0.00    +0.000 C 
ATOM      6  C   UNL     1       5.646   5.461  16.505  0.00  0.00    +0.000 C 
ATOM      7  C   UNL     1       6.724   5.859  17.538  0.00  0.00    +0.000 C 
ATOM      8  C   UNL     1       5.140   6.754  15.827  0.00  0.00    +0.000 C 
ATOM      9  C   UNL     1       4.424   7.666  16.806  0.00  0.00    +0.000 C 
ATOM     10  C   UNL     1       3.396   6.976  17.696  0.00  0.00    +0.000 C 
ATOM     11  C   UNL     1       3.611   5.522  18.203  0.00  0.00    +0.000 C 
ATOM     12  C   UNL     1       4.354   5.510  19.572  0.00  0.00    +0.000 C 
ATOM     13  C   UNL     1       2.194   4.824  18.475  0.00  0.00    +0.000 C 
ENDROOT
BRANCH   6  14
ATOM     14  C   UNL     1       6.398   4.609  15.460  0.00  0.00    +0.000 C 
ATOM     15  O   UNL     1       7.522   4.152  15.664  0.00  0.00    +0.000 OA
ATOM     16  N   UNL     1       5.739   4.373  14.271  0.00  0.00    +0.000 N 
ATOM     17  H   UNL     1       4.759   4.599  14.187  0.00  0.00    +0.000 HD
BRANCH  16  18
ATOM     18  C   UNL     1       6.373   3.601  13.229  0.00  0.00    +0.000 C 
BRANCH  18  19
ATOM     19  C   UNL     1       5.406   3.326  12.085  0.00  0.00    +0.000 C 
BRANCH  19  20
ATOM     20  C   UNL     1       5.663   1.955  11.471  0.00  0.00    +0.000 C 
ATOM     21  C   UNL     1       7.121   1.799  11.072  0.00  0.00    +0.000 C 
ENDBRANCH  19  20
ENDBRANCH  18  19
ENDBRANCH  16  18
ENDBRANCH   6  14
BRANCH  13  22
ATOM     22  C   UNL     1       1.263   5.534  19.519  0.00  0.00    +0.000 C 
BRANCH  22  23
ATOM     23  C   UNL     1       1.915   6.337  20.656  0.00  0.00    +0.000 C 
BRANCH  23  24
ATOM     24  C   UNL     1       1.488   7.764  20.664  0.00  0.00    +0.000 A 
ATOM     25  C   UNL     1       1.156   8.554  21.813  0.00  0.00    +0.000 A 
ATOM     26  C   UNL     1       0.886   9.818  21.352  0.00  0.00    +0.000 A 
ATOM     27  O   UNL     1       1.025   9.871  20.004  0.00  0.00    +0.000 OA
ATOM     28  C   UNL     1       1.398   8.631  19.591  0.00  0.00    +0.000 A 
ENDBRANCH  23  24
ENDBRANCH  22  23
ENDBRANCH  13  22
TORSDOF 7
ENDMDL
MODEL 6
REMARK VINA RESULT:      -6.8      1.429      3.037
REMARK  Name = 
REMARK  10 active torsions:
REMARK  status: ('A' for Active; 'I' for Inactive)
REMARK    1  A    between atoms: C_6  and  C_7
REMARK    2  A    between atoms: C_6  and  C_8
REMARK    3  A    between atoms: N_10  and  C_11
REMARK    4  A    between atoms: C_11  and  C_12
REMARK    5  A    between atoms: C_12  and  C_13
REMARK    6  A    between atoms: C_13  and  C_14
REMARK    7  A    between atoms: C_18  and  C_19
REMARK    8  A    between atoms: C_20  and  C_21
REMARK    9  A    between atoms: C_21  and  C_22
REMARK   10  A    between atoms: C_22  and  C_23
REMARK                            x       y       z     vdW  Elec       q    Type
REMARK                         _______ _______ _______ _____ _____    ______ ____
ROOT
ATOM      1  C   UNL     1       1.329   4.034  20.070  0.00  0.00    +0.000 C 
ATOM      2  C   UNL     1       1.840   4.488  18.911  0.00  0.00    +0.000 C 
ATOM      3  C   UNL     1       2.016   3.535  17.750  0.00  0.00    +0.000 C 
ATOM      4  C   UNL     1       3.471   3.464  17.261  0.00  0.00    +0.000 C 
ATOM      5  C   UNL     1       4.058   4.867  17.007  0.00  0.00    +0.000 C 
ATOM      6  C   UNL     1       5.488   4.894  16.340  0.00  0.00    +0.000 C 
ATOM      7  C   UNL     1       6.681   4.553  17.260  0.00  0.00    +0.000 C 
ATOM      8  C   UNL     1       5.696   6.329  15.807  0.00  0.00    +0.000 C 
ATOM      9  C   UNL     1       5.639   7.362  16.917  0.00  0.00    +0.000 C 
ATOM     10  C   UNL     1       4.465   7.210  17.879  0.00  0.00    +0.000 C 
ATOM     11  C   UNL     1       3.914   5.809  18.267  0.00  0.00    +0.000 C 
ATOM     12  C   UNL     1       4.630   5.256  19.535  0.00  0.00    +0.000 C 
ATOM     13  C   UNL     1       2.364   5.923  18.661  0.00  0.00    +0.000 C 
ENDROOT
BRANCH   6  14
ATOM     14  C   UNL     1       5.603   3.901  15.163  0.00  0.00    +0.000 C 
ATOM     15  O   UNL     1       5.867   2.710  15.325  0.00  0.00    +0.000 OA
ATOM     16  N   UNL     1       5.384   4.416  13.902  0.00  0.00    +0.000 N 
ATOM     17  H   UNL     1       4.996   5.342  13.798  0.00  0.00    +0.000 HD
BRANCH  16  18
ATOM     18  C   UNL     1       5.488   3.565  12.741  0.00  0.00    +0.000 C 
BRANCH  18  19
ATOM     19  C   UNL     1       6.890   3.613  12.149  0.00  0.00    +0.000 C 
BRANCH  19  20
ATOM     20  C   UNL     1       7.322   5.052  11.886  0.00  0.00    +0.000 C 
ATOM     21  C   UNL     1       8.352   5.510  12.904  0.00  0.00    +0.000 C 
ENDBRANCH  19  20
ENDBRANCH  18  19
ENDBRANCH  16  18
ENDBRANCH   6  14
BRANCH  13  22
ATOM     22  C   UNL     1       2.024   6.889  19.850  0.00  0.00    +0.000 C 
BRANCH  22  23
ATOM     23  C   UNL     1       1.651   8.345  19.530  0.00  0.00    +0.000 C 
BRANCH  23  24
ATOM     24  C   UNL     1       0.884   8.992  20.630  0.00  0.00    +0.000 A 
ATOM     25  C   UNL     1       1.186   8.942  22.031  0.00  0.00    +0.000 A 
ATOM     26  C   UNL     1       0.255   9.730  22.658  0.00  0.00    +0.000 A 
ATOM     27  O   UNL     1      -0.601  10.265  21.753  0.00  0.00    +0.000 OA
ATOM     28  C   UNL     1      -0.213   9.826  20.526  0.00  0.00    +0.000 A 
ENDBRANCH  23  24
ENDBRANCH  22  23
ENDBRANCH  13  22
TORSDOF 7
ENDMDL
MODEL 7
REMARK VINA RESULT:      -6.4      2.621      8.092
REMARK  Name = 
REMARK  10 active torsions:
REMARK  status: ('A' for Active; 'I' for Inactive)
REMARK    1  A    between atoms: C_6  and  C_7
REMARK    2  A    between atoms: C_6  and  C_8
REMARK    3  A    between atoms: N_10  and  C_11
REMARK    4  A    between atoms: C_11  and  C_12
REMARK    5  A    between atoms: C_12  and  C_13
REMARK    6  A    between atoms: C_13  and  C_14
REMARK    7  A    between atoms: C_18  and  C_19
REMARK    8  A    between atoms: C_20  and  C_21
REMARK    9  A    between atoms: C_21  and  C_22
REMARK   10  A    between atoms: C_22  and  C_23
REMARK                            x       y       z     vdW  Elec       q    Type
REMARK                         _______ _______ _______ _____ _____    ______ ____
ROOT
ATOM      1  C   UNL     1       6.970   6.405  16.475  0.00  0.00    +0.000 C 
ATOM      2  C   UNL     1       5.674   6.077  16.623  0.00  0.00    +0.000 C 
ATOM      3  C   UNL     1       4.752   7.004  17.384  0.00  0.00    +0.000 C 
ATOM      4  C   UNL     1       4.077   6.315  18.580  0.00  0.00    +0.000 C 
ATOM      5  C   UNL     1       3.419   4.981  18.174  0.00  0.00    +0.000 C 
ATOM      6  C   UNL     1       2.554   4.283  19.294  0.00  0.00    +0.000 C 
ATOM      7  C   UNL     1       3.336   3.564  20.416  0.00  0.00    +0.000 C 
ATOM      8  C   UNL     1       1.678   3.231  18.579  0.00  0.00    +0.000 C 
ATOM      9  C   UNL     1       2.513   2.186  17.864  0.00  0.00    +0.000 C 
ATOM     10  C   UNL     1       3.652   2.742  17.014  0.00  0.00    +0.000 C 
ATOM     11  C   UNL     1       4.432   4.015  17.443  0.00  0.00    +0.000 C 
ATOM     12  C   UNL     1       5.670   3.647  18.314  0.00  0.00    +0.000 C 
ATOM     13  C   UNL     1       5.021   4.756  16.148  0.00  0.00    +0.000 C 
ENDROOT
BRANCH   6  14
ATOM     14  C   UNL     1       1.636   5.282  20.032  0.00  0.00    +0.000 C 
ATOM     15  O   UNL     1       0.515   4.976  20.436  0.00  0.00    +0.000 OA
ATOM     16  N   UNL     1       2.142   6.550  20.229  0.00  0.00    +0.000 N 
ATOM     17  H   UNL     1       3.118   6.733  20.055  0.00  0.00    +0.000 HD
BRANCH  16  18
ATOM     18  C   UNL     1       1.347   7.554  20.894  0.00  0.00    +0.000 C 
BRANCH  18  19
ATOM     19  C   UNL     1       1.453   8.897  20.182  0.00  0.00    +0.000 C 
BRANCH  19  20
ATOM     20  C   UNL     1       1.450   8.715  18.669  0.00  0.00    +0.000 C 
ATOM     21  C   UNL     1       1.953   9.964  17.966  0.00  0.00    +0.000 C 
ENDBRANCH  19  20
ENDBRANCH  18  19
ENDBRANCH  16  18
ENDBRANCH   6  14
BRANCH  13  22
ATOM     22  C   UNL     1       5.991   3.911  15.251  0.00  0.00    +0.000 C 
BRANCH  22  23
ATOM     23  C   UNL     1       6.364   4.451  13.861  0.00  0.00    +0.000 C 
BRANCH  23  24
ATOM     24  C   UNL     1       5.884   3.571  12.760  0.00  0.00    +0.000 A 
ATOM     25  C   UNL     1       6.641   2.564  12.075  0.00  0.00    +0.000 A 
ATOM     26  C   UNL     1       5.781   1.965  11.190  0.00  0.00    +0.000 A 
ATOM     27  O   UNL     1       4.548   2.525  11.274  0.00  0.00    +0.000 OA
ATOM     28  C   UNL     1       4.610   3.489  12.231  0.00  0.00    +0.000 A 
ENDBRANCH  23  24
ENDBRANCH  22  23
ENDBRANCH  13  22
TORSDOF 7
ENDMDL
MODEL 8
REMARK VINA RESULT:      -6.4      4.493      9.812
REMARK  Name = 
REMARK  10 active torsions:
REMARK  status: ('A' for Active; 'I' for Inactive)
REMARK    1  A    between atoms: C_6  and  C_7
REMARK    2  A    between atoms: C_6  and  C_8
REMARK    3  A    between atoms: N_10  and  C_11
REMARK    4  A    between atoms: C_11  and  C_12
REMARK    5  A    between atoms: C_12  and  C_13
REMARK    6  A    between atoms: C_13  and  C_14
REMARK    7  A    between atoms: C_18  and  C_19
REMARK    8  A    between atoms: C_20  and  C_21
REMARK    9  A    between atoms: C_21  and  C_22
REMARK   10  A    between atoms: C_22  and  C_23
REMARK                            x       y       z     vdW  Elec       q    Type
REMARK                         _______ _______ _______ _____ _____    ______ ____
ROOT
ATOM      1  C   UNL     1       1.136   9.889  17.939  0.00  0.00    +0.000 C 
ATOM      2  C   UNL     1       0.048  10.042  18.716  0.00  0.00    +0.000 C 
ATOM      3  C   UNL     1      -1.201  10.669  18.134  0.00  0.00    +0.000 C 
ATOM      4  C   UNL     1      -1.648  11.920  18.907  0.00  0.00    +0.000 C 
ATOM      5  C   UNL     1      -1.735  11.654  20.423  0.00  0.00    +0.000 C 
ATOM      6  C   UNL     1      -2.351  12.826  21.282  0.00  0.00    +0.000 C 
ATOM      7  C   UNL     1      -1.433  14.042  21.541  0.00  0.00    +0.000 C 
ATOM      8  C   UNL     1      -2.723  12.216  22.652  0.00  0.00    +0.000 C 
ATOM      9  C   UNL     1      -1.514  11.646  23.369  0.00  0.00    +0.000 C 
ATOM     10  C   UNL     1      -0.611  10.766  22.511  0.00  0.00    +0.000 C 
ATOM     11  C   UNL     1      -0.389  11.064  21.002  0.00  0.00    +0.000 C 
ATOM     12  C   UNL     1       0.836  12.002  20.790  0.00  0.00    +0.000 C 
ATOM     13  C   UNL     1      -0.034   9.707  20.224  0.00  0.00    +0.000 C 
ENDROOT
BRANCH   6  14
ATOM     14  C   UNL     1      -3.620  13.421  20.637  0.00  0.00    +0.000 C 
ATOM     15  O   UNL     1      -3.758  14.627  20.438  0.00  0.00    +0.000 OA
ATOM     16  N   UNL     1      -4.604  12.524  20.277  0.00  0.00    +0.000 N 
ATOM     17  H   UNL     1      -4.407  11.534  20.280  0.00  0.00    +0.000 HD
BRANCH  16  18
ATOM     18  C   UNL     1      -5.833  12.992  19.683  0.00  0.00    +0.000 C 
BRANCH  18  19
ATOM     19  C   UNL     1      -6.569  11.858  18.980  0.00  0.00    +0.000 C 
BRANCH  19  20
ATOM     20  C   UNL     1      -5.607  11.014  18.151  0.00  0.00    +0.000 C 
ATOM     21  C   UNL     1      -5.032  11.815  16.997  0.00  0.00    +0.000 C 
ENDBRANCH  19  20
ENDBRANCH  18  19
ENDBRANCH  16  18
ENDBRANCH   6  14
BRANCH  13  22
ATOM     22  C   UNL     1       1.237   8.937  20.725  0.00  0.00    +0.000 C 
BRANCH  22  23
ATOM     23  C   UNL     1       1.068   7.500  21.245  0.00  0.00    +0.000 C 
BRANCH  23  24
ATOM     24  C   UNL     1       1.843   6.510  20.446  0.00  0.00    +0.000 A 
ATOM     25  C   UNL     1       1.957   5.104  20.700  0.00  0.00    +0.000 A 
ATOM     26  C   UNL     1       2.710   4.584  19.678  0.00  0.00    +0.000 A 
ATOM     27  O   UNL     1       3.071   5.561  18.810  0.00  0.00    +0.000 OA
ATOM     28  C   UNL     1       2.537   6.724  19.270  0.00  0.00    +0.000 A 
ENDBRANCH  23  24
ENDBRANCH  22  23
ENDBRANCH  13  22
TORSDOF 7
ENDMDL
MODEL 9
REMARK VINA RESULT:      -6.3      2.578      8.302
REMARK  Name = 
REMARK  10 active torsions:
REMARK  status: ('A' for Active; 'I' for Inactive)
REMARK    1  A    between atoms: C_6  and  C_7
REMARK    2  A    between atoms: C_6  and  C_8
REMARK    3  A    between atoms: N_10  and  C_11
REMARK    4  A    between atoms: C_11  and  C_12
REMARK    5  A    between atoms: C_12  and  C_13
REMARK    6  A    between atoms: C_13  and  C_14
REMARK    7  A    between atoms: C_18  and  C_19
REMARK    8  A    between atoms: C_20  and  C_21
REMARK    9  A    between atoms: C_21  and  C_22
REMARK   10  A    between atoms: C_22  and  C_23
REMARK                            x       y       z     vdW  Elec       q    Type
REMARK                         _______ _______ _______ _____ _____    ______ ____
ROOT
ATOM      1  C   UNL     1       7.463   5.939  16.258  0.00  0.00    +0.000 C 
ATOM      2  C   UNL     1       6.125   6.004  16.387  0.00  0.00    +0.000 C 
ATOM      3  C   UNL     1       5.499   7.201  17.068  0.00  0.00    +0.000 C 
ATOM      4  C   UNL     1       4.641   6.807  18.282  0.00  0.00    +0.000 C 
ATOM      5  C   UNL     1       3.634   5.694  17.933  0.00  0.00    +0.000 C 
ATOM      6  C   UNL     1       2.593   5.342  19.065  0.00  0.00    +0.000 C 
ATOM      7  C   UNL     1       3.124   4.501  20.248  0.00  0.00    +0.000 C 
ATOM      8  C   UNL     1       1.460   4.540  18.386  0.00  0.00    +0.000 C 
ATOM      9  C   UNL     1       1.970   3.258  17.754  0.00  0.00    +0.000 C 
ATOM     10  C   UNL     1       3.229   3.414  16.908  0.00  0.00    +0.000 C 
ATOM     11  C   UNL     1       4.337   4.436  17.286  0.00  0.00    +0.000 C 
ATOM     12  C   UNL     1       5.408   3.785  18.212  0.00  0.00    +0.000 C 
ATOM     13  C   UNL     1       5.127   4.897  15.969  0.00  0.00    +0.000 C 
ENDROOT
BRANCH   6  14
ATOM     14  C   UNL     1       1.991   6.604  19.720  0.00  0.00    +0.000 C 
ATOM     15  O   UNL     1       1.577   6.615  20.878  0.00  0.00    +0.000 OA
ATOM     16  N   UNL     1       1.946   7.739  18.937  0.00  0.00    +0.000 N 
ATOM     17  H   UNL     1       2.446   7.765  18.061  0.00  0.00    +0.000 HD
BRANCH  16  18
ATOM     18  C   UNL     1       1.384   8.961  19.460  0.00  0.00    +0.000 C 
BRANCH  18  19
ATOM     19  C   UNL     1       1.251  10.015  18.368  0.00  0.00    +0.000 C 
BRANCH  19  20
ATOM     20  C   UNL     1       0.162  11.024  18.714  0.00  0.00    +0.000 C 
ATOM     21  C   UNL     1      -1.166  10.331  18.964  0.00  0.00    +0.000 C 
ENDBRANCH  19  20
ENDBRANCH  18  19
ENDBRANCH  16  18
ENDBRANCH   6  14
BRANCH  13  22
ATOM     22  C   UNL     1       5.825   3.756  15.148  0.00  0.00    +0.000 C 
BRANCH  22  23
ATOM     23  C   UNL     1       6.464   4.110  13.796  0.00  0.00    +0.000 C 
BRANCH  23  24
ATOM     24  C   UNL     1       5.852   3.363  12.663  0.00  0.00    +0.000 A 
ATOM     25  C   UNL     1       6.416   2.243  11.970  0.00  0.00    +0.000 A 
ATOM     26  C   UNL     1       5.479   1.841  11.051  0.00  0.00    +0.000 A 
ATOM     27  O   UNL     1       4.377   2.628  11.123  0.00  0.00    +0.000 OA
ATOM     28  C   UNL     1       4.600   3.542  12.105  0.00  0.00    +0.000 A 
ENDBRANCH  23  24
ENDBRANCH  22  23
ENDBRANCH  13  22
TORSDOF 7
ENDMDL
