MODEL 1
REMARK VINA RESULT:      -8.2      0.000      0.000
REMARK  Name = 
REMARK  8 active torsions:
REMARK  status: ('A' for Active; 'I' for Inactive)
REMARK    1  A    between atoms: C_1  and  C_2
REMARK    2  A    between atoms: C_11  and  O_12
REMARK    3  A    between atoms: O_12  and  C_13
REMARK    4  A    between atoms: C_13  and  C_15
REMARK    5  A    between atoms: C_18  and  C_19
REMARK    6  A    between atoms: C_25  and  C_26
REMARK    7  A    between atoms: C_29  and  C_30
REMARK    8  A    between atoms: C_32  and  N_33
REMARK                            x       y       z     vdW  Elec       q    Type
REMARK                         _______ _______ _______ _____ _____    ______ ____
ROOT
ATOM      1  C   UNL     1      -2.805  14.572  21.086  0.00  0.00    +0.000 C 
ATOM      2  C   UNL     1      -3.630  13.277  21.272  0.00  0.00    +0.000 C 
ATOM      3  C   UNL     1      -3.081  12.421  22.429  0.00  0.00    +0.000 C 
ATOM      4  C   UNL     1      -1.672  11.878  22.127  0.00  0.00    +0.000 C 
ATOM      5  C   UNL     1      -1.547  11.137  20.769  0.00  0.00    +0.000 C 
ATOM      6  C   UNL     1      -2.209  11.924  19.597  0.00  0.00    +0.000 C 
ATOM      7  C   UNL     1      -2.248  11.056  18.330  0.00  0.00    +0.000 C 
ATOM      8  C   UNL     1      -0.997  10.267  18.098  0.00  0.00    +0.000 C 
ATOM      9  C   UNL     1      -0.017  10.087  19.002  0.00  0.00    +0.000 C 
ATOM     10  C   UNL     1       1.208   9.267  18.642  0.00  0.00    +0.000 C 
ATOM     11  C   UNL     1       1.505   8.175  19.676  0.00  0.00    +0.000 C 
ATOM     12  C   UNL     1       1.616   8.801  21.069  0.00  0.00    +0.000 C 
ATOM     13  C   UNL     1       0.344   9.567  21.442  0.00  0.00    +0.000 C 
ATOM     14  C   UNL     1      -0.076  10.668  20.420  0.00  0.00    +0.000 C 
ATOM     15  C   UNL     1       0.922  11.848  20.495  0.00  0.00    +0.000 C 
ATOM     16  C   UNL     1      -3.621  12.342  20.032  0.00  0.00    +0.000 C 
ATOM     17  C   UNL     1      -4.580  13.000  19.045  0.00  0.00    +0.000 C 
ATOM     18  C   UNL     1      -5.609  13.505  20.024  0.00  0.00    +0.000 C 
ATOM     19  C   UNL     1      -5.116  13.631  21.275  0.00  0.00    +0.000 C 
ENDROOT
BRANCH  19  20
ATOM     20  N   UNL     1      -5.835  13.959  22.431  0.00  0.00    +0.000 N 
ATOM     21  C   UNL     1      -6.620  13.114  23.203  0.00  0.00    +0.000 A 
ATOM     22  N   UNL     1      -7.247  13.768  24.150  0.00  0.00    +0.000 NA
ATOM     23  C   UNL     1      -6.807  15.036  23.966  0.00  0.00    +0.000 A 
ATOM     24  N   UNL     1      -5.907  15.195  22.998  0.00  0.00    +0.000 NA
ENDBRANCH  19  20
BRANCH  18  25
ATOM     25  C   UNL     1      -6.981  13.806  19.570  0.00  0.00    +0.000 C 
ATOM     26  O   UNL     1      -7.789  12.917  19.331  0.00  0.00    +0.000 OA
ENDBRANCH  18  25
BRANCH  11  27
ATOM     27  O   UNL     1       2.765   7.532  19.381  0.00  0.00    +0.000 OA
BRANCH  27  28
ATOM     28  C   UNL     1       2.722   6.184  19.220  0.00  0.00    +0.000 C 
ATOM     29  O   UNL     1       2.085   5.401  19.908  0.00  0.00    +0.000 OA
BRANCH  28  30
ATOM     30  C   UNL     1       3.576   5.753  18.075  0.00  0.00    +0.000 A 
ATOM     31  C   UNL     1       4.272   6.735  17.352  0.00  0.00    +0.000 A 
ATOM     32  C   UNL     1       5.077   6.382  16.262  0.00  0.00    +0.000 A 
ATOM     33  C   UNL     1       5.198   5.041  15.882  0.00  0.00    +0.000 A 
ATOM     34  C   UNL     1       4.513   4.057  16.606  0.00  0.00    +0.000 A 
ATOM     35  C   UNL     1       3.706   4.410  17.695  0.00  0.00    +0.000 A 
BRANCH  33  36
ATOM     36  C   UNL     1       6.012   4.674  14.759  0.00  0.00    +0.000 C 
ATOM     37  N   UNL     1       6.670   4.371  13.852  0.00  0.00    +0.000 NA
ENDBRANCH  33  36
ENDBRANCH  28  30
ENDBRANCH  27  28
ENDBRANCH  11  27
TORSDOF 6
ENDMDL
MODEL 2
REMARK VINA RESULT:      -7.8      3.295      4.512
REMARK  Name = 
REMARK  8 active torsions:
REMARK  status: ('A' for Active; 'I' for Inactive)
REMARK    1  A    between atoms: C_1  and  C_2
REMARK    2  A    between atoms: C_11  and  O_12
REMARK    3  A    between atoms: O_12  and  C_13
REMARK    4  A    between atoms: C_13  and  C_15
REMARK    5  A    between atoms: C_18  and  C_19
REMARK    6  A    between atoms: C_25  and  C_26
REMARK    7  A    between atoms: C_29  and  C_30
REMARK    8  A    between atoms: C_32  and  N_33
REMARK                            x       y       z     vdW  Elec       q    Type
REMARK                         _______ _______ _______ _____ _____    ______ ____
ROOT
ATOM      1  C   UNL     1      -2.035  13.640  20.190  0.00  0.00    +0.000 C 
ATOM      2  C   UNL     1      -0.587  13.913  20.658  0.00  0.00    +0.000 C 
ATOM      3  C   UNL     1       0.407  13.845  19.482  0.00  0.00    +0.000 C 
ATOM      4  C   UNL     1       0.508  12.426  18.893  0.00  0.00    +0.000 C 
ATOM      5  C   UNL     1       0.796  11.316  19.939  0.00  0.00    +0.000 C 
ATOM      6  C   UNL     1      -0.111  11.436  21.201  0.00  0.00    +0.000 C 
ATOM      7  C   UNL     1       0.358  10.456  22.288  0.00  0.00    +0.000 C 
ATOM      8  C   UNL     1       0.746   9.109  21.760  0.00  0.00    +0.000 C 
ATOM      9  C   UNL     1       0.939   8.812  20.463  0.00  0.00    +0.000 C 
ATOM     10  C   UNL     1       1.325   7.402  20.055  0.00  0.00    +0.000 C 
ATOM     11  C   UNL     1       2.562   7.374  19.150  0.00  0.00    +0.000 C 
ATOM     12  C   UNL     1       2.337   8.285  17.941  0.00  0.00    +0.000 C 
ATOM     13  C   UNL     1       2.016   9.718  18.372  0.00  0.00    +0.000 C 
ATOM     14  C   UNL     1       0.801   9.850  19.343  0.00  0.00    +0.000 C 
ATOM     15  C   UNL     1      -0.507   9.552  18.574  0.00  0.00    +0.000 C 
ATOM     16  C   UNL     1      -0.058  12.888  21.698  0.00  0.00    +0.000 C 
ATOM     17  C   UNL     1      -0.726  13.289  23.010  0.00  0.00    +0.000 C 
ATOM     18  C   UNL     1      -0.692  14.787  22.837  0.00  0.00    +0.000 C 
ATOM     19  C   UNL     1      -0.577  15.157  21.544  0.00  0.00    +0.000 C 
ENDROOT
BRANCH  19  20
ATOM     20  N   UNL     1      -0.399  16.458  21.056  0.00  0.00    +0.000 N 
ATOM     21  C   UNL     1      -1.381  17.336  20.621  0.00  0.00    +0.000 A 
ATOM     22  N   UNL     1      -0.863  18.431  20.119  0.00  0.00    +0.000 NA
ATOM     23  C   UNL     1       0.466  18.222  20.281  0.00  0.00    +0.000 A 
ATOM     24  N   UNL     1       0.797  17.091  20.901  0.00  0.00    +0.000 NA
ENDBRANCH  19  20
BRANCH  18  25
ATOM     25  C   UNL     1      -0.785  15.672  24.014  0.00  0.00    +0.000 C 
ATOM     26  O   UNL     1      -0.751  15.229  25.156  0.00  0.00    +0.000 OA
ENDBRANCH  18  25
BRANCH  11  27
ATOM     27  O   UNL     1       2.793   6.036  18.656  0.00  0.00    +0.000 OA
BRANCH  27  28
ATOM     28  C   UNL     1       4.068   5.576  18.755  0.00  0.00    +0.000 C 
ATOM     29  O   UNL     1       4.711   5.466  19.787  0.00  0.00    +0.000 OA
BRANCH  28  30
ATOM     30  C   UNL     1       4.613   5.218  17.413  0.00  0.00    +0.000 A 
ATOM     31  C   UNL     1       4.830   3.863  17.118  0.00  0.00    +0.000 A 
ATOM     32  C   UNL     1       5.351   3.476  15.877  0.00  0.00    +0.000 A 
ATOM     33  C   UNL     1       5.661   4.442  14.914  0.00  0.00    +0.000 A 
ATOM     34  C   UNL     1       5.437   5.794  15.199  0.00  0.00    +0.000 A 
ATOM     35  C   UNL     1       4.918   6.181  16.442  0.00  0.00    +0.000 A 
BRANCH  33  36
ATOM     36  C   UNL     1       6.205   4.054  13.645  0.00  0.00    +0.000 C 
ATOM     37  N   UNL     1       6.648   3.746  12.616  0.00  0.00    +0.000 NA
ENDBRANCH  33  36
ENDBRANCH  28  30
ENDBRANCH  27  28
ENDBRANCH  11  27
TORSDOF 6
ENDMDL
MODEL 3
REMARK VINA RESULT:      -7.7      4.005      5.307
REMARK  Name = 
REMARK  8 active torsions:
REMARK  status: ('A' for Active; 'I' for Inactive)
REMARK    1  A    between atoms: C_1  and  C_2
REMARK    2  A    between atoms: C_11  and  O_12
REMARK    3  A    between atoms: O_12  and  C_13
REMARK    4  A    between atoms: C_13  and  C_15
REMARK    5  A    between atoms: C_18  and  C_19
REMARK    6  A    between atoms: C_25  and  C_26
REMARK    7  A    between atoms: C_29  and  C_30
REMARK    8  A    between atoms: C_32  and  N_33
REMARK                            x       y       z     vdW  Elec       q    Type
REMARK                         _______ _______ _______ _____ _____    ______ ____
ROOT
ATOM      1  C   UNL     1      -0.654  12.666  18.619  0.00  0.00    +0.000 C 
ATOM      2  C   UNL     1       0.703  12.856  19.335  0.00  0.00    +0.000 C 
ATOM      3  C   UNL     1       1.884  12.570  18.387  0.00  0.00    +0.000 C 
ATOM      4  C   UNL     1       1.936  11.093  17.958  0.00  0.00    +0.000 C 
ATOM      5  C   UNL     1       1.901  10.081  19.135  0.00  0.00    +0.000 C 
ATOM      6  C   UNL     1       0.794  10.420  20.180  0.00  0.00    +0.000 C 
ATOM      7  C   UNL     1       0.943   9.525  21.420  0.00  0.00    +0.000 C 
ATOM      8  C   UNL     1       1.271   8.099  21.101  0.00  0.00    +0.000 C 
ATOM      9  C   UNL     1       1.669   7.647  19.899  0.00  0.00    +0.000 C 
ATOM     10  C   UNL     1       1.966   6.171  19.702  0.00  0.00    +0.000 C 
ATOM     11  C   UNL     1       3.338   5.933  19.063  0.00  0.00    +0.000 C 
ATOM     12  C   UNL     1       3.444   6.724  17.757  0.00  0.00    +0.000 C 
ATOM     13  C   UNL     1       3.207   8.219  17.986  0.00  0.00    +0.000 C 
ATOM     14  C   UNL     1       1.856   8.565  18.685  0.00  0.00    +0.000 C 
ATOM     15  C   UNL     1       0.688   8.305  17.704  0.00  0.00    +0.000 C 
ATOM     16  C   UNL     1       0.913  11.906  20.546  0.00  0.00    +0.000 C 
ATOM     17  C   UNL     1       0.062  12.507  21.660  0.00  0.00    +0.000 C 
ATOM     18  C   UNL     1       0.292  13.968  21.365  0.00  0.00    +0.000 C 
ATOM     19  C   UNL     1       0.685  14.183  20.090  0.00  0.00    +0.000 C 
ENDROOT
BRANCH  19  20
ATOM     20  N   UNL     1       1.093  15.401  19.533  0.00  0.00    +0.000 N 
ATOM     21  C   UNL     1       0.328  16.280  18.778  0.00  0.00    +0.000 A 
ATOM     22  N   UNL     1       1.050  17.271  18.313  0.00  0.00    +0.000 NA
ATOM     23  C   UNL     1       2.275  17.002  18.825  0.00  0.00    +0.000 A 
ATOM     24  N   UNL     1       2.342  15.936  19.619  0.00  0.00    +0.000 NA
ENDBRANCH  19  20
BRANCH  18  25
ATOM     25  C   UNL     1       0.080  14.980  22.417  0.00  0.00    +0.000 C 
ATOM     26  O   UNL     1      -0.896  15.721  22.409  0.00  0.00    +0.000 OA
ENDBRANCH  18  25
BRANCH  11  27
ATOM     27  O   UNL     1       3.508   4.533  18.745  0.00  0.00    +0.000 OA
BRANCH  27  28
ATOM     28  C   UNL     1       4.787   4.073  18.749  0.00  0.00    +0.000 C 
ATOM     29  O   UNL     1       5.346   3.522  19.684  0.00  0.00    +0.000 OA
BRANCH  28  30
ATOM     30  C   UNL     1       5.454   4.333  17.440  0.00  0.00    +0.000 A 
ATOM     31  C   UNL     1       6.712   4.956  17.442  0.00  0.00    +0.000 A 
ATOM     32  C   UNL     1       7.374   5.232  16.238  0.00  0.00    +0.000 A 
ATOM     33  C   UNL     1       6.786   4.886  15.018  0.00  0.00    +0.000 A 
ATOM     34  C   UNL     1       5.535   4.256  15.011  0.00  0.00    +0.000 A 
ATOM     35  C   UNL     1       4.872   3.982  16.215  0.00  0.00    +0.000 A 
BRANCH  33  36
ATOM     36  C   UNL     1       7.453   5.176  13.782  0.00  0.00    +0.000 C 
ATOM     37  N   UNL     1       7.996   5.415  12.783  0.00  0.00    +0.000 NA
ENDBRANCH  33  36
ENDBRANCH  28  30
ENDBRANCH  27  28
ENDBRANCH  11  27
TORSDOF 6
ENDMDL
MODEL 4
REMARK VINA RESULT:      -7.7      0.672      1.160
REMARK  Name = 
REMARK  8 active torsions:
REMARK  status: ('A' for Active; 'I' for Inactive)
REMARK    1  A    between atoms: C_1  and  C_2
REMARK    2  A    between atoms: C_11  and  O_12
REMARK    3  A    between atoms: O_12  and  C_13
REMARK    4  A    between atoms: C_13  and  C_15
REMARK    5  A    between atoms: C_18  and  C_19
REMARK    6  A    between atoms: C_25  and  C_26
REMARK    7  A    between atoms: C_29  and  C_30
REMARK    8  A    between atoms: C_32  and  N_33
REMARK                            x       y       z     vdW  Elec       q    Type
REMARK                         _______ _______ _______ _____ _____    ______ ____
ROOT
ATOM      1  C   UNL     1      -2.378  14.654  20.872  0.00  0.00    +0.000 C 
ATOM      2  C   UNL     1      -3.283  13.432  21.155  0.00  0.00    +0.000 C 
ATOM      3  C   UNL     1      -2.795  12.643  22.384  0.00  0.00    +0.000 C 
ATOM      4  C   UNL     1      -1.420  11.992  22.145  0.00  0.00    +0.000 C 
ATOM      5  C   UNL     1      -1.332  11.135  20.854  0.00  0.00    +0.000 C 
ATOM      6  C   UNL     1      -1.937  11.861  19.614  0.00  0.00    +0.000 C 
ATOM      7  C   UNL     1      -2.021  10.895  18.422  0.00  0.00    +0.000 C 
ATOM      8  C   UNL     1      -0.819  10.014  18.271  0.00  0.00    +0.000 C 
ATOM      9  C   UNL     1       0.141   9.850  19.197  0.00  0.00    +0.000 C 
ATOM     10  C   UNL     1       1.316   8.930  18.920  0.00  0.00    +0.000 C 
ATOM     11  C   UNL     1       1.538   7.912  20.044  0.00  0.00    +0.000 C 
ATOM     12  C   UNL     1       1.678   8.643  21.382  0.00  0.00    +0.000 C 
ATOM     13  C   UNL     1       0.454   9.513  21.676  0.00  0.00    +0.000 C 
ATOM     14  C   UNL     1       0.109  10.550  20.562  0.00  0.00    +0.000 C 
ATOM     15  C   UNL     1       1.177  11.668  20.551  0.00  0.00    +0.000 C 
ATOM     16  C   UNL     1      -3.323  12.398  19.996  0.00  0.00    +0.000 C 
ATOM     17  C   UNL     1      -4.233  13.030  18.947  0.00  0.00    +0.000 C 
ATOM     18  C   UNL     1      -5.236  13.676  19.869  0.00  0.00    +0.000 C 
ATOM     19  C   UNL     1      -4.744  13.875  21.111  0.00  0.00    +0.000 C 
ENDROOT
BRANCH  19  20
ATOM     20  N   UNL     1      -5.449  14.341  22.228  0.00  0.00    +0.000 N 
ATOM     21  C   UNL     1      -5.469  15.633  22.733  0.00  0.00    +0.000 A 
ATOM     22  N   UNL     1      -6.139  15.701  23.858  0.00  0.00    +0.000 NA
ATOM     23  C   UNL     1      -6.562  14.424  24.022  0.00  0.00    +0.000 A 
ATOM     24  N   UNL     1      -6.238  13.585  23.041  0.00  0.00    +0.000 NA
ENDBRANCH  19  20
BRANCH  18  25
ATOM     25  C   UNL     1      -6.583  14.021  19.376  0.00  0.00    +0.000 C 
ATOM     26  O   UNL     1      -7.018  15.165  19.442  0.00  0.00    +0.000 OA
ENDBRANCH  18  25
BRANCH  11  27
ATOM     27  O   UNL     1       2.758   7.171  19.818  0.00  0.00    +0.000 OA
BRANCH  27  28
ATOM     28  C   UNL     1       2.613   5.948  19.244  0.00  0.00    +0.000 C 
ATOM     29  O   UNL     1       1.836   5.077  19.602  0.00  0.00    +0.000 OA
BRANCH  28  30
ATOM     30  C   UNL     1       3.549   5.782  18.094  0.00  0.00    +0.000 A 
ATOM     31  C   UNL     1       3.854   4.482  17.660  0.00  0.00    +0.000 A 
ATOM     32  C   UNL     1       4.736   4.273  16.592  0.00  0.00    +0.000 A 
ATOM     33  C   UNL     1       5.323   5.364  15.943  0.00  0.00    +0.000 A 
ATOM     34  C   UNL     1       5.014   6.663  16.365  0.00  0.00    +0.000 A 
ATOM     35  C   UNL     1       4.134   6.872  17.435  0.00  0.00    +0.000 A 
BRANCH  33  36
ATOM     36  C   UNL     1       6.236   5.157  14.856  0.00  0.00    +0.000 C 
ATOM     37  N   UNL     1       6.970   4.992  13.971  0.00  0.00    +0.000 NA
ENDBRANCH  33  36
ENDBRANCH  28  30
ENDBRANCH  27  28
ENDBRANCH  11  27
TORSDOF 6
ENDMDL
MODEL 5
REMARK VINA RESULT:      -7.5      3.626      5.000
REMARK  Name = 
REMARK  8 active torsions:
REMARK  status: ('A' for Active; 'I' for Inactive)
REMARK    1  A    between atoms: C_1  and  C_2
REMARK    2  A    between atoms: C_11  and  O_12
REMARK    3  A    between atoms: O_12  and  C_13
REMARK    4  A    between atoms: C_13  and  C_15
REMARK    5  A    between atoms: C_18  and  C_19
REMARK    6  A    between atoms: C_25  and  C_26
REMARK    7  A    between atoms: C_29  and  C_30
REMARK    8  A    between atoms: C_32  and  N_33
REMARK                            x       y       z     vdW  Elec       q    Type
REMARK                         _______ _______ _______ _____ _____    ______ ____
ROOT
ATOM      1  C   UNL     1      -1.146  12.341  18.944  0.00  0.00    +0.000 C 
ATOM      2  C   UNL     1       0.194  12.653  19.649  0.00  0.00    +0.000 C 
ATOM      3  C   UNL     1       1.380  12.563  18.670  0.00  0.00    +0.000 C 
ATOM      4  C   UNL     1       1.598  11.127  18.158  0.00  0.00    +0.000 C 
ATOM      5  C   UNL     1       1.709  10.057  19.277  0.00  0.00    +0.000 C 
ATOM      6  C   UNL     1       0.592  10.204  20.355  0.00  0.00    +0.000 C 
ATOM      7  C   UNL     1       0.873   9.269  21.541  0.00  0.00    +0.000 C 
ATOM      8  C   UNL     1       1.361   7.911  21.139  0.00  0.00    +0.000 C 
ATOM      9  C   UNL     1       1.784   7.575  19.908  0.00  0.00    +0.000 C 
ATOM     10  C   UNL     1       2.251   6.159  19.624  0.00  0.00    +0.000 C 
ATOM     11  C   UNL     1       3.628   6.122  18.953  0.00  0.00    +0.000 C 
ATOM     12  C   UNL     1       3.611   6.989  17.692  0.00  0.00    +0.000 C 
ATOM     13  C   UNL     1       3.203   8.429  18.008  0.00  0.00    +0.000 C 
ATOM     14  C   UNL     1       1.835   8.573  18.744  0.00  0.00    +0.000 C 
ATOM     15  C   UNL     1       0.686   8.228  17.768  0.00  0.00    +0.000 C 
ATOM     16  C   UNL     1       0.541  11.673  20.802  0.00  0.00    +0.000 C 
ATOM     17  C   UNL     1      -0.352  12.106  21.960  0.00  0.00    +0.000 C 
ATOM     18  C   UNL     1      -0.304  13.598  21.743  0.00  0.00    +0.000 C 
ATOM     19  C   UNL     1       0.034  13.926  20.478  0.00  0.00    +0.000 C 
ENDROOT
BRANCH  19  20
ATOM     20  N   UNL     1       0.281  15.213  19.983  0.00  0.00    +0.000 N 
ATOM     21  C   UNL     1      -0.537  15.970  19.157  0.00  0.00    +0.000 A 
ATOM     22  N   UNL     1       0.047  17.084  18.787  0.00  0.00    +0.000 NA
ATOM     23  C   UNL     1       1.238  17.013  19.430  0.00  0.00    +0.000 A 
ATOM     24  N   UNL     1       1.402  15.951  20.215  0.00  0.00    +0.000 NA
ENDBRANCH  19  20
BRANCH  18  25
ATOM     25  C   UNL     1      -0.613  14.519  22.853  0.00  0.00    +0.000 C 
ATOM     26  O   UNL     1      -1.388  15.458  22.713  0.00  0.00    +0.000 OA
ENDBRANCH  18  25
BRANCH  11  27
ATOM     27  O   UNL     1       3.957   4.772  18.555  0.00  0.00    +0.000 OA
BRANCH  27  28
ATOM     28  C   UNL     1       5.282   4.479  18.480  0.00  0.00    +0.000 C 
ATOM     29  O   UNL     1       6.018   4.244  19.425  0.00  0.00    +0.000 OA
BRANCH  28  30
ATOM     30  C   UNL     1       5.752   4.487  17.063  0.00  0.00    +0.000 A 
ATOM     31  C   UNL     1       4.871   4.049  16.062  0.00  0.00    +0.000 A 
ATOM     32  C   UNL     1       5.269   4.027  14.720  0.00  0.00    +0.000 A 
ATOM     33  C   UNL     1       6.555   4.444  14.362  0.00  0.00    +0.000 A 
ATOM     34  C   UNL     1       7.435   4.891  15.356  0.00  0.00    +0.000 A 
ATOM     35  C   UNL     1       7.037   4.912  16.699  0.00  0.00    +0.000 A 
BRANCH  33  36
ATOM     36  C   UNL     1       6.973   4.414  12.990  0.00  0.00    +0.000 C 
ATOM     37  N   UNL     1       7.306   4.390  11.877  0.00  0.00    +0.000 NA
ENDBRANCH  33  36
ENDBRANCH  28  30
ENDBRANCH  27  28
ENDBRANCH  11  27
TORSDOF 6
ENDMDL
MODEL 6
REMARK VINA RESULT:      -7.5      3.093      4.284
REMARK  Name = 
REMARK  8 active torsions:
REMARK  status: ('A' for Active; 'I' for Inactive)
REMARK    1  A    between atoms: C_1  and  C_2
REMARK    2  A    between atoms: C_11  and  O_12
REMARK    3  A    between atoms: O_12  and  C_13
REMARK    4  A    between atoms: C_13  and  C_15
REMARK    5  A    between atoms: C_18  and  C_19
REMARK    6  A    between atoms: C_25  and  C_26
REMARK    7  A    between atoms: C_29  and  C_30
REMARK    8  A    between atoms: C_32  and  N_33
REMARK                            x       y       z     vdW  Elec       q    Type
REMARK                         _______ _______ _______ _____ _____    ______ ____
ROOT
ATOM      1  C   UNL     1      -2.429  13.625  20.426  0.00  0.00    +0.000 C 
ATOM      2  C   UNL     1      -0.975  13.956  20.833  0.00  0.00    +0.000 C 
ATOM      3  C   UNL     1      -0.038  13.973  19.610  0.00  0.00    +0.000 C 
ATOM      4  C   UNL     1       0.103  12.579  18.972  0.00  0.00    +0.000 C 
ATOM      5  C   UNL     1       0.496  11.454  19.967  0.00  0.00    +0.000 C 
ATOM      6  C   UNL     1      -0.353  11.492  21.274  0.00  0.00    +0.000 C 
ATOM      7  C   UNL     1       0.216  10.505  22.306  0.00  0.00    +0.000 C 
ATOM      8  C   UNL     1       0.642   9.195  21.718  0.00  0.00    +0.000 C 
ATOM      9  C   UNL     1       0.787   8.946  20.404  0.00  0.00    +0.000 C 
ATOM     10  C   UNL     1       1.220   7.570  19.934  0.00  0.00    +0.000 C 
ATOM     11  C   UNL     1       2.411   7.631  18.971  0.00  0.00    +0.000 C 
ATOM     12  C   UNL     1       2.084   8.565  17.804  0.00  0.00    +0.000 C 
ATOM     13  C   UNL     1       1.714   9.967  18.294  0.00  0.00    +0.000 C 
ATOM     14  C   UNL     1       0.544  10.009  19.325  0.00  0.00    +0.000 C 
ATOM     15  C   UNL     1      -0.785   9.668  18.610  0.00  0.00    +0.000 C 
ATOM     16  C   UNL     1      -0.347  12.929  21.814  0.00  0.00    +0.000 C 
ATOM     17  C   UNL     1      -0.969  13.258  23.168  0.00  0.00    +0.000 C 
ATOM     18  C   UNL     1      -1.016  14.760  23.041  0.00  0.00    +0.000 C 
ATOM     19  C   UNL     1      -0.982  15.173  21.756  0.00  0.00    +0.000 C 
ENDROOT
BRANCH  19  20
ATOM     20  N   UNL     1      -0.892  16.495  21.302  0.00  0.00    +0.000 N 
ATOM     21  C   UNL     1       0.245  17.286  21.233  0.00  0.00    +0.000 A 
ATOM     22  N   UNL     1      -0.041  18.513  20.869  0.00  0.00    +0.000 NA
ATOM     23  C   UNL     1      -1.382  18.455  20.684  0.00  0.00    +0.000 A 
ATOM     24  N   UNL     1      -1.932  17.255  20.860  0.00  0.00    +0.000 NA
ENDBRANCH  19  20
BRANCH  18  25
ATOM     25  C   UNL     1      -1.094  15.604  24.249  0.00  0.00    +0.000 C 
ATOM     26  O   UNL     1      -0.101  16.142  24.724  0.00  0.00    +0.000 OA
ENDBRANCH  18  25
BRANCH  11  27
ATOM     27  O   UNL     1       2.683   6.321  18.425  0.00  0.00    +0.000 OA
BRANCH  27  28
ATOM     28  C   UNL     1       3.938   5.842  18.623  0.00  0.00    +0.000 C 
ATOM     29  O   UNL     1       4.537   5.821  19.687  0.00  0.00    +0.000 OA
BRANCH  28  30
ATOM     30  C   UNL     1       4.526   5.333  17.349  0.00  0.00    +0.000 A 
ATOM     31  C   UNL     1       5.438   6.148  16.659  0.00  0.00    +0.000 A 
ATOM     32  C   UNL     1       6.007   5.720  15.453  0.00  0.00    +0.000 A 
ATOM     33  C   UNL     1       5.672   4.471  14.922  0.00  0.00    +0.000 A 
ATOM     34  C   UNL     1       4.771   3.650  15.612  0.00  0.00    +0.000 A 
ATOM     35  C   UNL     1       4.199   4.078  16.817  0.00  0.00    +0.000 A 
BRANCH  33  36
ATOM     36  C   UNL     1       6.243   4.032  13.682  0.00  0.00    +0.000 C 
ATOM     37  N   UNL     1       6.712   3.678  12.680  0.00  0.00    +0.000 NA
ENDBRANCH  33  36
ENDBRANCH  28  30
ENDBRANCH  27  28
ENDBRANCH  11  27
TORSDOF 6
ENDMDL
MODEL 7
REMARK VINA RESULT:      -7.4      4.598      5.797
REMARK  Name = 
REMARK  8 active torsions:
REMARK  status: ('A' for Active; 'I' for Inactive)
REMARK    1  A    between atoms: C_1  and  C_2
REMARK    2  A    between atoms: C_11  and  O_12
REMARK    3  A    between atoms: O_12  and  C_13
REMARK    4  A    between atoms: C_13  and  C_15
REMARK    5  A    between atoms: C_18  and  C_19
REMARK    6  A    between atoms: C_25  and  C_26
REMARK    7  A    between atoms: C_29  and  C_30
REMARK    8  A    between atoms: C_32  and  N_33
REMARK                            x       y       z     vdW  Elec       q    Type
REMARK                         _______ _______ _______ _____ _____    ______ ____
ROOT
ATOM      1  C   UNL     1      -0.152  13.434  18.510  0.00  0.00    +0.000 C 
ATOM      2  C   UNL     1       1.265  13.424  19.130  0.00  0.00    +0.000 C 
ATOM      3  C   UNL     1       2.299  12.822  18.160  0.00  0.00    +0.000 C 
ATOM      4  C   UNL     1       2.041  11.328  17.894  0.00  0.00    +0.000 C 
ATOM      5  C   UNL     1       1.900  10.463  19.176  0.00  0.00    +0.000 C 
ATOM      6  C   UNL     1       0.955  11.112  20.232  0.00  0.00    +0.000 C 
ATOM      7  C   UNL     1       1.020  10.332  21.554  0.00  0.00    +0.000 C 
ATOM      8  C   UNL     1       1.049   8.845  21.378  0.00  0.00    +0.000 C 
ATOM      9  C   UNL     1       1.267   8.207  20.214  0.00  0.00    +0.000 C 
ATOM     10  C   UNL     1       1.266   6.691  20.165  0.00  0.00    +0.000 C 
ATOM     11  C   UNL     1       2.519   6.127  19.487  0.00  0.00    +0.000 C 
ATOM     12  C   UNL     1       2.678   6.751  18.098  0.00  0.00    +0.000 C 
ATOM     13  C   UNL     1       2.745   8.277  18.174  0.00  0.00    +0.000 C 
ATOM     14  C   UNL     1       1.537   8.948  18.898  0.00  0.00    +0.000 C 
ATOM     15  C   UNL     1       0.274   8.826  18.013  0.00  0.00    +0.000 C 
ATOM     16  C   UNL     1       1.378  12.575  20.426  0.00  0.00    +0.000 C 
ATOM     17  C   UNL     1       0.737  13.437  21.509  0.00  0.00    +0.000 C 
ATOM     18  C   UNL     1       1.218  14.789  21.043  0.00  0.00    +0.000 C 
ATOM     19  C   UNL     1       1.552  14.797  19.735  0.00  0.00    +0.000 C 
ENDROOT
BRANCH  19  20
ATOM     20  N   UNL     1       2.141  15.851  19.026  0.00  0.00    +0.000 N 
ATOM     21  C   UNL     1       1.499  16.818  18.266  0.00  0.00    +0.000 A 
ATOM     22  N   UNL     1       2.355  17.589  17.641  0.00  0.00    +0.000 NA
ATOM     23  C   UNL     1       3.546  17.096  18.059  0.00  0.00    +0.000 A 
ATOM     24  N   UNL     1       3.477  16.104  18.942  0.00  0.00    +0.000 NA
ENDBRANCH  19  20
BRANCH  18  25
ATOM     25  C   UNL     1       1.276  15.921  21.987  0.00  0.00    +0.000 C 
ATOM     26  O   UNL     1       1.914  15.856  23.032  0.00  0.00    +0.000 OA
ENDBRANCH  18  25
BRANCH  11  27
ATOM     27  O   UNL     1       2.398   4.697  19.317  0.00  0.00    +0.000 OA
BRANCH  27  28
ATOM     28  C   UNL     1       3.550   3.985  19.434  0.00  0.00    +0.000 C 
ATOM     29  O   UNL     1       3.840   3.241  20.357  0.00  0.00    +0.000 OA
BRANCH  28  30
ATOM     30  C   UNL     1       4.452   4.229  18.270  0.00  0.00    +0.000 A 
ATOM     31  C   UNL     1       5.697   4.834  18.504  0.00  0.00    +0.000 A 
ATOM     32  C   UNL     1       6.574   5.095  17.443  0.00  0.00    +0.000 A 
ATOM     33  C   UNL     1       6.216   4.752  16.135  0.00  0.00    +0.000 A 
ATOM     34  C   UNL     1       4.979   4.139  15.899  0.00  0.00    +0.000 A 
ATOM     35  C   UNL     1       4.101   3.881  16.959  0.00  0.00    +0.000 A 
BRANCH  33  36
ATOM     36  C   UNL     1       7.105   5.027  15.043  0.00  0.00    +0.000 C 
ATOM     37  N   UNL     1       7.830   5.246  14.162  0.00  0.00    +0.000 NA
ENDBRANCH  33  36
ENDBRANCH  28  30
ENDBRANCH  27  28
ENDBRANCH  11  27
TORSDOF 6
ENDMDL
MODEL 8
REMARK VINA RESULT:      -7.4      3.405      4.773
REMARK  Name = 
REMARK  8 active torsions:
REMARK  status: ('A' for Active; 'I' for Inactive)
REMARK    1  A    between atoms: C_1  and  C_2
REMARK    2  A    between atoms: C_11  and  O_12
REMARK    3  A    between atoms: O_12  and  C_13
REMARK    4  A    between atoms: C_13  and  C_15
REMARK    5  A    between atoms: C_18  and  C_19
REMARK    6  A    between atoms: C_25  and  C_26
REMARK    7  A    between atoms: C_29  and  C_30
REMARK    8  A    between atoms: C_32  and  N_33
REMARK                            x       y       z     vdW  Elec       q    Type
REMARK                         _______ _______ _______ _____ _____    ______ ____
ROOT
ATOM      1  C   UNL     1      -1.478  12.101  19.210  0.00  0.00    +0.000 C 
ATOM      2  C   UNL     1      -0.169  12.453  19.955  0.00  0.00    +0.000 C 
ATOM      3  C   UNL     1       1.036  12.479  18.996  0.00  0.00    +0.000 C 
ATOM      4  C   UNL     1       1.344  11.085  18.419  0.00  0.00    +0.000 C 
ATOM      5  C   UNL     1       1.498   9.969  19.487  0.00  0.00    +0.000 C 
ATOM      6  C   UNL     1       0.357   9.999  20.549  0.00  0.00    +0.000 C 
ATOM      7  C   UNL     1       0.671   9.023  21.694  0.00  0.00    +0.000 C 
ATOM      8  C   UNL     1       1.243   7.717  21.235  0.00  0.00    +0.000 C 
ATOM      9  C   UNL     1       1.705   7.466  19.997  0.00  0.00    +0.000 C 
ATOM     10  C   UNL     1       2.256   6.095  19.654  0.00  0.00    +0.000 C 
ATOM     11  C   UNL     1       3.644   6.168  19.009  0.00  0.00    +0.000 C 
ATOM     12  C   UNL     1       3.598   7.095  17.791  0.00  0.00    +0.000 C 
ATOM     13  C   UNL     1       3.103   8.492  18.169  0.00  0.00    +0.000 C 
ATOM     14  C   UNL     1       1.717   8.522  18.885  0.00  0.00    +0.000 C 
ATOM     15  C   UNL     1       0.606   8.161  17.871  0.00  0.00    +0.000 C 
ATOM     16  C   UNL     1       0.215  11.438  21.066  0.00  0.00    +0.000 C 
ATOM     17  C   UNL     1      -0.721  11.762  22.227  0.00  0.00    +0.000 C 
ATOM     18  C   UNL     1      -0.754  13.263  22.084  0.00  0.00    +0.000 C 
ATOM     19  C   UNL     1      -0.415  13.673  20.842  0.00  0.00    +0.000 C 
ENDROOT
BRANCH  19  20
ATOM     20  N   UNL     1      -0.234  14.994  20.415  0.00  0.00    +0.000 N 
ATOM     21  C   UNL     1       0.931  15.746  20.472  0.00  0.00    +0.000 A 
ATOM     22  N   UNL     1       0.726  16.985  20.096  0.00  0.00    +0.000 NA
ATOM     23  C   UNL     1      -0.591  16.975  19.774  0.00  0.00    +0.000 A 
ATOM     24  N   UNL     1      -1.196  15.794  19.878  0.00  0.00    +0.000 NA
ENDBRANCH  19  20
BRANCH  18  25
ATOM     25  C   UNL     1      -1.133  14.110  23.231  0.00  0.00    +0.000 C 
ATOM     26  O   UNL     1      -0.345  14.901  23.735  0.00  0.00    +0.000 OA
ENDBRANCH  18  25
BRANCH  11  27
ATOM     27  O   UNL     1       4.056   4.860  18.552  0.00  0.00    +0.000 OA
BRANCH  27  28
ATOM     28  C   UNL     1       5.395   4.670  18.420  0.00  0.00    +0.000 C 
ATOM     29  O   UNL     1       6.203   4.608  19.334  0.00  0.00    +0.000 OA
BRANCH  28  30
ATOM     30  C   UNL     1       5.780   4.550  16.983  0.00  0.00    +0.000 A 
ATOM     31  C   UNL     1       6.924   5.231  16.537  0.00  0.00    +0.000 A 
ATOM     32  C   UNL     1       7.320   5.159  15.196  0.00  0.00    +0.000 A 
ATOM     33  C   UNL     1       6.577   4.403  14.283  0.00  0.00    +0.000 A 
ATOM     34  C   UNL     1       5.441   3.714  14.726  0.00  0.00    +0.000 A 
ATOM     35  C   UNL     1       5.043   3.788  16.067  0.00  0.00    +0.000 A 
BRANCH  33  36
ATOM     36  C   UNL     1       6.971   4.334  12.906  0.00  0.00    +0.000 C 
ATOM     37  N   UNL     1       7.284   4.278  11.789  0.00  0.00    +0.000 NA
ENDBRANCH  33  36
ENDBRANCH  28  30
ENDBRANCH  27  28
ENDBRANCH  11  27
TORSDOF 6
ENDMDL
MODEL 9
REMARK VINA RESULT:      -7.4      2.968     11.401
REMARK  Name = 
REMARK  8 active torsions:
REMARK  status: ('A' for Active; 'I' for Inactive)
REMARK    1  A    between atoms: C_1  and  C_2
REMARK    2  A    between atoms: C_11  and  O_12
REMARK    3  A    between atoms: O_12  and  C_13
REMARK    4  A    between atoms: C_13  and  C_15
REMARK    5  A    between atoms: C_18  and  C_19
REMARK    6  A    between atoms: C_25  and  C_26
REMARK    7  A    between atoms: C_29  and  C_30
REMARK    8  A    between atoms: C_32  and  N_33
REMARK                            x       y       z     vdW  Elec       q    Type
REMARK                         _______ _______ _______ _____ _____    ______ ____
ROOT
ATOM      1  C   UNL     1       1.438   5.491  17.581  0.00  0.00    +0.000 C 
ATOM      2  C   UNL     1       2.593   5.910  18.520  0.00  0.00    +0.000 C 
ATOM      3  C   UNL     1       2.134   5.964  19.989  0.00  0.00    +0.000 C 
ATOM      4  C   UNL     1       1.092   7.072  20.228  0.00  0.00    +0.000 C 
ATOM      5  C   UNL     1       1.519   8.475  19.719  0.00  0.00    +0.000 C 
ATOM      6  C   UNL     1       2.109   8.432  18.277  0.00  0.00    +0.000 C 
ATOM      7  C   UNL     1       2.710   9.797  17.907  0.00  0.00    +0.000 C 
ATOM      8  C   UNL     1       1.881  10.963  18.351  0.00  0.00    +0.000 C 
ATOM      9  C   UNL     1       0.852  10.897  19.214  0.00  0.00    +0.000 C 
ATOM     10  C   UNL     1       0.085  12.154  19.580  0.00  0.00    +0.000 C 
ATOM     11  C   UNL     1      -0.037  12.343  21.097  0.00  0.00    +0.000 C 
ATOM     12  C   UNL     1      -0.648  11.088  21.725  0.00  0.00    +0.000 C 
ATOM     13  C   UNL     1       0.177   9.841  21.401  0.00  0.00    +0.000 C 
ATOM     14  C   UNL     1       0.406   9.588  19.878  0.00  0.00    +0.000 C 
ATOM     15  C   UNL     1      -0.925   9.150  19.223  0.00  0.00    +0.000 C 
ATOM     16  C   UNL     1       3.167   7.321  18.220  0.00  0.00    +0.000 C 
ATOM     17  C   UNL     1       4.033   7.130  16.978  0.00  0.00    +0.000 C 
ATOM     18  C   UNL     1       4.596   5.768  17.296  0.00  0.00    +0.000 C 
ATOM     19  C   UNL     1       3.833   5.086  18.179  0.00  0.00    +0.000 C 
ENDROOT
BRANCH  19  20
ATOM     20  N   UNL     1       4.134   3.852  18.769  0.00  0.00    +0.000 N 
ATOM     21  C   UNL     1       3.490   2.641  18.563  0.00  0.00    +0.000 A 
ATOM     22  N   UNL     1       3.950   1.707  19.361  0.00  0.00    +0.000 NA
ATOM     23  C   UNL     1       4.918   2.363  20.045  0.00  0.00    +0.000 A 
ATOM     24  N   UNL     1       5.119   3.627  19.682  0.00  0.00    +0.000 NA
ENDBRANCH  19  20
BRANCH  18  25
ATOM     25  C   UNL     1       5.846   5.314  16.658  0.00  0.00    +0.000 C 
ATOM     26  O   UNL     1       6.936   5.767  16.986  0.00  0.00    +0.000 OA
ENDBRANCH  18  25
BRANCH  11  27
ATOM     27  O   UNL     1      -0.909  13.456  21.396  0.00  0.00    +0.000 OA
BRANCH  27  28
ATOM     28  C   UNL     1      -1.218  13.634  22.707  0.00  0.00    +0.000 C 
ATOM     29  O   UNL     1      -0.431  13.924  23.595  0.00  0.00    +0.000 OA
BRANCH  28  30
ATOM     30  C   UNL     1      -2.675  13.420  22.948  0.00  0.00    +0.000 A 
ATOM     31  C   UNL     1      -3.079  12.894  24.186  0.00  0.00    +0.000 A 
ATOM     32  C   UNL     1      -4.434  12.664  24.456  0.00  0.00    +0.000 A 
ATOM     33  C   UNL     1      -5.403  12.958  23.491  0.00  0.00    +0.000 A 
ATOM     34  C   UNL     1      -5.005  13.493  22.259  0.00  0.00    +0.000 A 
ATOM     35  C   UNL     1      -3.650  13.721  21.988  0.00  0.00    +0.000 A 
BRANCH  33  36
ATOM     36  C   UNL     1      -6.791  12.715  23.758  0.00  0.00    +0.000 C 
ATOM     37  N   UNL     1      -7.917  12.524  23.970  0.00  0.00    +0.000 NA
ENDBRANCH  33  36
ENDBRANCH  28  30
ENDBRANCH  27  28
ENDBRANCH  11  27
TORSDOF 6
ENDMDL
