MODEL 1
REMARK VINA RESULT:      -8.0      0.000      0.000
REMARK  Name = 
REMARK  11 active torsions:
REMARK  status: ('A' for Active; 'I' for Inactive)
REMARK    1  A    between atoms: C_1  and  C_2
REMARK    2  A    between atoms: C_2  and  N_3
REMARK    3  A    between atoms: N_3  and  C_4
REMARK    4  A    between atoms: N_3  and  C_6
REMARK    5  A    between atoms: C_4  and  C_5
REMARK    6  A    between atoms: C_9  and  C_10
REMARK    7  A    between atoms: C_11  and  C_12
REMARK    8  A    between atoms: C_12  and  C_14
REMARK    9  A    between atoms: C_17  and  O_18
REMARK   10  A    between atoms: O_18  and  C_19
REMARK   11  A    between atoms: C_27  and  O_28
REMARK                            x       y       z     vdW  Elec       q    Type
REMARK                         _______ _______ _______ _____ _____    ______ ____
ROOT
ATOM      1  C   UNL     1       5.940   6.362  17.680  0.00  0.00    +0.000 A 
ATOM      2  C   UNL     1       4.934   7.317  17.464  0.00  0.00    +0.000 A 
ATOM      3  C   UNL     1       3.581   6.976  17.618  0.00  0.00    +0.000 A 
ATOM      4  C   UNL     1       3.230   5.673  17.974  0.00  0.00    +0.000 A 
ATOM      5  C   UNL     1       4.218   4.706  18.153  0.00  0.00    +0.000 A 
ATOM      6  C   UNL     1       5.565   5.055  18.019  0.00  0.00    +0.000 A 
ENDROOT
BRANCH   1   7
ATOM      7  C   UNL     1       7.359   6.785  17.477  0.00  0.00    +0.000 C 
ATOM      8  O   UNL     1       8.219   5.957  17.197  0.00  0.00    +0.000 OA
BRANCH   7  10
ATOM      9  C   UNL     1       8.636   8.692  18.390  0.00  0.00    +0.000 C 
ATOM     10  C   UNL     1       7.668   8.236  17.578  0.00  0.00    +0.000 C 
BRANCH   9  14
ATOM     11  C   UNL     1       9.402  12.917  18.944  0.00  0.00    +0.000 A 
ATOM     12  C   UNL     1       8.722  12.418  17.827  0.00  0.00    +0.000 A 
ATOM     13  C   UNL     1       8.467  11.046  17.661  0.00  0.00    +0.000 A 
ATOM     14  C   UNL     1       8.872  10.125  18.626  0.00  0.00    +0.000 A 
ATOM     15  C   UNL     1       9.491  10.613  19.778  0.00  0.00    +0.000 A 
ATOM     16  C   UNL     1       9.764  11.983  19.924  0.00  0.00    +0.000 A 
BRANCH  11  17
ATOM     17  N   UNL     1       9.712  14.265  19.070  0.00  0.00    +0.000 N 
BRANCH  17  19
ATOM     18  C   UNL     1      11.110  14.682  17.061  0.00  0.00    +0.000 C 
ATOM     19  C   UNL     1      10.989  14.783  18.574  0.00  0.00    +0.000 C 
ENDBRANCH  17  19
BRANCH  17  20
ATOM     20  C   UNL     1       8.781  15.191  19.722  0.00  0.00    +0.000 C 
ATOM     21  C   UNL     1       7.351  14.664  19.670  0.00  0.00    +0.000 C 
ENDBRANCH  17  20
ENDBRANCH  11  17
ENDBRANCH   9  14
ENDBRANCH   7  10
ENDBRANCH   1   7
BRANCH   6  22
ATOM     22  O   UNL     1       6.503   4.073  18.195  0.00  0.00    +0.000 OA
ATOM     23  H   UNL     1       7.243   4.215  17.578  0.00  0.00    +0.000 HD
ENDBRANCH   6  22
BRANCH   4  24
ATOM     24  O   UNL     1       1.845   5.388  18.055  0.00  0.00    +0.000 OA
BRANCH  24  25
ATOM     25  C   UNL     1       1.366   4.110  18.368  0.00  0.00    +0.000 C 
ATOM     26  O   UNL     1       0.962   3.294  17.546  0.00  0.00    +0.000 OA
ATOM     27  N   UNL     1       1.403   3.840  19.716  0.00  0.00    +0.000 N 
ATOM     28  C   UNL     1       1.907   4.699  20.767  0.00  0.00    +0.000 C 
ATOM     29  C   UNL     1       2.356   3.711  21.833  0.00  0.00    +0.000 C 
ATOM     30  C   UNL     1       1.347   2.571  21.713  0.00  0.00    +0.000 C 
ATOM     31  C   UNL     1       0.947   2.569  20.242  0.00  0.00    +0.000 C 
ENDBRANCH  24  25
ENDBRANCH   4  24
TORSDOF 9
ENDMDL
MODEL 2
REMARK VINA RESULT:      -8.0      0.923      1.697
REMARK  Name = 
REMARK  11 active torsions:
REMARK  status: ('A' for Active; 'I' for Inactive)
REMARK    1  A    between atoms: C_1  and  C_2
REMARK    2  A    between atoms: C_2  and  N_3
REMARK    3  A    between atoms: N_3  and  C_4
REMARK    4  A    between atoms: N_3  and  C_6
REMARK    5  A    between atoms: C_4  and  C_5
REMARK    6  A    between atoms: C_9  and  C_10
REMARK    7  A    between atoms: C_11  and  C_12
REMARK    8  A    between atoms: C_12  and  C_14
REMARK    9  A    between atoms: C_17  and  O_18
REMARK   10  A    between atoms: O_18  and  C_19
REMARK   11  A    between atoms: C_27  and  O_28
REMARK                            x       y       z     vdW  Elec       q    Type
REMARK                         _______ _______ _______ _____ _____    ______ ____
ROOT
ATOM      1  C   UNL     1       5.941   6.823  17.539  0.00  0.00    +0.000 A 
ATOM      2  C   UNL     1       4.824   7.562  17.119  0.00  0.00    +0.000 A 
ATOM      3  C   UNL     1       3.525   7.071  17.323  0.00  0.00    +0.000 A 
ATOM      4  C   UNL     1       3.342   5.831  17.937  0.00  0.00    +0.000 A 
ATOM      5  C   UNL     1       4.444   5.070  18.324  0.00  0.00    +0.000 A 
ATOM      6  C   UNL     1       5.735   5.572  18.137  0.00  0.00    +0.000 A 
ENDROOT
BRANCH   1   7
ATOM      7  C   UNL     1       7.297   7.393  17.270  0.00  0.00    +0.000 C 
ATOM      8  O   UNL     1       8.038   6.869  16.446  0.00  0.00    +0.000 OA
BRANCH   7  10
ATOM      9  C   UNL     1       8.513   9.536  17.451  0.00  0.00    +0.000 C 
ATOM     10  C   UNL     1       7.681   8.634  17.996  0.00  0.00    +0.000 C 
BRANCH   9  14
ATOM     11  C   UNL     1      10.083  13.013  19.499  0.00  0.00    +0.000 A 
ATOM     12  C   UNL     1       9.169  13.112  18.444  0.00  0.00    +0.000 A 
ATOM     13  C   UNL     1       8.656  11.979  17.792  0.00  0.00    +0.000 A 
ATOM     14  C   UNL     1       9.029  10.697  18.193  0.00  0.00    +0.000 A 
ATOM     15  C   UNL     1       9.887  10.578  19.289  0.00  0.00    +0.000 A 
ATOM     16  C   UNL     1      10.415  11.717  19.918  0.00  0.00    +0.000 A 
BRANCH  11  17
ATOM     17  N   UNL     1      10.640  14.137  20.094  0.00  0.00    +0.000 N 
BRANCH  17  19
ATOM     18  C   UNL     1       9.269  14.346  22.153  0.00  0.00    +0.000 C 
ATOM     19  C   UNL     1       9.816  15.031  20.910  0.00  0.00    +0.000 C 
ENDBRANCH  17  19
BRANCH  17  20
ATOM     20  C   UNL     1      12.055  14.465  19.899  0.00  0.00    +0.000 C 
ATOM     21  C   UNL     1      12.322  14.936  18.473  0.00  0.00    +0.000 C 
ENDBRANCH  17  20
ENDBRANCH  11  17
ENDBRANCH   9  14
ENDBRANCH   7  10
ENDBRANCH   1   7
BRANCH   6  22
ATOM     22  O   UNL     1       6.791   4.791  18.522  0.00  0.00    +0.000 OA
ATOM     23  H   UNL     1       7.523   5.356  18.823  0.00  0.00    +0.000 HD
ENDBRANCH   6  22
BRANCH   4  24
ATOM     24  O   UNL     1       2.006   5.374  18.059  0.00  0.00    +0.000 OA
BRANCH  24  25
ATOM     25  C   UNL     1       1.700   4.027  18.289  0.00  0.00    +0.000 C 
ATOM     26  O   UNL     1       1.559   3.182  17.411  0.00  0.00    +0.000 OA
ATOM     27  N   UNL     1       1.580   3.726  19.625  0.00  0.00    +0.000 N 
ATOM     28  C   UNL     1       1.776   4.623  20.745  0.00  0.00    +0.000 C 
ATOM     29  C   UNL     1       2.216   3.688  21.861  0.00  0.00    +0.000 C 
ATOM     30  C   UNL     1       1.434   2.406  21.584  0.00  0.00    +0.000 C 
ATOM     31  C   UNL     1       1.262   2.384  20.070  0.00  0.00    +0.000 C 
ENDBRANCH  24  25
ENDBRANCH   4  24
TORSDOF 9
ENDMDL
MODEL 3
REMARK VINA RESULT:      -8.0      5.865      7.994
REMARK  Name = 
REMARK  11 active torsions:
REMARK  status: ('A' for Active; 'I' for Inactive)
REMARK    1  A    between atoms: C_1  and  C_2
REMARK    2  A    between atoms: C_2  and  N_3
REMARK    3  A    between atoms: N_3  and  C_4
REMARK    4  A    between atoms: N_3  and  C_6
REMARK    5  A    between atoms: C_4  and  C_5
REMARK    6  A    between atoms: C_9  and  C_10
REMARK    7  A    between atoms: C_11  and  C_12
REMARK    8  A    between atoms: C_12  and  C_14
REMARK    9  A    between atoms: C_17  and  O_18
REMARK   10  A    between atoms: O_18  and  C_19
REMARK   11  A    between atoms: C_27  and  O_28
REMARK                            x       y       z     vdW  Elec       q    Type
REMARK                         _______ _______ _______ _____ _____    ______ ____
ROOT
ATOM      1  C   UNL     1       3.129   4.468  19.248  0.00  0.00    +0.000 A 
ATOM      2  C   UNL     1       4.524   4.551  19.383  0.00  0.00    +0.000 A 
ATOM      3  C   UNL     1       5.366   4.203  18.315  0.00  0.00    +0.000 A 
ATOM      4  C   UNL     1       4.814   3.757  17.113  0.00  0.00    +0.000 A 
ATOM      5  C   UNL     1       3.431   3.634  16.981  0.00  0.00    +0.000 A 
ATOM      6  C   UNL     1       2.596   4.001  18.039  0.00  0.00    +0.000 A 
ENDROOT
BRANCH   1   7
ATOM      7  C   UNL     1       2.291   4.832  20.431  0.00  0.00    +0.000 C 
ATOM      8  O   UNL     1       2.249   4.097  21.412  0.00  0.00    +0.000 OA
BRANCH   7  10
ATOM      9  C   UNL     1       2.088   7.210  19.792  0.00  0.00    +0.000 C 
ATOM     10  C   UNL     1       1.562   6.128  20.390  0.00  0.00    +0.000 C 
BRANCH   9  14
ATOM     11  C   UNL     1       0.125  11.060  20.038  0.00  0.00    +0.000 A 
ATOM     12  C   UNL     1       0.230  10.200  21.137  0.00  0.00    +0.000 A 
ATOM     13  C   UNL     1       0.879   8.957  21.051  0.00  0.00    +0.000 A 
ATOM     14  C   UNL     1       1.466   8.541  19.857  0.00  0.00    +0.000 A 
ATOM     15  C   UNL     1       1.430   9.417  18.770  0.00  0.00    +0.000 A 
ATOM     16  C   UNL     1       0.757  10.646  18.858  0.00  0.00    +0.000 A 
BRANCH  11  17
ATOM     17  N   UNL     1      -0.577  12.256  20.109  0.00  0.00    +0.000 N 
BRANCH  17  19
ATOM     18  C   UNL     1      -0.038  14.316  18.833  0.00  0.00    +0.000 C 
ATOM     19  C   UNL     1       0.135  13.536  20.126  0.00  0.00    +0.000 C 
ENDBRANCH  17  19
BRANCH  17  20
ATOM     20  C   UNL     1      -2.041  12.263  20.192  0.00  0.00    +0.000 C 
ATOM     21  C   UNL     1      -2.670  11.828  18.873  0.00  0.00    +0.000 C 
ENDBRANCH  17  20
ENDBRANCH  11  17
ENDBRANCH   9  14
ENDBRANCH   7  10
ENDBRANCH   1   7
BRANCH   6  22
ATOM     22  O   UNL     1       1.245   3.857  17.872  0.00  0.00    +0.000 OA
ATOM     23  H   UNL     1       0.788   4.066  18.705  0.00  0.00    +0.000 HD
ENDBRANCH   6  22
BRANCH   4  24
ATOM     24  O   UNL     1       5.725   3.370  16.100  0.00  0.00    +0.000 OA
BRANCH  24  25
ATOM     25  C   UNL     1       6.708   4.240  15.613  0.00  0.00    +0.000 C 
ATOM     26  O   UNL     1       7.511   4.849  16.312  0.00  0.00    +0.000 OA
ATOM     27  N   UNL     1       6.699   4.344  14.242  0.00  0.00    +0.000 N 
ATOM     28  C   UNL     1       5.839   3.636  13.316  0.00  0.00    +0.000 C 
ATOM     29  C   UNL     1       6.680   3.564  12.051  0.00  0.00    +0.000 C 
ATOM     30  C   UNL     1       7.462   4.876  12.065  0.00  0.00    +0.000 C 
ATOM     31  C   UNL     1       7.639   5.199  13.545  0.00  0.00    +0.000 C 
ENDBRANCH  24  25
ENDBRANCH   4  24
TORSDOF 9
ENDMDL
MODEL 4
REMARK VINA RESULT:      -7.9      0.938      1.350
REMARK  Name = 
REMARK  11 active torsions:
REMARK  status: ('A' for Active; 'I' for Inactive)
REMARK    1  A    between atoms: C_1  and  C_2
REMARK    2  A    between atoms: C_2  and  N_3
REMARK    3  A    between atoms: N_3  and  C_4
REMARK    4  A    between atoms: N_3  and  C_6
REMARK    5  A    between atoms: C_4  and  C_5
REMARK    6  A    between atoms: C_9  and  C_10
REMARK    7  A    between atoms: C_11  and  C_12
REMARK    8  A    between atoms: C_12  and  C_14
REMARK    9  A    between atoms: C_17  and  O_18
REMARK   10  A    between atoms: O_18  and  C_19
REMARK   11  A    between atoms: C_27  and  O_28
REMARK                            x       y       z     vdW  Elec       q    Type
REMARK                         _______ _______ _______ _____ _____    ______ ____
ROOT
ATOM      1  C   UNL     1       5.872   6.829  17.529  0.00  0.00    +0.000 A 
ATOM      2  C   UNL     1       4.737   7.539  17.107  0.00  0.00    +0.000 A 
ATOM      3  C   UNL     1       3.451   7.014  17.307  0.00  0.00    +0.000 A 
ATOM      4  C   UNL     1       3.298   5.768  17.916  0.00  0.00    +0.000 A 
ATOM      5  C   UNL     1       4.419   5.036  18.305  0.00  0.00    +0.000 A 
ATOM      6  C   UNL     1       5.697   5.571  18.123  0.00  0.00    +0.000 A 
ENDROOT
BRANCH   1   7
ATOM      7  C   UNL     1       7.213   7.435  17.265  0.00  0.00    +0.000 C 
ATOM      8  O   UNL     1       8.047   6.830  16.600  0.00  0.00    +0.000 OA
BRANCH   7  10
ATOM      9  C   UNL     1       8.706   9.325  17.816  0.00  0.00    +0.000 C 
ATOM     10  C   UNL     1       7.469   8.802  17.792  0.00  0.00    +0.000 C 
BRANCH   9  14
ATOM     11  C   UNL     1       9.538  13.061  19.838  0.00  0.00    +0.000 A 
ATOM     12  C   UNL     1       9.805  11.817  20.420  0.00  0.00    +0.000 A 
ATOM     13  C   UNL     1       9.542  10.609  19.753  0.00  0.00    +0.000 A 
ATOM     14  C   UNL     1       9.018  10.609  18.461  0.00  0.00    +0.000 A 
ATOM     15  C   UNL     1       8.810  11.842  17.839  0.00  0.00    +0.000 A 
ATOM     16  C   UNL     1       9.051  13.044  18.524  0.00  0.00    +0.000 A 
BRANCH  11  17
ATOM     17  N   UNL     1       9.734  14.250  20.528  0.00  0.00    +0.000 N 
BRANCH  17  19
ATOM     18  C   UNL     1      11.742  15.129  19.362  0.00  0.00    +0.000 C 
ATOM     19  C   UNL     1      11.081  14.800  20.692  0.00  0.00    +0.000 C 
ENDBRANCH  17  19
BRANCH  17  20
ATOM     20  C   UNL     1       8.603  14.966  21.126  0.00  0.00    +0.000 C 
ATOM     21  C   UNL     1       8.512  14.702  22.624  0.00  0.00    +0.000 C 
ENDBRANCH  17  20
ENDBRANCH  11  17
ENDBRANCH   9  14
ENDBRANCH   7  10
ENDBRANCH   1   7
BRANCH   6  22
ATOM     22  O   UNL     1       6.772   4.817  18.509  0.00  0.00    +0.000 OA
ATOM     23  H   UNL     1       7.269   5.286  19.201  0.00  0.00    +0.000 HD
ENDBRANCH   6  22
BRANCH   4  24
ATOM     24  O   UNL     1       1.975   5.276  18.033  0.00  0.00    +0.000 OA
BRANCH  24  25
ATOM     25  C   UNL     1       1.703   3.927  18.289  0.00  0.00    +0.000 C 
ATOM     26  O   UNL     1       1.598   3.060  17.427  0.00  0.00    +0.000 OA
ATOM     27  N   UNL     1       1.574   3.650  19.629  0.00  0.00    +0.000 N 
ATOM     28  C   UNL     1       1.731   4.575  20.732  0.00  0.00    +0.000 C 
ATOM     29  C   UNL     1       2.183   3.677  21.873  0.00  0.00    +0.000 C 
ATOM     30  C   UNL     1       1.441   2.367  21.613  0.00  0.00    +0.000 C 
ATOM     31  C   UNL     1       1.289   2.308  20.098  0.00  0.00    +0.000 C 
ENDBRANCH  24  25
ENDBRANCH   4  24
TORSDOF 9
ENDMDL
MODEL 5
REMARK VINA RESULT:      -7.8      5.749      7.947
REMARK  Name = 
REMARK  11 active torsions:
REMARK  status: ('A' for Active; 'I' for Inactive)
REMARK    1  A    between atoms: C_1  and  C_2
REMARK    2  A    between atoms: C_2  and  N_3
REMARK    3  A    between atoms: N_3  and  C_4
REMARK    4  A    between atoms: N_3  and  C_6
REMARK    5  A    between atoms: C_4  and  C_5
REMARK    6  A    between atoms: C_9  and  C_10
REMARK    7  A    between atoms: C_11  and  C_12
REMARK    8  A    between atoms: C_12  and  C_14
REMARK    9  A    between atoms: C_17  and  O_18
REMARK   10  A    between atoms: O_18  and  C_19
REMARK   11  A    between atoms: C_27  and  O_28
REMARK                            x       y       z     vdW  Elec       q    Type
REMARK                         _______ _______ _______ _____ _____    ______ ____
ROOT
ATOM      1  C   UNL     1       3.232   4.463  19.285  0.00  0.00    +0.000 A 
ATOM      2  C   UNL     1       4.629   4.563  19.391  0.00  0.00    +0.000 A 
ATOM      3  C   UNL     1       5.452   4.243  18.300  0.00  0.00    +0.000 A 
ATOM      4  C   UNL     1       4.880   3.807  17.104  0.00  0.00    +0.000 A 
ATOM      5  C   UNL     1       3.497   3.667  16.999  0.00  0.00    +0.000 A 
ATOM      6  C   UNL     1       2.679   4.006  18.081  0.00  0.00    +0.000 A 
ENDROOT
BRANCH   1   7
ATOM      7  C   UNL     1       2.415   4.797  20.491  0.00  0.00    +0.000 C 
ATOM      8  O   UNL     1       2.329   4.003  21.422  0.00  0.00    +0.000 OA
BRANCH   7  10
ATOM      9  C   UNL     1       2.059   7.088  19.638  0.00  0.00    +0.000 C 
ATOM     10  C   UNL     1       1.763   6.133  20.535  0.00  0.00    +0.000 C 
BRANCH   9  14
ATOM     11  C   UNL     1       0.416  11.078  19.986  0.00  0.00    +0.000 A 
ATOM     12  C   UNL     1       0.484  10.198  21.071  0.00  0.00    +0.000 A 
ATOM     13  C   UNL     1       1.029   8.909  20.953  0.00  0.00    +0.000 A 
ATOM     14  C   UNL     1       1.546   8.463  19.737  0.00  0.00    +0.000 A 
ATOM     15  C   UNL     1       1.548   9.354  18.661  0.00  0.00    +0.000 A 
ATOM     16  C   UNL     1       0.978  10.631  18.782  0.00  0.00    +0.000 A 
BRANCH  11  17
ATOM     17  N   UNL     1      -0.187  12.325  20.091  0.00  0.00    +0.000 N 
BRANCH  17  19
ATOM     18  C   UNL     1      -1.784  13.023  21.859  0.00  0.00    +0.000 C 
ATOM     19  C   UNL     1      -1.597  12.439  20.468  0.00  0.00    +0.000 C 
ENDBRANCH  17  19
BRANCH  17  20
ATOM     20  C   UNL     1       0.568  13.549  19.805  0.00  0.00    +0.000 C 
ATOM     21  C   UNL     1      -0.143  14.406  18.764  0.00  0.00    +0.000 C 
ENDBRANCH  17  20
ENDBRANCH  11  17
ENDBRANCH   9  14
ENDBRANCH   7  10
ENDBRANCH   1   7
BRANCH   6  22
ATOM     22  O   UNL     1       1.327   3.846  17.940  0.00  0.00    +0.000 OA
ATOM     23  H   UNL     1       1.115   3.661  17.009  0.00  0.00    +0.000 HD
ENDBRANCH   6  22
BRANCH   4  24
ATOM     24  O   UNL     1       5.774   3.448  16.066  0.00  0.00    +0.000 OA
BRANCH  24  25
ATOM     25  C   UNL     1       6.728   4.342  15.564  0.00  0.00    +0.000 C 
ATOM     26  O   UNL     1       7.507   4.992  16.253  0.00  0.00    +0.000 OA
ATOM     27  N   UNL     1       6.722   4.417  14.191  0.00  0.00    +0.000 N 
ATOM     28  C   UNL     1       5.890   3.662  13.277  0.00  0.00    +0.000 C 
ATOM     29  C   UNL     1       6.739   3.594  12.017  0.00  0.00    +0.000 C 
ATOM     30  C   UNL     1       7.474   4.933  12.007  0.00  0.00    +0.000 C 
ATOM     31  C   UNL     1       7.634   5.291  13.480  0.00  0.00    +0.000 C 
ENDBRANCH  24  25
ENDBRANCH   4  24
TORSDOF 9
ENDMDL
MODEL 6
REMARK VINA RESULT:      -7.8      7.049     10.108
REMARK  Name = 
REMARK  11 active torsions:
REMARK  status: ('A' for Active; 'I' for Inactive)
REMARK    1  A    between atoms: C_1  and  C_2
REMARK    2  A    between atoms: C_2  and  N_3
REMARK    3  A    between atoms: N_3  and  C_4
REMARK    4  A    between atoms: N_3  and  C_6
REMARK    5  A    between atoms: C_4  and  C_5
REMARK    6  A    between atoms: C_9  and  C_10
REMARK    7  A    between atoms: C_11  and  C_12
REMARK    8  A    between atoms: C_12  and  C_14
REMARK    9  A    between atoms: C_17  and  O_18
REMARK   10  A    between atoms: O_18  and  C_19
REMARK   11  A    between atoms: C_27  and  O_28
REMARK                            x       y       z     vdW  Elec       q    Type
REMARK                         _______ _______ _______ _____ _____    ______ ____
ROOT
ATOM      1  C   UNL     1       1.531   9.027  19.559  0.00  0.00    +0.000 A 
ATOM      2  C   UNL     1       1.749   7.834  20.264  0.00  0.00    +0.000 A 
ATOM      3  C   UNL     1       2.469   6.780  19.679  0.00  0.00    +0.000 A 
ATOM      4  C   UNL     1       2.959   6.913  18.379  0.00  0.00    +0.000 A 
ATOM      5  C   UNL     1       2.715   8.078  17.654  0.00  0.00    +0.000 A 
ATOM      6  C   UNL     1       2.016   9.133  18.248  0.00  0.00    +0.000 A 
ENDROOT
BRANCH   1   7
ATOM      7  C   UNL     1       0.738  10.101  20.231  0.00  0.00    +0.000 C 
ATOM      8  O   UNL     1       1.233  10.765  21.135  0.00  0.00    +0.000 OA
BRANCH   7  10
ATOM      9  C   UNL     1      -1.151  11.600  19.694  0.00  0.00    +0.000 C 
ATOM     10  C   UNL     1      -0.639  10.359  19.730  0.00  0.00    +0.000 C 
BRANCH   9  14
ATOM     11  C   UNL     1      -5.320  12.362  18.810  0.00  0.00    +0.000 A 
ATOM     12  C   UNL     1      -4.674  12.922  19.917  0.00  0.00    +0.000 A 
ATOM     13  C   UNL     1      -3.318  12.679  20.191  0.00  0.00    +0.000 A 
ATOM     14  C   UNL     1      -2.554  11.876  19.345  0.00  0.00    +0.000 A 
ATOM     15  C   UNL     1      -3.166  11.365  18.198  0.00  0.00    +0.000 A 
ATOM     16  C   UNL     1      -4.528  11.592  17.947  0.00  0.00    +0.000 A 
BRANCH  11  17
ATOM     17  N   UNL     1      -6.677  12.549  18.582  0.00  0.00    +0.000 N 
BRANCH  17  19
ATOM     18  C   UNL     1      -6.932  14.525  17.101  0.00  0.00    +0.000 C 
ATOM     19  C   UNL     1      -7.153  13.032  17.284  0.00  0.00    +0.000 C 
ENDBRANCH  17  19
BRANCH  17  20
ATOM     20  C   UNL     1      -7.658  12.290  19.640  0.00  0.00    +0.000 C 
ATOM     21  C   UNL     1      -7.510  10.879  20.198  0.00  0.00    +0.000 C 
ENDBRANCH  17  20
ENDBRANCH  11  17
ENDBRANCH   9  14
ENDBRANCH   7  10
ENDBRANCH   1   7
BRANCH   6  22
ATOM     22  O   UNL     1       1.790  10.257  17.499  0.00  0.00    +0.000 OA
ATOM     23  H   UNL     1       2.449  10.936  17.722  0.00  0.00    +0.000 HD
ENDBRANCH   6  22
BRANCH   4  24
ATOM     24  O   UNL     1       3.625   5.788  17.834  0.00  0.00    +0.000 OA
BRANCH  24  25
ATOM     25  C   UNL     1       3.966   4.676  18.614  0.00  0.00    +0.000 C 
ATOM     26  O   UNL     1       4.989   4.579  19.284  0.00  0.00    +0.000 OA
ATOM     27  N   UNL     1       3.019   3.680  18.569  0.00  0.00    +0.000 N 
ATOM     28  C   UNL     1       1.756   3.705  17.861  0.00  0.00    +0.000 C 
ATOM     29  C   UNL     1       0.882   2.772  18.685  0.00  0.00    +0.000 C 
ATOM     30  C   UNL     1       1.860   1.710  19.183  0.00  0.00    +0.000 C 
ATOM     31  C   UNL     1       3.190   2.444  19.307  0.00  0.00    +0.000 C 
ENDBRANCH  24  25
ENDBRANCH   4  24
TORSDOF 9
ENDMDL
MODEL 7
REMARK VINA RESULT:      -7.8      5.409      7.660
REMARK  Name = 
REMARK  11 active torsions:
REMARK  status: ('A' for Active; 'I' for Inactive)
REMARK    1  A    between atoms: C_1  and  C_2
REMARK    2  A    between atoms: C_2  and  N_3
REMARK    3  A    between atoms: N_3  and  C_4
REMARK    4  A    between atoms: N_3  and  C_6
REMARK    5  A    between atoms: C_4  and  C_5
REMARK    6  A    between atoms: C_9  and  C_10
REMARK    7  A    between atoms: C_11  and  C_12
REMARK    8  A    between atoms: C_12  and  C_14
REMARK    9  A    between atoms: C_17  and  O_18
REMARK   10  A    between atoms: O_18  and  C_19
REMARK   11  A    between atoms: C_27  and  O_28
REMARK                            x       y       z     vdW  Elec       q    Type
REMARK                         _______ _______ _______ _____ _____    ______ ____
ROOT
ATOM      1  C   UNL     1       3.233   4.448  19.266  0.00  0.00    +0.000 A 
ATOM      2  C   UNL     1       4.624   4.588  19.389  0.00  0.00    +0.000 A 
ATOM      3  C   UNL     1       5.472   4.261  18.320  0.00  0.00    +0.000 A 
ATOM      4  C   UNL     1       4.930   3.777  17.128  0.00  0.00    +0.000 A 
ATOM      5  C   UNL     1       3.553   3.596  17.008  0.00  0.00    +0.000 A 
ATOM      6  C   UNL     1       2.710   3.943  18.067  0.00  0.00    +0.000 A 
ENDROOT
BRANCH   1   7
ATOM      7  C   UNL     1       2.389   4.792  20.451  0.00  0.00    +0.000 C 
ATOM      8  O   UNL     1       2.230   3.982  21.357  0.00  0.00    +0.000 OA
BRANCH   7  10
ATOM      9  C   UNL     1       2.024   7.058  19.534  0.00  0.00    +0.000 C 
ATOM     10  C   UNL     1       1.801   6.158  20.506  0.00  0.00    +0.000 C 
BRANCH   9  14
ATOM     11  C   UNL     1       0.869  11.224  19.755  0.00  0.00    +0.000 A 
ATOM     12  C   UNL     1       1.383  10.649  18.587  0.00  0.00    +0.000 A 
ATOM     13  C   UNL     1       1.745   9.293  18.521  0.00  0.00    +0.000 A 
ATOM     14  C   UNL     1       1.583   8.458  19.625  0.00  0.00    +0.000 A 
ATOM     15  C   UNL     1       1.007   9.000  20.777  0.00  0.00    +0.000 A 
ATOM     16  C   UNL     1       0.673  10.362  20.842  0.00  0.00    +0.000 A 
BRANCH  11  17
ATOM     17  N   UNL     1       0.578  12.579  19.837  0.00  0.00    +0.000 N 
BRANCH  17  19
ATOM     18  C   UNL     1      -1.758  12.320  19.037  0.00  0.00    +0.000 C 
ATOM     19  C   UNL     1      -0.806  13.034  19.984  0.00  0.00    +0.000 C 
ENDBRANCH  17  19
BRANCH  17  20
ATOM     20  C   UNL     1       1.644  13.582  19.755  0.00  0.00    +0.000 C 
ATOM     21  C   UNL     1       1.239  14.748  18.861  0.00  0.00    +0.000 C 
ENDBRANCH  17  20
ENDBRANCH  11  17
ENDBRANCH   9  14
ENDBRANCH   7  10
ENDBRANCH   1   7
BRANCH   6  22
ATOM     22  O   UNL     1       1.365   3.741  17.912  0.00  0.00    +0.000 OA
ATOM     23  H   UNL     1       0.903   4.597  17.927  0.00  0.00    +0.000 HD
ENDBRANCH   6  22
BRANCH   4  24
ATOM     24  O   UNL     1       5.849   3.414  16.114  0.00  0.00    +0.000 OA
BRANCH  24  25
ATOM     25  C   UNL     1       6.770   4.326  15.584  0.00  0.00    +0.000 C 
ATOM     26  O   UNL     1       7.552   4.997  16.250  0.00  0.00    +0.000 OA
ATOM     27  N   UNL     1       6.726   4.395  14.211  0.00  0.00    +0.000 N 
ATOM     28  C   UNL     1       5.889   3.617  13.322  0.00  0.00    +0.000 C 
ATOM     29  C   UNL     1       6.705   3.562  12.041  0.00  0.00    +0.000 C 
ATOM     30  C   UNL     1       7.411   4.916  12.006  0.00  0.00    +0.000 C 
ATOM     31  C   UNL     1       7.601   5.285  13.473  0.00  0.00    +0.000 C 
ENDBRANCH  24  25
ENDBRANCH   4  24
TORSDOF 9
ENDMDL
MODEL 8
REMARK VINA RESULT:      -7.8      5.254      7.568
REMARK  Name = 
REMARK  11 active torsions:
REMARK  status: ('A' for Active; 'I' for Inactive)
REMARK    1  A    between atoms: C_1  and  C_2
REMARK    2  A    between atoms: C_2  and  N_3
REMARK    3  A    between atoms: N_3  and  C_4
REMARK    4  A    between atoms: N_3  and  C_6
REMARK    5  A    between atoms: C_4  and  C_5
REMARK    6  A    between atoms: C_9  and  C_10
REMARK    7  A    between atoms: C_11  and  C_12
REMARK    8  A    between atoms: C_12  and  C_14
REMARK    9  A    between atoms: C_17  and  O_18
REMARK   10  A    between atoms: O_18  and  C_19
REMARK   11  A    between atoms: C_27  and  O_28
REMARK                            x       y       z     vdW  Elec       q    Type
REMARK                         _______ _______ _______ _____ _____    ______ ____
ROOT
ATOM      1  C   UNL     1       3.120   5.234  19.025  0.00  0.00    +0.000 A 
ATOM      2  C   UNL     1       3.609   5.982  17.942  0.00  0.00    +0.000 A 
ATOM      3  C   UNL     1       4.422   5.380  16.969  0.00  0.00    +0.000 A 
ATOM      4  C   UNL     1       4.761   4.031  17.086  0.00  0.00    +0.000 A 
ATOM      5  C   UNL     1       4.313   3.288  18.177  0.00  0.00    +0.000 A 
ATOM      6  C   UNL     1       3.487   3.886  19.133  0.00  0.00    +0.000 A 
ENDROOT
BRANCH   1   7
ATOM      7  C   UNL     1       2.279   5.941  20.038  0.00  0.00    +0.000 C 
ATOM      8  O   UNL     1       1.842   5.338  21.012  0.00  0.00    +0.000 OA
BRANCH   7  10
ATOM      9  C   UNL     1       1.306   8.110  20.712  0.00  0.00    +0.000 C 
ATOM     10  C   UNL     1       2.041   7.397  19.843  0.00  0.00    +0.000 C 
BRANCH   9  14
ATOM     11  C   UNL     1       0.331  12.258  19.945  0.00  0.00    +0.000 A 
ATOM     12  C   UNL     1       0.660  11.362  18.921  0.00  0.00    +0.000 A 
ATOM     13  C   UNL     1       0.964  10.015  19.177  0.00  0.00    +0.000 A 
ATOM     14  C   UNL     1       0.928   9.512  20.477  0.00  0.00    +0.000 A 
ATOM     15  C   UNL     1       0.534  10.375  21.502  0.00  0.00    +0.000 A 
ATOM     16  C   UNL     1       0.257  11.726  21.240  0.00  0.00    +0.000 A 
BRANCH  11  17
ATOM     17  N   UNL     1       0.099  13.604  19.695  0.00  0.00    +0.000 N 
BRANCH  17  19
ATOM     18  C   UNL     1       2.433  14.416  19.934  0.00  0.00    +0.000 C 
ATOM     19  C   UNL     1       1.150  14.444  19.117  0.00  0.00    +0.000 C 
ENDBRANCH  17  19
BRANCH  17  20
ATOM     20  C   UNL     1      -1.192  14.216  20.023  0.00  0.00    +0.000 C 
ATOM     21  C   UNL     1      -1.058  15.198  21.182  0.00  0.00    +0.000 C 
ENDBRANCH  17  20
ENDBRANCH  11  17
ENDBRANCH   9  14
ENDBRANCH   7  10
ENDBRANCH   1   7
BRANCH   6  22
ATOM     22  O   UNL     1       3.077   3.125  20.194  0.00  0.00    +0.000 OA
ATOM     23  H   UNL     1       3.798   2.534  20.471  0.00  0.00    +0.000 HD
ENDBRANCH   6  22
BRANCH   4  24
ATOM     24  O   UNL     1       5.630   3.507  16.098  0.00  0.00    +0.000 OA
BRANCH  24  25
ATOM     25  C   UNL     1       6.683   4.257  15.560  0.00  0.00    +0.000 C 
ATOM     26  O   UNL     1       7.563   4.800  16.220  0.00  0.00    +0.000 OA
ATOM     27  N   UNL     1       6.647   4.323  14.186  0.00  0.00    +0.000 N 
ATOM     28  C   UNL     1       5.693   3.682  13.305  0.00  0.00    +0.000 C 
ATOM     29  C   UNL     1       6.487   3.489  12.022  0.00  0.00    +0.000 C 
ATOM     30  C   UNL     1       7.399   4.714  11.977  0.00  0.00    +0.000 C 
ATOM     31  C   UNL     1       7.649   5.057  13.441  0.00  0.00    +0.000 C 
ENDBRANCH  24  25
ENDBRANCH   4  24
TORSDOF 9
ENDMDL
MODEL 9
REMARK VINA RESULT:      -7.7      5.081      7.466
REMARK  Name = 
REMARK  11 active torsions:
REMARK  status: ('A' for Active; 'I' for Inactive)
REMARK    1  A    between atoms: C_1  and  C_2
REMARK    2  A    between atoms: C_2  and  N_3
REMARK    3  A    between atoms: N_3  and  C_4
REMARK    4  A    between atoms: N_3  and  C_6
REMARK    5  A    between atoms: C_4  and  C_5
REMARK    6  A    between atoms: C_9  and  C_10
REMARK    7  A    between atoms: C_11  and  C_12
REMARK    8  A    between atoms: C_12  and  C_14
REMARK    9  A    between atoms: C_17  and  O_18
REMARK   10  A    between atoms: O_18  and  C_19
REMARK   11  A    between atoms: C_27  and  O_28
REMARK                            x       y       z     vdW  Elec       q    Type
REMARK                         _______ _______ _______ _____ _____    ______ ____
ROOT
ATOM      1  C   UNL     1       3.088   5.393  18.993  0.00  0.00    +0.000 A 
ATOM      2  C   UNL     1       3.523   6.082  17.850  0.00  0.00    +0.000 A 
ATOM      3  C   UNL     1       4.345   5.449  16.905  0.00  0.00    +0.000 A 
ATOM      4  C   UNL     1       4.747   4.129  17.109  0.00  0.00    +0.000 A 
ATOM      5  C   UNL     1       4.353   3.446  18.259  0.00  0.00    +0.000 A 
ATOM      6  C   UNL     1       3.518   4.073  19.188  0.00  0.00    +0.000 A 
ENDROOT
BRANCH   1   7
ATOM      7  C   UNL     1       2.233   6.132  19.971  0.00  0.00    +0.000 C 
ATOM      8  O   UNL     1       1.672   5.533  20.882  0.00  0.00    +0.000 OA
BRANCH   7  10
ATOM      9  C   UNL     1       1.209   8.320  20.488  0.00  0.00    +0.000 C 
ATOM     10  C   UNL     1       2.136   7.609  19.826  0.00  0.00    +0.000 C 
BRANCH   9  14
ATOM     11  C   UNL     1       0.705  12.556  19.750  0.00  0.00    +0.000 A 
ATOM     12  C   UNL     1       1.053  11.655  18.738  0.00  0.00    +0.000 A 
ATOM     13  C   UNL     1       1.204  10.280  18.983  0.00  0.00    +0.000 A 
ATOM     14  C   UNL     1       0.988   9.756  20.257  0.00  0.00    +0.000 A 
ATOM     15  C   UNL     1       0.573  10.632  21.264  0.00  0.00    +0.000 A 
ATOM     16  C   UNL     1       0.451  12.008  21.015  0.00  0.00    +0.000 A 
BRANCH  11  17
ATOM     17  N   UNL     1       0.626  13.923  19.518  0.00  0.00    +0.000 N 
BRANCH  17  19
ATOM     18  C   UNL     1      -0.677  16.023  19.279  0.00  0.00    +0.000 C 
ATOM     19  C   UNL     1      -0.524  14.693  19.999  0.00  0.00    +0.000 C 
ENDBRANCH  17  19
BRANCH  17  20
ATOM     20  C   UNL     1       1.676  14.619  18.768  0.00  0.00    +0.000 C 
ATOM     21  C   UNL     1       2.915  14.839  19.628  0.00  0.00    +0.000 C 
ENDBRANCH  17  20
ENDBRANCH  11  17
ENDBRANCH   9  14
ENDBRANCH   7  10
ENDBRANCH   1   7
BRANCH   6  22
ATOM     22  O   UNL     1       3.162   3.372  20.308  0.00  0.00    +0.000 OA
ATOM     23  H   UNL     1       2.769   2.520  20.050  0.00  0.00    +0.000 HD
ENDBRANCH   6  22
BRANCH   4  24
ATOM     24  O   UNL     1       5.621   3.574  16.142  0.00  0.00    +0.000 OA
BRANCH  24  25
ATOM     25  C   UNL     1       6.680   4.307  15.590  0.00  0.00    +0.000 C 
ATOM     26  O   UNL     1       7.564   4.854  16.240  0.00  0.00    +0.000 OA
ATOM     27  N   UNL     1       6.644   4.348  14.216  0.00  0.00    +0.000 N 
ATOM     28  C   UNL     1       5.686   3.698  13.346  0.00  0.00    +0.000 C 
ATOM     29  C   UNL     1       6.479   3.475  12.067  0.00  0.00    +0.000 C 
ATOM     30  C   UNL     1       7.400   4.692  12.000  0.00  0.00    +0.000 C 
ATOM     31  C   UNL     1       7.653   5.061  13.457  0.00  0.00    +0.000 C 
ENDBRANCH  24  25
ENDBRANCH   4  24
TORSDOF 9
ENDMDL
