MODEL 1
REMARK VINA RESULT:      -8.4      0.000      0.000
REMARK  Name = 
REMARK  6 active torsions:
REMARK  status: ('A' for Active; 'I' for Inactive)
REMARK    1  A    between atoms: C_1  and  O_2
REMARK    2  A    between atoms: O_2  and  C_3
REMARK    3  A    between atoms: C_7  and  C_8
REMARK    4  A    between atoms: C_8  and  C_9
REMARK    5  A    between atoms: C_8  and  N_10
REMARK    6  A    between atoms: C_19  and  C_20
REMARK                            x       y       z     vdW  Elec       q    Type
REMARK                         _______ _______ _______ _____ _____    ______ ____
ROOT
ATOM      1  N   UNL     1       6.259   5.841  16.181  0.00  0.00    +0.000 N 
ATOM      2  N   UNL     1       7.440   6.551  16.383  0.00  0.00    +0.000 NA
ATOM      3  N   UNL     1       7.566   6.655  17.697  0.00  0.00    +0.000 NA
ATOM      4  C   UNL     1       6.350   6.334  18.198  0.00  0.00    +0.000 A 
ATOM      5  C   UNL     1       5.962   5.807  19.423  0.00  0.00    +0.000 A 
ATOM      6  N   UNL     1       4.775   5.128  19.469  0.00  0.00    +0.000 NA
ATOM      7  C   UNL     1       3.790   5.474  18.636  0.00  0.00    +0.000 A 
ATOM      8  C   UNL     1       2.526   5.214  19.106  0.00  0.00    +0.000 A 
ATOM      9  C   UNL     1       1.633   6.272  19.338  0.00  0.00    +0.000 A 
ATOM     10  C   UNL     1       1.999   7.605  19.099  0.00  0.00    +0.000 A 
ATOM     11  C   UNL     1       3.135   7.696  18.191  0.00  0.00    +0.000 A 
ATOM     12  C   UNL     1       3.983   6.509  17.748  0.00  0.00    +0.000 A 
ATOM     13  C   UNL     1       5.366   6.440  17.178  0.00  0.00    +0.000 A 
ENDROOT
BRANCH  10  14
ATOM     14  C   UNL     1       1.246   8.695  19.956  0.00  0.00    +0.000 A 
ATOM     15  C   UNL     1       1.091  10.013  19.430  0.00  0.00    +0.000 A 
ATOM     16  N   UNL     1       0.513  11.147  19.963  0.00  0.00    +0.000 NA
ATOM     17  C   UNL     1      -0.003  10.930  21.181  0.00  0.00    +0.000 A 
ATOM     18  N   UNL     1      -0.649  11.885  21.925  0.00  0.00    +0.000 N 
ATOM     19  C   UNL     1      -1.063  11.348  23.101  0.00  0.00    +0.000 A 
ATOM     20  C   UNL     1      -0.667  10.000  23.105  0.00  0.00    +0.000 A 
ATOM     21  C   UNL     1       0.018   9.724  21.876  0.00  0.00    +0.000 A 
ATOM     22  C   UNL     1       0.652   8.582  21.236  0.00  0.00    +0.000 A 
ATOM     23  H   UNL     1      -0.798  12.846  21.626  0.00  0.00    +0.000 HD
ENDBRANCH  10  14
BRANCH   1  24
ATOM     24  C   UNL     1       6.573   4.541  15.444  0.00  0.00    +0.000 C 
ATOM     25  C   UNL     1       6.077   3.216  16.083  0.00  0.00    +0.000 C 
BRANCH  24  30
ATOM     26  C   UNL     1       6.029   3.088  11.933  0.00  0.00    +0.000 A 
ATOM     27  C   UNL     1       6.917   3.836  11.157  0.00  0.00    +0.000 A 
ATOM     28  C   UNL     1       7.668   4.844  11.747  0.00  0.00    +0.000 A 
ATOM     29  C   UNL     1       7.501   5.106  13.116  0.00  0.00    +0.000 A 
ATOM     30  C   UNL     1       6.567   4.381  13.921  0.00  0.00    +0.000 A 
ATOM     31  C   UNL     1       5.859   3.361  13.301  0.00  0.00    +0.000 A 
BRANCH  26  33
ATOM     32  C   UNL     1       6.156   0.894  11.073  0.00  0.00    +0.000 C 
ATOM     33  O   UNL     1       5.393   2.079  11.256  0.00  0.00    +0.000 OA
ENDBRANCH  26  33
ENDBRANCH  24  30
ENDBRANCH   1  24
TORSDOF 4
ENDMDL
MODEL 2
REMARK VINA RESULT:      -8.3      4.607     11.698
REMARK  Name = 
REMARK  6 active torsions:
REMARK  status: ('A' for Active; 'I' for Inactive)
REMARK    1  A    between atoms: C_1  and  O_2
REMARK    2  A    between atoms: O_2  and  C_3
REMARK    3  A    between atoms: C_7  and  C_8
REMARK    4  A    between atoms: C_8  and  C_9
REMARK    5  A    between atoms: C_8  and  N_10
REMARK    6  A    between atoms: C_19  and  C_20
REMARK                            x       y       z     vdW  Elec       q    Type
REMARK                         _______ _______ _______ _____ _____    ______ ____
ROOT
ATOM      1  N   UNL     1      -0.840  11.816  21.485  0.00  0.00    +0.000 N 
ATOM      2  N   UNL     1      -0.090  12.568  22.388  0.00  0.00    +0.000 NA
ATOM      3  N   UNL     1       1.005  12.915  21.730  0.00  0.00    +0.000 NA
ATOM      4  C   UNL     1       1.036  12.112  20.640  0.00  0.00    +0.000 A 
ATOM      5  C   UNL     1       1.604  12.276  19.383  0.00  0.00    +0.000 A 
ATOM      6  N   UNL     1       1.065  11.560  18.349  0.00  0.00    +0.000 NA
ATOM      7  C   UNL     1       0.511  10.370  18.597  0.00  0.00    +0.000 A 
ATOM      8  C   UNL     1       0.551   9.491  17.542  0.00  0.00    +0.000 A 
ATOM      9  C   UNL     1       1.274   8.293  17.655  0.00  0.00    +0.000 A 
ATOM     10  C   UNL     1       1.967   7.963  18.829  0.00  0.00    +0.000 A 
ATOM     11  C   UNL     1       1.468   8.712  19.975  0.00  0.00    +0.000 A 
ATOM     12  C   UNL     1       0.495   9.882  19.885  0.00  0.00    +0.000 A 
ATOM     13  C   UNL     1       0.189  10.990  20.846  0.00  0.00    +0.000 A 
ENDROOT
BRANCH  10  14
ATOM     14  C   UNL     1       3.210   7.008  18.655  0.00  0.00    +0.000 A 
ATOM     15  C   UNL     1       3.350   5.879  19.518  0.00  0.00    +0.000 A 
ATOM     16  N   UNL     1       4.332   4.914  19.607  0.00  0.00    +0.000 NA
ATOM     17  C   UNL     1       5.297   5.084  18.692  0.00  0.00    +0.000 A 
ATOM     18  N   UNL     1       6.381   4.254  18.551  0.00  0.00    +0.000 N 
ATOM     19  C   UNL     1       7.162   4.690  17.531  0.00  0.00    +0.000 A 
ATOM     20  C   UNL     1       6.553   5.839  17.000  0.00  0.00    +0.000 A 
ATOM     21  C   UNL     1       5.355   6.101  17.743  0.00  0.00    +0.000 A 
ATOM     22  C   UNL     1       4.276   7.076  17.726  0.00  0.00    +0.000 A 
ATOM     23  H   UNL     1       6.557   3.433  19.126  0.00  0.00    +0.000 HD
ENDBRANCH  10  14
BRANCH   1  24
ATOM     24  C   UNL     1      -2.177  12.510  21.241  0.00  0.00    +0.000 C 
ATOM     25  C   UNL     1      -2.719  12.535  19.787  0.00  0.00    +0.000 C 
BRANCH  24  30
ATOM     26  C   UNL     1      -5.692  12.968  22.716  0.00  0.00    +0.000 A 
ATOM     27  C   UNL     1      -5.466  12.812  24.085  0.00  0.00    +0.000 A 
ATOM     28  C   UNL     1      -4.190  12.515  24.544  0.00  0.00    +0.000 A 
ATOM     29  C   UNL     1      -3.151  12.356  23.614  0.00  0.00    +0.000 A 
ATOM     30  C   UNL     1      -3.367  12.469  22.205  0.00  0.00    +0.000 A 
ATOM     31  C   UNL     1      -4.650  12.798  21.788  0.00  0.00    +0.000 A 
BRANCH  26  33
ATOM     32  C   UNL     1      -7.308  13.197  21.012  0.00  0.00    +0.000 C 
ATOM     33  O   UNL     1      -6.975  13.324  22.387  0.00  0.00    +0.000 OA
ENDBRANCH  26  33
ENDBRANCH  24  30
ENDBRANCH   1  24
TORSDOF 4
ENDMDL
MODEL 3
REMARK VINA RESULT:      -8.3      3.863     10.338
REMARK  Name = 
REMARK  6 active torsions:
REMARK  status: ('A' for Active; 'I' for Inactive)
REMARK    1  A    between atoms: C_1  and  O_2
REMARK    2  A    between atoms: O_2  and  C_3
REMARK    3  A    between atoms: C_7  and  C_8
REMARK    4  A    between atoms: C_8  and  C_9
REMARK    5  A    between atoms: C_8  and  N_10
REMARK    6  A    between atoms: C_19  and  C_20
REMARK                            x       y       z     vdW  Elec       q    Type
REMARK                         _______ _______ _______ _____ _____    ______ ____
ROOT
ATOM      1  N   UNL     1      -0.754  11.984  21.380  0.00  0.00    +0.000 N 
ATOM      2  N   UNL     1      -0.011  12.704  22.313  0.00  0.00    +0.000 NA
ATOM      3  N   UNL     1       1.119  13.014  21.697  0.00  0.00    +0.000 NA
ATOM      4  C   UNL     1       1.161  12.214  20.605  0.00  0.00    +0.000 A 
ATOM      5  C   UNL     1       1.780  12.362  19.370  0.00  0.00    +0.000 A 
ATOM      6  N   UNL     1       1.253  11.670  18.314  0.00  0.00    +0.000 NA
ATOM      7  C   UNL     1       0.648  10.500  18.535  0.00  0.00    +0.000 A 
ATOM      8  C   UNL     1       0.694   9.624  17.478  0.00  0.00    +0.000 A 
ATOM      9  C   UNL     1       1.368   8.400  17.610  0.00  0.00    +0.000 A 
ATOM     10  C   UNL     1       2.005   8.040  18.808  0.00  0.00    +0.000 A 
ATOM     11  C   UNL     1       1.492   8.803  19.939  0.00  0.00    +0.000 A 
ATOM     12  C   UNL     1       0.566  10.008  19.819  0.00  0.00    +0.000 A 
ATOM     13  C   UNL     1       0.266  11.123  20.774  0.00  0.00    +0.000 A 
ENDROOT
BRANCH  10  14
ATOM     14  C   UNL     1       3.218   7.041  18.674  0.00  0.00    +0.000 A 
ATOM     15  C   UNL     1       3.283   5.903  19.534  0.00  0.00    +0.000 A 
ATOM     16  N   UNL     1       4.225   4.901  19.652  0.00  0.00    +0.000 NA
ATOM     17  C   UNL     1       5.229   5.041  18.776  0.00  0.00    +0.000 A 
ATOM     18  N   UNL     1       6.287   4.172  18.671  0.00  0.00    +0.000 N 
ATOM     19  C   UNL     1       7.122   4.585  17.683  0.00  0.00    +0.000 A 
ATOM     20  C   UNL     1       6.576   5.758  17.138  0.00  0.00    +0.000 A 
ATOM     21  C   UNL     1       5.361   6.060  17.837  0.00  0.00    +0.000 A 
ATOM     22  C   UNL     1       4.320   7.075  17.786  0.00  0.00    +0.000 A 
ATOM     23  H   UNL     1       6.411   3.342  19.246  0.00  0.00    +0.000 HD
ENDBRANCH  10  14
BRANCH   1  24
ATOM     24  C   UNL     1      -2.055  12.727  21.091  0.00  0.00    +0.000 C 
ATOM     25  C   UNL     1      -2.016  14.279  21.113  0.00  0.00    +0.000 C 
BRANCH  24  30
ATOM     26  C   UNL     1      -3.702  11.603  17.810  0.00  0.00    +0.000 A 
ATOM     27  C   UNL     1      -5.053  11.871  18.045  0.00  0.00    +0.000 A 
ATOM     28  C   UNL     1      -5.453  12.375  19.275  0.00  0.00    +0.000 A 
ATOM     29  C   UNL     1      -4.487  12.585  20.272  0.00  0.00    +0.000 A 
ATOM     30  C   UNL     1      -3.105  12.279  20.069  0.00  0.00    +0.000 A 
ATOM     31  C   UNL     1      -2.740  11.807  18.815  0.00  0.00    +0.000 A 
BRANCH  26  33
ATOM     32  C   UNL     1      -2.790   9.902  16.453  0.00  0.00    +0.000 C 
ATOM     33  O   UNL     1      -3.419  11.173  16.539  0.00  0.00    +0.000 OA
ENDBRANCH  26  33
ENDBRANCH  24  30
ENDBRANCH   1  24
TORSDOF 4
ENDMDL
MODEL 4
REMARK VINA RESULT:      -8.2      3.147      4.610
REMARK  Name = 
REMARK  6 active torsions:
REMARK  status: ('A' for Active; 'I' for Inactive)
REMARK    1  A    between atoms: C_1  and  O_2
REMARK    2  A    between atoms: O_2  and  C_3
REMARK    3  A    between atoms: C_7  and  C_8
REMARK    4  A    between atoms: C_8  and  C_9
REMARK    5  A    between atoms: C_8  and  N_10
REMARK    6  A    between atoms: C_19  and  C_20
REMARK                            x       y       z     vdW  Elec       q    Type
REMARK                         _______ _______ _______ _____ _____    ______ ____
ROOT
ATOM      1  N   UNL     1       3.371   4.246  20.206  0.00  0.00    +0.000 N 
ATOM      2  N   UNL     1       2.472   3.254  20.590  0.00  0.00    +0.000 NA
ATOM      3  N   UNL     1       1.435   3.387  19.778  0.00  0.00    +0.000 NA
ATOM      4  C   UNL     1       1.585   4.605  19.205  0.00  0.00    +0.000 A 
ATOM      5  C   UNL     1       1.151   5.118  17.989  0.00  0.00    +0.000 A 
ATOM      6  N   UNL     1       1.855   6.165  17.460  0.00  0.00    +0.000 NA
ATOM      7  C   UNL     1       2.464   7.026  18.280  0.00  0.00    +0.000 A 
ATOM      8  C   UNL     1       2.608   8.294  17.773  0.00  0.00    +0.000 A 
ATOM      9  C   UNL     1       1.967   9.375  18.398  0.00  0.00    +0.000 A 
ATOM     10  C   UNL     1       1.174   9.196  19.541  0.00  0.00    +0.000 A 
ATOM     11  C   UNL     1       1.484   7.944  20.219  0.00  0.00    +0.000 A 
ATOM     12  C   UNL     1       2.371   6.846  19.643  0.00  0.00    +0.000 A 
ATOM     13  C   UNL     1       2.485   5.391  19.975  0.00  0.00    +0.000 A 
ENDROOT
BRANCH  10  14
ATOM     14  C   UNL     1       0.031  10.261  19.766  0.00  0.00    +0.000 A 
ATOM     15  C   UNL     1      -0.743  10.700  18.649  0.00  0.00    +0.000 A 
ATOM     16  N   UNL     1      -1.764  11.624  18.553  0.00  0.00    +0.000 NA
ATOM     17  C   UNL     1      -2.071  12.167  19.739  0.00  0.00    +0.000 A 
ATOM     18  N   UNL     1      -3.061  13.099  19.926  0.00  0.00    +0.000 N 
ATOM     19  C   UNL     1      -3.129  13.438  21.239  0.00  0.00    +0.000 A 
ATOM     20  C   UNL     1      -2.148  12.693  21.913  0.00  0.00    +0.000 A 
ATOM     21  C   UNL     1      -1.462  11.875  20.956  0.00  0.00    +0.000 A 
ATOM     22  C   UNL     1      -0.392  10.890  20.961  0.00  0.00    +0.000 A 
ATOM     23  H   UNL     1      -3.654  13.468  19.186  0.00  0.00    +0.000 HD
ENDBRANCH  10  14
BRANCH   1  24
ATOM     24  C   UNL     1       4.673   3.594  19.745  0.00  0.00    +0.000 C 
ATOM     25  C   UNL     1       4.851   2.077  20.016  0.00  0.00    +0.000 C 
BRANCH  24  30
ATOM     26  C   UNL     1       6.956   5.376  17.225  0.00  0.00    +0.000 A 
ATOM     27  C   UNL     1       6.471   4.912  16.000  0.00  0.00    +0.000 A 
ATOM     28  C   UNL     1       5.434   3.990  15.973  0.00  0.00    +0.000 A 
ATOM     29  C   UNL     1       4.906   3.522  17.187  0.00  0.00    +0.000 A 
ATOM     30  C   UNL     1       5.414   3.951  18.453  0.00  0.00    +0.000 A 
ATOM     31  C   UNL     1       6.430   4.898  18.438  0.00  0.00    +0.000 A 
BRANCH  26  33
ATOM     32  C   UNL     1       7.553   7.637  17.541  0.00  0.00    +0.000 C 
ATOM     33  O   UNL     1       7.934   6.333  17.126  0.00  0.00    +0.000 OA
ENDBRANCH  26  33
ENDBRANCH  24  30
ENDBRANCH   1  24
TORSDOF 4
ENDMDL
MODEL 5
REMARK VINA RESULT:      -8.2      4.267     10.598
REMARK  Name = 
REMARK  6 active torsions:
REMARK  status: ('A' for Active; 'I' for Inactive)
REMARK    1  A    between atoms: C_1  and  O_2
REMARK    2  A    between atoms: O_2  and  C_3
REMARK    3  A    between atoms: C_7  and  C_8
REMARK    4  A    between atoms: C_8  and  C_9
REMARK    5  A    between atoms: C_8  and  N_10
REMARK    6  A    between atoms: C_19  and  C_20
REMARK                            x       y       z     vdW  Elec       q    Type
REMARK                         _______ _______ _______ _____ _____    ______ ____
ROOT
ATOM      1  N   UNL     1      -0.973  11.696  21.338  0.00  0.00    +0.000 N 
ATOM      2  N   UNL     1      -0.297  12.399  22.334  0.00  0.00    +0.000 NA
ATOM      3  N   UNL     1       0.852  12.763  21.787  0.00  0.00    +0.000 NA
ATOM      4  C   UNL     1       0.970  12.007  20.669  0.00  0.00    +0.000 A 
ATOM      5  C   UNL     1       1.644  12.220  19.473  0.00  0.00    +0.000 A 
ATOM      6  N   UNL     1       1.190  11.556  18.367  0.00  0.00    +0.000 NA
ATOM      7  C   UNL     1       0.608  10.362  18.513  0.00  0.00    +0.000 A 
ATOM      8  C   UNL     1       0.730   9.530  17.428  0.00  0.00    +0.000 A 
ATOM      9  C   UNL     1       1.432   8.321  17.547  0.00  0.00    +0.000 A 
ATOM     10  C   UNL     1       2.020   7.932  18.760  0.00  0.00    +0.000 A 
ATOM     11  C   UNL     1       1.431   8.635  19.892  0.00  0.00    +0.000 A 
ATOM     12  C   UNL     1       0.478   9.819  19.772  0.00  0.00    +0.000 A 
ATOM     13  C   UNL     1       0.100  10.887  20.752  0.00  0.00    +0.000 A 
ENDROOT
BRANCH  10  14
ATOM     14  C   UNL     1       3.267   6.971  18.649  0.00  0.00    +0.000 A 
ATOM     15  C   UNL     1       3.362   5.848  19.525  0.00  0.00    +0.000 A 
ATOM     16  N   UNL     1       4.336   4.879  19.665  0.00  0.00    +0.000 NA
ATOM     17  C   UNL     1       5.342   5.040  18.795  0.00  0.00    +0.000 A 
ATOM     18  N   UNL     1       6.428   4.206  18.709  0.00  0.00    +0.000 N 
ATOM     19  C   UNL     1       7.257   4.632  17.723  0.00  0.00    +0.000 A 
ATOM     20  C   UNL     1       6.677   5.779  17.157  0.00  0.00    +0.000 A 
ATOM     21  C   UNL     1       5.447   6.050  17.842  0.00  0.00    +0.000 A 
ATOM     22  C   UNL     1       4.374   7.029  17.769  0.00  0.00    +0.000 A 
ATOM     23  H   UNL     1       6.574   3.388  19.297  0.00  0.00    +0.000 HD
ENDBRANCH  10  14
BRANCH   1  24
ATOM     24  C   UNL     1      -2.279  12.415  21.013  0.00  0.00    +0.000 C 
ATOM     25  C   UNL     1      -2.432  13.882  21.497  0.00  0.00    +0.000 C 
BRANCH  24  30
ATOM     26  C   UNL     1      -5.173  11.979  18.528  0.00  0.00    +0.000 A 
ATOM     27  C   UNL     1      -4.521  11.507  17.387  0.00  0.00    +0.000 A 
ATOM     28  C   UNL     1      -3.140  11.365  17.391  0.00  0.00    +0.000 A 
ATOM     29  C   UNL     1      -2.421  11.723  18.542  0.00  0.00    +0.000 A 
ATOM     30  C   UNL     1      -3.063  12.248  19.707  0.00  0.00    +0.000 A 
ATOM     31  C   UNL     1      -4.448  12.344  19.675  0.00  0.00    +0.000 A 
BRANCH  26  33
ATOM     32  C   UNL     1      -7.062  12.996  17.546  0.00  0.00    +0.000 C 
ATOM     33  O   UNL     1      -6.541  12.013  18.429  0.00  0.00    +0.000 OA
ENDBRANCH  26  33
ENDBRANCH  24  30
ENDBRANCH   1  24
TORSDOF 4
ENDMDL
MODEL 6
REMARK VINA RESULT:      -8.2      2.518      4.158
REMARK  Name = 
REMARK  6 active torsions:
REMARK  status: ('A' for Active; 'I' for Inactive)
REMARK    1  A    between atoms: C_1  and  O_2
REMARK    2  A    between atoms: O_2  and  C_3
REMARK    3  A    between atoms: C_7  and  C_8
REMARK    4  A    between atoms: C_8  and  C_9
REMARK    5  A    between atoms: C_8  and  N_10
REMARK    6  A    between atoms: C_19  and  C_20
REMARK                            x       y       z     vdW  Elec       q    Type
REMARK                         _______ _______ _______ _____ _____    ______ ____
ROOT
ATOM      1  N   UNL     1       3.403   4.392  20.191  0.00  0.00    +0.000 N 
ATOM      2  N   UNL     1       2.522   3.380  20.568  0.00  0.00    +0.000 NA
ATOM      3  N   UNL     1       1.486   3.497  19.752  0.00  0.00    +0.000 NA
ATOM      4  C   UNL     1       1.614   4.720  19.185  0.00  0.00    +0.000 A 
ATOM      5  C   UNL     1       1.175   5.230  17.970  0.00  0.00    +0.000 A 
ATOM      6  N   UNL     1       1.859   6.294  17.448  0.00  0.00    +0.000 NA
ATOM      7  C   UNL     1       2.448   7.162  18.275  0.00  0.00    +0.000 A 
ATOM      8  C   UNL     1       2.568   8.435  17.775  0.00  0.00    +0.000 A 
ATOM      9  C   UNL     1       1.904   9.501  18.402  0.00  0.00    +0.000 A 
ATOM     10  C   UNL     1       1.110   9.300  19.541  0.00  0.00    +0.000 A 
ATOM     11  C   UNL     1       1.443   8.052  20.215  0.00  0.00    +0.000 A 
ATOM     12  C   UNL     1       2.354   6.975  19.636  0.00  0.00    +0.000 A 
ATOM     13  C   UNL     1       2.495   5.520  19.962  0.00  0.00    +0.000 A 
ENDROOT
BRANCH  10  14
ATOM     14  C   UNL     1      -0.054  10.341  19.766  0.00  0.00    +0.000 A 
ATOM     15  C   UNL     1      -0.846  10.754  18.653  0.00  0.00    +0.000 A 
ATOM     16  N   UNL     1      -1.888  11.654  18.558  0.00  0.00    +0.000 NA
ATOM     17  C   UNL     1      -2.199  12.200  19.741  0.00  0.00    +0.000 A 
ATOM     18  N   UNL     1      -3.207  13.112  19.929  0.00  0.00    +0.000 N 
ATOM     19  C   UNL     1      -3.273  13.459  21.240  0.00  0.00    +0.000 A 
ATOM     20  C   UNL     1      -2.271  12.741  21.912  0.00  0.00    +0.000 A 
ATOM     21  C   UNL     1      -1.574  11.932  20.956  0.00  0.00    +0.000 A 
ATOM     22  C   UNL     1      -0.482  10.970  20.960  0.00  0.00    +0.000 A 
ATOM     23  H   UNL     1      -3.814  13.461  19.191  0.00  0.00    +0.000 HD
ENDBRANCH  10  14
BRANCH   1  24
ATOM     24  C   UNL     1       4.719   3.768  19.732  0.00  0.00    +0.000 C 
ATOM     25  C   UNL     1       4.893   2.238  19.922  0.00  0.00    +0.000 C 
BRANCH  24  30
ATOM     26  C   UNL     1       5.734   4.280  16.065  0.00  0.00    +0.000 A 
ATOM     27  C   UNL     1       7.094   4.581  16.169  0.00  0.00    +0.000 A 
ATOM     28  C   UNL     1       7.688   4.666  17.421  0.00  0.00    +0.000 A 
ATOM     29  C   UNL     1       6.900   4.466  18.565  0.00  0.00    +0.000 A 
ATOM     30  C   UNL     1       5.497   4.198  18.485  0.00  0.00    +0.000 A 
ATOM     31  C   UNL     1       4.947   4.090  17.214  0.00  0.00    +0.000 A 
BRANCH  26  33
ATOM     32  C   UNL     1       6.274   3.932  13.795  0.00  0.00    +0.000 C 
ATOM     33  O   UNL     1       5.274   4.158  14.779  0.00  0.00    +0.000 OA
ENDBRANCH  26  33
ENDBRANCH  24  30
ENDBRANCH   1  24
TORSDOF 4
ENDMDL
MODEL 7
REMARK VINA RESULT:      -8.1      0.891      1.264
REMARK  Name = 
REMARK  6 active torsions:
REMARK  status: ('A' for Active; 'I' for Inactive)
REMARK    1  A    between atoms: C_1  and  O_2
REMARK    2  A    between atoms: O_2  and  C_3
REMARK    3  A    between atoms: C_7  and  C_8
REMARK    4  A    between atoms: C_8  and  C_9
REMARK    5  A    between atoms: C_8  and  N_10
REMARK    6  A    between atoms: C_19  and  C_20
REMARK                            x       y       z     vdW  Elec       q    Type
REMARK                         _______ _______ _______ _____ _____    ______ ____
ROOT
ATOM      1  N   UNL     1       6.157   5.808  16.177  0.00  0.00    +0.000 N 
ATOM      2  N   UNL     1       7.336   6.533  16.336  0.00  0.00    +0.000 NA
ATOM      3  N   UNL     1       7.512   6.634  17.644  0.00  0.00    +0.000 NA
ATOM      4  C   UNL     1       6.320   6.295  18.191  0.00  0.00    +0.000 A 
ATOM      5  C   UNL     1       5.986   5.759  19.428  0.00  0.00    +0.000 A 
ATOM      6  N   UNL     1       4.811   5.064  19.517  0.00  0.00    +0.000 NA
ATOM      7  C   UNL     1       3.790   5.400  18.724  0.00  0.00    +0.000 A 
ATOM      8  C   UNL     1       2.549   5.122  19.242  0.00  0.00    +0.000 A 
ATOM      9  C   UNL     1       1.652   6.167  19.513  0.00  0.00    +0.000 A 
ATOM     10  C   UNL     1       1.991   7.506  19.265  0.00  0.00    +0.000 A 
ATOM     11  C   UNL     1       3.090   7.615  18.314  0.00  0.00    +0.000 A 
ATOM     12  C   UNL     1       3.935   6.440  17.834  0.00  0.00    +0.000 A 
ATOM     13  C   UNL     1       5.296   6.392  17.210  0.00  0.00    +0.000 A 
ENDROOT
BRANCH  10  14
ATOM     14  C   UNL     1       1.258   8.582  20.155  0.00  0.00    +0.000 A 
ATOM     15  C   UNL     1       1.207   8.400  21.570  0.00  0.00    +0.000 A 
ATOM     16  N   UNL     1       0.619   9.153  22.567  0.00  0.00    +0.000 NA
ATOM     17  C   UNL     1       0.020  10.252  22.089  0.00  0.00    +0.000 A 
ATOM     18  N   UNL     1      -0.623  11.180  22.868  0.00  0.00    +0.000 N 
ATOM     19  C   UNL     1      -1.111  12.177  22.086  0.00  0.00    +0.000 A 
ATOM     20  C   UNL     1      -0.763  11.873  20.759  0.00  0.00    +0.000 A 
ATOM     21  C   UNL     1      -0.038  10.636  20.752  0.00  0.00    +0.000 A 
ATOM     22  C   UNL     1       0.607   9.779  19.770  0.00  0.00    +0.000 A 
ATOM     23  H   UNL     1      -0.709  11.124  23.880  0.00  0.00    +0.000 HD
ENDBRANCH  10  14
BRANCH   1  24
ATOM     24  C   UNL     1       6.459   4.515  15.424  0.00  0.00    +0.000 C 
ATOM     25  C   UNL     1       5.995   3.183  16.069  0.00  0.00    +0.000 C 
BRANCH  24  30
ATOM     26  C   UNL     1       5.532   3.269  11.912  0.00  0.00    +0.000 A 
ATOM     27  C   UNL     1       6.591   3.746  11.135  0.00  0.00    +0.000 A 
ATOM     28  C   UNL     1       7.590   4.509  11.724  0.00  0.00    +0.000 A 
ATOM     29  C   UNL     1       7.503   4.806  13.093  0.00  0.00    +0.000 A 
ATOM     30  C   UNL     1       6.408   4.364  13.900  0.00  0.00    +0.000 A 
ATOM     31  C   UNL     1       5.446   3.577  13.281  0.00  0.00    +0.000 A 
BRANCH  26  33
ATOM     32  C   UNL     1       3.496   3.139  10.727  0.00  0.00    +0.000 C 
ATOM     33  O   UNL     1       4.643   2.473  11.237  0.00  0.00    +0.000 OA
ENDBRANCH  26  33
ENDBRANCH  24  30
ENDBRANCH   1  24
TORSDOF 4
ENDMDL
MODEL 8
REMARK VINA RESULT:      -8.0      4.089     11.374
REMARK  Name = 
REMARK  6 active torsions:
REMARK  status: ('A' for Active; 'I' for Inactive)
REMARK    1  A    between atoms: C_1  and  O_2
REMARK    2  A    between atoms: O_2  and  C_3
REMARK    3  A    between atoms: C_7  and  C_8
REMARK    4  A    between atoms: C_8  and  C_9
REMARK    5  A    between atoms: C_8  and  N_10
REMARK    6  A    between atoms: C_19  and  C_20
REMARK                            x       y       z     vdW  Elec       q    Type
REMARK                         _______ _______ _______ _____ _____    ______ ____
ROOT
ATOM      1  N   UNL     1      -0.992  12.956  22.139  0.00  0.00    +0.000 N 
ATOM      2  N   UNL     1      -0.056  13.681  22.873  0.00  0.00    +0.000 NA
ATOM      3  N   UNL     1       0.909  13.975  22.016  0.00  0.00    +0.000 NA
ATOM      4  C   UNL     1       0.702  13.161  20.953  0.00  0.00    +0.000 A 
ATOM      5  C   UNL     1       1.031  13.289  19.610  0.00  0.00    +0.000 A 
ATOM      6  N   UNL     1       0.278  12.588  18.708  0.00  0.00    +0.000 NA
ATOM      7  C   UNL     1      -0.269  11.426  19.074  0.00  0.00    +0.000 A 
ATOM      8  C   UNL     1      -0.464  10.537  18.046  0.00  0.00    +0.000 A 
ATOM      9  C   UNL     1       0.217   9.310  18.041  0.00  0.00    +0.000 A 
ATOM     10  C   UNL     1       1.103   8.959  19.071  0.00  0.00    +0.000 A 
ATOM     11  C   UNL     1       0.859   9.740  20.277  0.00  0.00    +0.000 A 
ATOM     12  C   UNL     1      -0.064  10.951  20.351  0.00  0.00    +0.000 A 
ATOM     13  C   UNL     1      -0.138  12.079  21.333  0.00  0.00    +0.000 A 
ENDROOT
BRANCH  10  14
ATOM     14  C   UNL     1       2.251   7.949  18.683  0.00  0.00    +0.000 A 
ATOM     15  C   UNL     1       2.487   6.811  19.512  0.00  0.00    +0.000 A 
ATOM     16  N   UNL     1       3.424   5.800  19.429  0.00  0.00    +0.000 NA
ATOM     17  C   UNL     1       4.220   5.931  18.358  0.00  0.00    +0.000 A 
ATOM     18  N   UNL     1       5.222   5.053  18.031  0.00  0.00    +0.000 N 
ATOM     19  C   UNL     1       5.831   5.457  16.888  0.00  0.00    +0.000 A 
ATOM     20  C   UNL     1       5.192   6.635  16.469  0.00  0.00    +0.000 A 
ATOM     21  C   UNL     1       4.157   6.948  17.410  0.00  0.00    +0.000 A 
ATOM     22  C   UNL     1       3.138   7.973  17.581  0.00  0.00    +0.000 A 
ATOM     23  H   UNL     1       5.459   4.221  18.568  0.00  0.00    +0.000 HD
ENDBRANCH  10  14
BRANCH   1  24
ATOM     24  C   UNL     1      -2.322  13.706  22.138  0.00  0.00    +0.000 C 
ATOM     25  C   UNL     1      -2.288  15.227  21.830  0.00  0.00    +0.000 C 
BRANCH  24  30
ATOM     26  C   UNL     1      -5.047  12.380  19.781  0.00  0.00    +0.000 A 
ATOM     27  C   UNL     1      -6.198  12.485  20.564  0.00  0.00    +0.000 A 
ATOM     28  C   UNL     1      -6.105  12.942  21.871  0.00  0.00    +0.000 A 
ATOM     29  C   UNL     1      -4.842  13.271  22.389  0.00  0.00    +0.000 A 
ATOM     30  C   UNL     1      -3.644  13.132  21.620  0.00  0.00    +0.000 A 
ATOM     31  C   UNL     1      -3.784  12.702  20.308  0.00  0.00    +0.000 A 
BRANCH  26  33
ATOM     32  C   UNL     1      -6.461  11.233  18.280  0.00  0.00    +0.000 C 
ATOM     33  O   UNL     1      -5.271  11.982  18.488  0.00  0.00    +0.000 OA
ENDBRANCH  26  33
ENDBRANCH  24  30
ENDBRANCH   1  24
TORSDOF 4
ENDMDL
MODEL 9
REMARK VINA RESULT:      -8.0      3.053      4.587
REMARK  Name = 
REMARK  6 active torsions:
REMARK  status: ('A' for Active; 'I' for Inactive)
REMARK    1  A    between atoms: C_1  and  O_2
REMARK    2  A    between atoms: O_2  and  C_3
REMARK    3  A    between atoms: C_7  and  C_8
REMARK    4  A    between atoms: C_8  and  C_9
REMARK    5  A    between atoms: C_8  and  N_10
REMARK    6  A    between atoms: C_19  and  C_20
REMARK                            x       y       z     vdW  Elec       q    Type
REMARK                         _______ _______ _______ _____ _____    ______ ____
ROOT
ATOM      1  N   UNL     1       3.451   4.000  20.095  0.00  0.00    +0.000 N 
ATOM      2  N   UNL     1       2.566   3.005  20.506  0.00  0.00    +0.000 NA
ATOM      3  N   UNL     1       1.470   3.192  19.787  0.00  0.00    +0.000 NA
ATOM      4  C   UNL     1       1.598   4.433  19.259  0.00  0.00    +0.000 A 
ATOM      5  C   UNL     1       1.078   5.007  18.106  0.00  0.00    +0.000 A 
ATOM      6  N   UNL     1       1.756   6.067  17.569  0.00  0.00    +0.000 NA
ATOM      7  C   UNL     1       2.446   6.879  18.375  0.00  0.00    +0.000 A 
ATOM      8  C   UNL     1       2.573   8.167  17.915  0.00  0.00    +0.000 A 
ATOM      9  C   UNL     1       2.005   9.228  18.637  0.00  0.00    +0.000 A 
ATOM     10  C   UNL     1       1.302   9.009  19.831  0.00  0.00    +0.000 A 
ATOM     11  C   UNL     1       1.642   7.722  20.426  0.00  0.00    +0.000 A 
ATOM     12  C   UNL     1       2.459   6.639  19.731  0.00  0.00    +0.000 A 
ATOM     13  C   UNL     1       2.571   5.168  19.988  0.00  0.00    +0.000 A 
ENDROOT
BRANCH  10  14
ATOM     14  C   UNL     1       0.202  10.080  20.195  0.00  0.00    +0.000 A 
ATOM     15  C   UNL     1       0.211  10.677  21.491  0.00  0.00    +0.000 A 
ATOM     16  N   UNL     1      -0.631  11.601  22.076  0.00  0.00    +0.000 NA
ATOM     17  C   UNL     1      -1.602  12.003  21.245  0.00  0.00    +0.000 A 
ATOM     18  N   UNL     1      -2.561  12.929  21.570  0.00  0.00    +0.000 N 
ATOM     19  C   UNL     1      -3.386  13.126  20.511  0.00  0.00    +0.000 A 
ATOM     20  C   UNL     1      -2.935  12.296  19.471  0.00  0.00    +0.000 A 
ATOM     21  C   UNL     1      -1.790  11.569  19.936  0.00  0.00    +0.000 A 
ATOM     22  C   UNL     1      -0.855  10.590  19.403  0.00  0.00    +0.000 A 
ATOM     23  H   UNL     1      -2.628  13.398  22.471  0.00  0.00    +0.000 HD
ENDBRANCH  10  14
BRANCH   1  24
ATOM     24  C   UNL     1       4.698   3.350  19.503  0.00  0.00    +0.000 C 
ATOM     25  C   UNL     1       4.810   1.804  19.583  0.00  0.00    +0.000 C 
BRANCH  24  30
ATOM     26  C   UNL     1       6.932   5.348  17.104  0.00  0.00    +0.000 A 
ATOM     27  C   UNL     1       6.403   5.017  15.854  0.00  0.00    +0.000 A 
ATOM     28  C   UNL     1       5.351   4.115  15.767  0.00  0.00    +0.000 A 
ATOM     29  C   UNL     1       4.853   3.534  16.944  0.00  0.00    +0.000 A 
ATOM     30  C   UNL     1       5.406   3.826  18.230  0.00  0.00    +0.000 A 
ATOM     31  C   UNL     1       6.435   4.757  18.278  0.00  0.00    +0.000 A 
BRANCH  26  33
ATOM     32  C   UNL     1       7.537   7.592  17.515  0.00  0.00    +0.000 C 
ATOM     33  O   UNL     1       7.921   6.298  17.070  0.00  0.00    +0.000 OA
ENDBRANCH  26  33
ENDBRANCH  24  30
ENDBRANCH   1  24
TORSDOF 4
ENDMDL
