MODEL 1
REMARK VINA RESULT:      -7.5      0.000      0.000
REMARK  Name = 
REMARK  6 active torsions:
REMARK  status: ('A' for Active; 'I' for Inactive)
REMARK    1  A    between atoms: O_1  and  C_2
REMARK    2  A    between atoms: C_6  and  C_7
REMARK    3  A    between atoms: C_7  and  C_8
REMARK    4  A    between atoms: C_8  and  C_9
REMARK    5  A    between atoms: C_11  and  O_12
REMARK    6  A    between atoms: C_14  and  O_15
REMARK                            x       y       z     vdW  Elec       q    Type
REMARK                         _______ _______ _______ _____ _____    ______ ____
ROOT
ATOM      1  C   UNL     1       2.661   6.060  18.070  0.00  0.00    +0.000 C 
ENDROOT
BRANCH   1   2
ATOM      2  C   UNL     1       2.182   4.857  18.849  0.00  0.00    +0.000 A 
ATOM      3  C   UNL     1       2.467   4.727  20.217  0.00  0.00    +0.000 A 
ATOM      4  C   UNL     1       2.006   3.612  20.919  0.00  0.00    +0.000 A 
ATOM      5  C   UNL     1       1.269   2.617  20.287  0.00  0.00    +0.000 A 
ATOM      6  C   UNL     1       0.997   2.743  18.930  0.00  0.00    +0.000 A 
ATOM      7  C   UNL     1       1.448   3.846  18.210  0.00  0.00    +0.000 A 
BRANCH   4   8
ATOM      8  O   UNL     1       2.258   3.458  22.251  0.00  0.00    +0.000 OA
ATOM      9  H   UNL     1       2.585   4.301  22.605  0.00  0.00    +0.000 HD
ENDBRANCH   4   8
BRANCH   6  10
ATOM     10  O   UNL     1       0.278   1.797  18.260  0.00  0.00    +0.000 OA
ATOM     11  H   UNL     1       0.897   1.236  17.766  0.00  0.00    +0.000 HD
ENDBRANCH   6  10
ENDBRANCH   1   2
BRANCH   1  12
ATOM     12  C   UNL     1       4.097   6.452  18.430  0.00  0.00    +0.000 C 
BRANCH  12  17
ATOM     13  C   UNL     1       7.187   4.628  17.145  0.00  0.00    +0.000 A 
ATOM     14  C   UNL     1       6.991   4.653  15.768  0.00  0.00    +0.000 A 
ATOM     15  C   UNL     1       5.855   5.276  15.252  0.00  0.00    +0.000 A 
ATOM     16  C   UNL     1       4.922   5.861  16.113  0.00  0.00    +0.000 A 
ATOM     17  C   UNL     1       5.113   5.825  17.502  0.00  0.00    +0.000 A 
ATOM     18  C   UNL     1       6.263   5.207  18.011  0.00  0.00    +0.000 A 
BRANCH  13  19
ATOM     19  O   UNL     1       8.286   4.032  17.692  0.00  0.00    +0.000 OA
ATOM     20  H   UNL     1       8.754   4.689  18.232  0.00  0.00    +0.000 HD
ENDBRANCH  13  19
ENDBRANCH  12  17
ENDBRANCH   1  12
TORSDOF 6
ENDMDL
MODEL 2
REMARK VINA RESULT:      -7.5      0.072      2.006
REMARK  Name = 
REMARK  6 active torsions:
REMARK  status: ('A' for Active; 'I' for Inactive)
REMARK    1  A    between atoms: O_1  and  C_2
REMARK    2  A    between atoms: C_6  and  C_7
REMARK    3  A    between atoms: C_7  and  C_8
REMARK    4  A    between atoms: C_8  and  C_9
REMARK    5  A    between atoms: C_11  and  O_12
REMARK    6  A    between atoms: C_14  and  O_15
REMARK                            x       y       z     vdW  Elec       q    Type
REMARK                         _______ _______ _______ _____ _____    ______ ____
ROOT
ATOM      1  C   UNL     1       2.682   6.036  17.994  0.00  0.00    +0.000 C 
ENDROOT
BRANCH   1   2
ATOM      2  C   UNL     1       2.181   4.840  18.769  0.00  0.00    +0.000 A 
ATOM      3  C   UNL     1       1.445   3.828  18.134  0.00  0.00    +0.000 A 
ATOM      4  C   UNL     1       1.001   2.727  18.869  0.00  0.00    +0.000 A 
ATOM      5  C   UNL     1       1.269   2.612  20.227  0.00  0.00    +0.000 A 
ATOM      6  C   UNL     1       1.991   3.620  20.857  0.00  0.00    +0.000 A 
ATOM      7  C   UNL     1       2.442   4.727  20.143  0.00  0.00    +0.000 A 
BRANCH   4   8
ATOM      8  O   UNL     1       0.289   1.722  18.281  0.00  0.00    +0.000 OA
ATOM      9  H   UNL     1       0.004   1.099  18.968  0.00  0.00    +0.000 HD
ENDBRANCH   4   8
BRANCH   6  10
ATOM     10  O   UNL     1       2.283   3.557  22.187  0.00  0.00    +0.000 OA
ATOM     11  H   UNL     1       2.530   4.446  22.488  0.00  0.00    +0.000 HD
ENDBRANCH   6  10
ENDBRANCH   1   2
BRANCH   1  12
ATOM     12  C   UNL     1       4.112   6.423  18.382  0.00  0.00    +0.000 C 
BRANCH  12  17
ATOM     13  C   UNL     1       7.229   4.604  17.156  0.00  0.00    +0.000 A 
ATOM     14  C   UNL     1       7.051   4.613  15.777  0.00  0.00    +0.000 A 
ATOM     15  C   UNL     1       5.918   5.223  15.239  0.00  0.00    +0.000 A 
ATOM     16  C   UNL     1       4.970   5.812  16.082  0.00  0.00    +0.000 A 
ATOM     17  C   UNL     1       5.143   5.792  17.474  0.00  0.00    +0.000 A 
ATOM     18  C   UNL     1       6.290   5.187  18.003  0.00  0.00    +0.000 A 
BRANCH  13  19
ATOM     19  O   UNL     1       8.324   4.021  17.723  0.00  0.00    +0.000 OA
ATOM     20  H   UNL     1       8.122   3.826  18.652  0.00  0.00    +0.000 HD
ENDBRANCH  13  19
ENDBRANCH  12  17
ENDBRANCH   1  12
TORSDOF 6
ENDMDL
MODEL 3
REMARK VINA RESULT:      -7.4      1.784      6.351
REMARK  Name = 
REMARK  6 active torsions:
REMARK  status: ('A' for Active; 'I' for Inactive)
REMARK    1  A    between atoms: O_1  and  C_2
REMARK    2  A    between atoms: C_6  and  C_7
REMARK    3  A    between atoms: C_7  and  C_8
REMARK    4  A    between atoms: C_8  and  C_9
REMARK    5  A    between atoms: C_11  and  O_12
REMARK    6  A    between atoms: C_14  and  O_15
REMARK                            x       y       z     vdW  Elec       q    Type
REMARK                         _______ _______ _______ _____ _____    ______ ____
ROOT
ATOM      1  C   UNL     1       4.408   5.227  17.187  0.00  0.00    +0.000 C 
ENDROOT
BRANCH   1   2
ATOM      2  C   UNL     1       5.695   5.803  17.731  0.00  0.00    +0.000 A 
ATOM      3  C   UNL     1       6.309   6.902  17.112  0.00  0.00    +0.000 A 
ATOM      4  C   UNL     1       7.492   7.424  17.638  0.00  0.00    +0.000 A 
ATOM      5  C   UNL     1       8.083   6.872  18.768  0.00  0.00    +0.000 A 
ATOM      6  C   UNL     1       7.478   5.777  19.374  0.00  0.00    +0.000 A 
ATOM      7  C   UNL     1       6.299   5.239  18.865  0.00  0.00    +0.000 A 
BRANCH   4   8
ATOM      8  O   UNL     1       8.111   8.497  17.065  0.00  0.00    +0.000 OA
ATOM      9  H   UNL     1       8.267   8.301  16.127  0.00  0.00    +0.000 HD
ENDBRANCH   4   8
BRANCH   6  10
ATOM     10  O   UNL     1       8.015   5.196  20.485  0.00  0.00    +0.000 OA
ATOM     11  H   UNL     1       7.610   4.321  20.599  0.00  0.00    +0.000 HD
ENDBRANCH   6  10
ENDBRANCH   1   2
BRANCH   1  12
ATOM     12  C   UNL     1       3.170   5.887  17.801  0.00  0.00    +0.000 C 
BRANCH  12  17
ATOM     13  C   UNL     1       1.093   2.880  18.881  0.00  0.00    +0.000 A 
ATOM     14  C   UNL     1       0.885   3.137  20.232  0.00  0.00    +0.000 A 
ATOM     15  C   UNL     1       1.412   4.299  20.795  0.00  0.00    +0.000 A 
ATOM     16  C   UNL     1       2.147   5.190  20.007  0.00  0.00    +0.000 A 
ATOM     17  C   UNL     1       2.368   4.925  18.647  0.00  0.00    +0.000 A 
ATOM     18  C   UNL     1       1.824   3.761  18.089  0.00  0.00    +0.000 A 
BRANCH  13  19
ATOM     19  O   UNL     1       0.592   1.757  18.291  0.00  0.00    +0.000 OA
ATOM     20  H   UNL     1       0.580   1.044  18.949  0.00  0.00    +0.000 HD
ENDBRANCH  13  19
ENDBRANCH  12  17
ENDBRANCH   1  12
TORSDOF 6
ENDMDL
MODEL 4
REMARK VINA RESULT:      -7.4      1.804      6.226
REMARK  Name = 
REMARK  6 active torsions:
REMARK  status: ('A' for Active; 'I' for Inactive)
REMARK    1  A    between atoms: O_1  and  C_2
REMARK    2  A    between atoms: C_6  and  C_7
REMARK    3  A    between atoms: C_7  and  C_8
REMARK    4  A    between atoms: C_8  and  C_9
REMARK    5  A    between atoms: C_11  and  O_12
REMARK    6  A    between atoms: C_14  and  O_15
REMARK                            x       y       z     vdW  Elec       q    Type
REMARK                         _______ _______ _______ _____ _____    ______ ____
ROOT
ATOM      1  C   UNL     1       4.214   5.305  17.321  0.00  0.00    +0.000 C 
ENDROOT
BRANCH   1   2
ATOM      2  C   UNL     1       5.545   5.834  17.804  0.00  0.00    +0.000 A 
ATOM      3  C   UNL     1       6.187   6.886  17.132  0.00  0.00    +0.000 A 
ATOM      4  C   UNL     1       7.411   7.366  17.602  0.00  0.00    +0.000 A 
ATOM      5  C   UNL     1       8.016   6.816  18.726  0.00  0.00    +0.000 A 
ATOM      6  C   UNL     1       7.383   5.768  19.384  0.00  0.00    +0.000 A 
ATOM      7  C   UNL     1       6.163   5.273  18.931  0.00  0.00    +0.000 A 
BRANCH   4   8
ATOM      8  O   UNL     1       8.057   8.392  16.978  0.00  0.00    +0.000 OA
ATOM      9  H   UNL     1       7.764   8.428  16.052  0.00  0.00    +0.000 HD
ENDBRANCH   4   8
BRANCH   6  10
ATOM     10  O   UNL     1       7.932   5.193  20.492  0.00  0.00    +0.000 OA
ATOM     11  H   UNL     1       7.479   4.350  20.655  0.00  0.00    +0.000 HD
ENDBRANCH   6  10
ENDBRANCH   1   2
BRANCH   1  12
ATOM     12  C   UNL     1       3.047   5.793  18.185  0.00  0.00    +0.000 C 
BRANCH  12  17
ATOM     13  C   UNL     1       1.965   3.411  20.956  0.00  0.00    +0.000 A 
ATOM     14  C   UNL     1       1.093   2.558  20.287  0.00  0.00    +0.000 A 
ATOM     15  C   UNL     1       0.864   2.749  18.925  0.00  0.00    +0.000 A 
ATOM     16  C   UNL     1       1.499   3.793  18.244  0.00  0.00    +0.000 A 
ATOM     17  C   UNL     1       2.368   4.661  18.922  0.00  0.00    +0.000 A 
ATOM     18  C   UNL     1       2.601   4.454  20.288  0.00  0.00    +0.000 A 
BRANCH  13  19
ATOM     19  O   UNL     1       2.219   3.258  22.287  0.00  0.00    +0.000 OA
ATOM     20  H   UNL     1       1.445   2.844  22.702  0.00  0.00    +0.000 HD
ENDBRANCH  13  19
ENDBRANCH  12  17
ENDBRANCH   1  12
TORSDOF 6
ENDMDL
MODEL 5
REMARK VINA RESULT:      -7.3      1.415      6.028
REMARK  Name = 
REMARK  6 active torsions:
REMARK  status: ('A' for Active; 'I' for Inactive)
REMARK    1  A    between atoms: O_1  and  C_2
REMARK    2  A    between atoms: C_6  and  C_7
REMARK    3  A    between atoms: C_7  and  C_8
REMARK    4  A    between atoms: C_8  and  C_9
REMARK    5  A    between atoms: C_11  and  O_12
REMARK    6  A    between atoms: C_14  and  O_15
REMARK                            x       y       z     vdW  Elec       q    Type
REMARK                         _______ _______ _______ _____ _____    ______ ____
ROOT
ATOM      1  C   UNL     1       3.582   6.246  17.810  0.00  0.00    +0.000 C 
ENDROOT
BRANCH   1   2
ATOM      2  C   UNL     1       5.025   5.803  17.868  0.00  0.00    +0.000 A 
ATOM      3  C   UNL     1       5.692   5.370  16.712  0.00  0.00    +0.000 A 
ATOM      4  C   UNL     1       7.029   4.975  16.788  0.00  0.00    +0.000 A 
ATOM      5  C   UNL     1       7.719   4.996  17.994  0.00  0.00    +0.000 A 
ATOM      6  C   UNL     1       7.054   5.415  19.140  0.00  0.00    +0.000 A 
ATOM      7  C   UNL     1       5.720   5.813  19.087  0.00  0.00    +0.000 A 
BRANCH   4   8
ATOM      8  O   UNL     1       7.709   4.556  15.681  0.00  0.00    +0.000 OA
ATOM      9  H   UNL     1       7.473   5.131  14.935  0.00  0.00    +0.000 HD
ENDBRANCH   4   8
BRANCH   6  10
ATOM     10  O   UNL     1       7.683   5.456  20.349  0.00  0.00    +0.000 OA
ATOM     11  H   UNL     1       8.319   6.189  20.339  0.00  0.00    +0.000 HD
ENDBRANCH   6  10
ENDBRANCH   1   2
BRANCH   1  12
ATOM     12  C   UNL     1       2.901   6.189  19.180  0.00  0.00    +0.000 C 
BRANCH  12  17
ATOM     13  C   UNL     1       1.560   3.083  20.936  0.00  0.00    +0.000 A 
ATOM     14  C   UNL     1       0.966   2.387  19.888  0.00  0.00    +0.000 A 
ATOM     15  C   UNL     1       1.010   2.923  18.601  0.00  0.00    +0.000 A 
ATOM     16  C   UNL     1       1.639   4.150  18.372  0.00  0.00    +0.000 A 
ATOM     17  C   UNL     1       2.228   4.859  19.431  0.00  0.00    +0.000 A 
ATOM     18  C   UNL     1       2.188   4.307  20.718  0.00  0.00    +0.000 A 
BRANCH  13  19
ATOM     19  O   UNL     1       1.542   2.593  22.209  0.00  0.00    +0.000 OA
ATOM     20  H   UNL     1       2.248   1.932  22.293  0.00  0.00    +0.000 HD
ENDBRANCH  13  19
ENDBRANCH  12  17
ENDBRANCH   1  12
TORSDOF 6
ENDMDL
MODEL 6
REMARK VINA RESULT:      -7.3      1.429      5.662
REMARK  Name = 
REMARK  6 active torsions:
REMARK  status: ('A' for Active; 'I' for Inactive)
REMARK    1  A    between atoms: O_1  and  C_2
REMARK    2  A    between atoms: C_6  and  C_7
REMARK    3  A    between atoms: C_7  and  C_8
REMARK    4  A    between atoms: C_8  and  C_9
REMARK    5  A    between atoms: C_11  and  O_12
REMARK    6  A    between atoms: C_14  and  O_15
REMARK                            x       y       z     vdW  Elec       q    Type
REMARK                         _______ _______ _______ _____ _____    ______ ____
ROOT
ATOM      1  C   UNL     1       3.490   6.426  17.844  0.00  0.00    +0.000 C 
ENDROOT
BRANCH   1   2
ATOM      2  C   UNL     1       4.922   5.947  17.882  0.00  0.00    +0.000 A 
ATOM      3  C   UNL     1       5.632   5.896  19.091  0.00  0.00    +0.000 A 
ATOM      4  C   UNL     1       6.952   5.440  19.104  0.00  0.00    +0.000 A 
ATOM      5  C   UNL     1       7.585   5.036  17.935  0.00  0.00    +0.000 A 
ATOM      6  C   UNL     1       6.884   5.096  16.736  0.00  0.00    +0.000 A 
ATOM      7  C   UNL     1       5.567   5.549  16.701  0.00  0.00    +0.000 A 
BRANCH   4   8
ATOM      8  O   UNL     1       7.667   5.371  20.264  0.00  0.00    +0.000 OA
ATOM      9  H   UNL     1       7.833   4.437  20.471  0.00  0.00    +0.000 HD
ENDBRANCH   4   8
BRANCH   6  10
ATOM     10  O   UNL     1       7.456   4.712  15.560  0.00  0.00    +0.000 OA
ATOM     11  H   UNL     1       7.406   5.455  14.937  0.00  0.00    +0.000 HD
ENDBRANCH   6  10
ENDBRANCH   1   2
BRANCH   1  12
ATOM     12  C   UNL     1       2.801   6.306  19.207  0.00  0.00    +0.000 C 
BRANCH  12  17
ATOM     13  C   UNL     1       1.601   3.113  20.905  0.00  0.00    +0.000 A 
ATOM     14  C   UNL     1       1.094   2.383  19.835  0.00  0.00    +0.000 A 
ATOM     15  C   UNL     1       1.152   2.926  18.551  0.00  0.00    +0.000 A 
ATOM     16  C   UNL     1       1.707   4.193  18.348  0.00  0.00    +0.000 A 
ATOM     17  C   UNL     1       2.207   4.934  19.429  0.00  0.00    +0.000 A 
ATOM     18  C   UNL     1       2.155   4.375  20.713  0.00  0.00    +0.000 A 
BRANCH  13  19
ATOM     19  O   UNL     1       1.567   2.617  22.176  0.00  0.00    +0.000 OA
ATOM     20  H   UNL     1       2.079   1.793  22.198  0.00  0.00    +0.000 HD
ENDBRANCH  13  19
ENDBRANCH  12  17
ENDBRANCH   1  12
TORSDOF 6
ENDMDL
MODEL 7
REMARK VINA RESULT:      -7.3      1.528      6.140
REMARK  Name = 
REMARK  6 active torsions:
REMARK  status: ('A' for Active; 'I' for Inactive)
REMARK    1  A    between atoms: O_1  and  C_2
REMARK    2  A    between atoms: C_6  and  C_7
REMARK    3  A    between atoms: C_7  and  C_8
REMARK    4  A    between atoms: C_8  and  C_9
REMARK    5  A    between atoms: C_11  and  O_12
REMARK    6  A    between atoms: C_14  and  O_15
REMARK                            x       y       z     vdW  Elec       q    Type
REMARK                         _______ _______ _______ _____ _____    ______ ____
ROOT
ATOM      1  C   UNL     1       3.235   6.268  17.834  0.00  0.00    +0.000 C 
ENDROOT
BRANCH   1   2
ATOM      2  C   UNL     1       4.719   5.983  17.800  0.00  0.00    +0.000 A 
ATOM      3  C   UNL     1       5.414   5.931  16.582  0.00  0.00    +0.000 A 
ATOM      4  C   UNL     1       6.787   5.677  16.576  0.00  0.00    +0.000 A 
ATOM      5  C   UNL     1       7.485   5.467  17.759  0.00  0.00    +0.000 A 
ATOM      6  C   UNL     1       6.793   5.510  18.964  0.00  0.00    +0.000 A 
ATOM      7  C   UNL     1       5.424   5.761  18.993  0.00  0.00    +0.000 A 
BRANCH   4   8
ATOM      8  O   UNL     1       7.493   5.627  15.410  0.00  0.00    +0.000 OA
ATOM      9  H   UNL     1       8.266   5.053  15.539  0.00  0.00    +0.000 HD
ENDBRANCH   4   8
BRANCH   6  10
ATOM     10  O   UNL     1       7.430   5.312  20.153  0.00  0.00    +0.000 OA
ATOM     11  H   UNL     1       6.828   5.572  20.869  0.00  0.00    +0.000 HD
ENDBRANCH   6  10
ENDBRANCH   1   2
BRANCH   1  12
ATOM     12  C   UNL     1       2.685   6.320  19.262  0.00  0.00    +0.000 C 
BRANCH  12  17
ATOM     13  C   UNL     1       1.156   2.829  19.279  0.00  0.00    +0.000 A 
ATOM     14  C   UNL     1       1.265   2.467  20.618  0.00  0.00    +0.000 A 
ATOM     15  C   UNL     1       1.828   3.366  21.523  0.00  0.00    +0.000 A 
ATOM     16  C   UNL     1       2.283   4.613  21.085  0.00  0.00    +0.000 A 
ATOM     17  C   UNL     1       2.185   4.973  19.733  0.00  0.00    +0.000 A 
ATOM     18  C   UNL     1       1.608   4.068  18.833  0.00  0.00    +0.000 A 
BRANCH  13  19
ATOM     19  O   UNL     1       0.609   1.981  18.360  0.00  0.00    +0.000 OA
ATOM     20  H   UNL     1       0.082   1.317  18.832  0.00  0.00    +0.000 HD
ENDBRANCH  13  19
ENDBRANCH  12  17
ENDBRANCH   1  12
TORSDOF 6
ENDMDL
MODEL 8
REMARK VINA RESULT:      -7.3      2.006      6.114
REMARK  Name = 
REMARK  6 active torsions:
REMARK  status: ('A' for Active; 'I' for Inactive)
REMARK    1  A    between atoms: O_1  and  C_2
REMARK    2  A    between atoms: C_6  and  C_7
REMARK    3  A    between atoms: C_7  and  C_8
REMARK    4  A    between atoms: C_8  and  C_9
REMARK    5  A    between atoms: C_11  and  O_12
REMARK    6  A    between atoms: C_14  and  O_15
REMARK                            x       y       z     vdW  Elec       q    Type
REMARK                         _______ _______ _______ _____ _____    ______ ____
ROOT
ATOM      1  C   UNL     1       4.452   4.901  17.224  0.00  0.00    +0.000 C 
ENDROOT
BRANCH   1   2
ATOM      2  C   UNL     1       5.699   5.558  17.771  0.00  0.00    +0.000 A 
ATOM      3  C   UNL     1       6.310   5.080  18.940  0.00  0.00    +0.000 A 
ATOM      4  C   UNL     1       7.467   5.696  19.421  0.00  0.00    +0.000 A 
ATOM      5  C   UNL     1       8.028   6.784  18.765  0.00  0.00    +0.000 A 
ATOM      6  C   UNL     1       7.416   7.263  17.613  0.00  0.00    +0.000 A 
ATOM      7  C   UNL     1       6.261   6.664  17.117  0.00  0.00    +0.000 A 
BRANCH   4   8
ATOM      8  O   UNL     1       8.090   5.250  20.550  0.00  0.00    +0.000 OA
ATOM      9  H   UNL     1       8.687   4.523  20.309  0.00  0.00    +0.000 HD
ENDBRANCH   4   8
BRANCH   6  10
ATOM     10  O   UNL     1       7.924   8.328  16.930  0.00  0.00    +0.000 OA
ATOM     11  H   UNL     1       7.240   8.661  16.327  0.00  0.00    +0.000 HD
ENDBRANCH   6  10
ENDBRANCH   1   2
BRANCH   1  12
ATOM     12  C   UNL     1       4.336   3.433  17.646  0.00  0.00    +0.000 C 
BRANCH  12  17
ATOM     13  C   UNL     1       2.301   2.864  20.817  0.00  0.00    +0.000 A 
ATOM     14  C   UNL     1       1.005   2.764  20.320  0.00  0.00    +0.000 A 
ATOM     15  C   UNL     1       0.791   2.871  18.946  0.00  0.00    +0.000 A 
ATOM     16  C   UNL     1       1.869   3.083  18.082  0.00  0.00    +0.000 A 
ATOM     17  C   UNL     1       3.174   3.196  18.583  0.00  0.00    +0.000 A 
ATOM     18  C   UNL     1       3.380   3.076  19.964  0.00  0.00    +0.000 A 
BRANCH  13  19
ATOM     19  O   UNL     1       2.554   2.762  22.153  0.00  0.00    +0.000 OA
ATOM     20  H   UNL     1       2.244   1.895  22.459  0.00  0.00    +0.000 HD
ENDBRANCH  13  19
ENDBRANCH  12  17
ENDBRANCH   1  12
TORSDOF 6
ENDMDL
MODEL 9
REMARK VINA RESULT:      -7.2      1.154      5.631
REMARK  Name = 
REMARK  6 active torsions:
REMARK  status: ('A' for Active; 'I' for Inactive)
REMARK    1  A    between atoms: O_1  and  C_2
REMARK    2  A    between atoms: C_6  and  C_7
REMARK    3  A    between atoms: C_7  and  C_8
REMARK    4  A    between atoms: C_8  and  C_9
REMARK    5  A    between atoms: C_11  and  O_12
REMARK    6  A    between atoms: C_14  and  O_15
REMARK                            x       y       z     vdW  Elec       q    Type
REMARK                         _______ _______ _______ _____ _____    ______ ____
ROOT
ATOM      1  C   UNL     1       4.075   6.461  18.412  0.00  0.00    +0.000 C 
ENDROOT
BRANCH   1   2
ATOM      2  C   UNL     1       5.066   5.691  17.570  0.00  0.00    +0.000 A 
ATOM      3  C   UNL     1       6.281   5.247  18.114  0.00  0.00    +0.000 A 
ATOM      4  C   UNL     1       7.177   4.528  17.320  0.00  0.00    +0.000 A 
ATOM      5  C   UNL     1       6.892   4.245  15.990  0.00  0.00    +0.000 A 
ATOM      6  C   UNL     1       5.693   4.694  15.450  0.00  0.00    +0.000 A 
ATOM      7  C   UNL     1       4.786   5.414  16.224  0.00  0.00    +0.000 A 
BRANCH   4   8
ATOM      8  O   UNL     1       8.362   4.075  17.821  0.00  0.00    +0.000 OA
ATOM      9  H   UNL     1       8.972   3.917  17.082  0.00  0.00    +0.000 HD
ENDBRANCH   4   8
BRANCH   6  10
ATOM     10  O   UNL     1       5.363   4.444  14.151  0.00  0.00    +0.000 OA
ATOM     11  H   UNL     1       4.405   4.565  14.049  0.00  0.00    +0.000 HD
ENDBRANCH   6  10
ENDBRANCH   1   2
BRANCH   1  12
ATOM     12  C   UNL     1       2.625   6.107  18.072  0.00  0.00    +0.000 C 
BRANCH  12  17
ATOM     13  C   UNL     1       1.958   3.548  20.816  0.00  0.00    +0.000 A 
ATOM     14  C   UNL     1       1.263   2.557  20.131  0.00  0.00    +0.000 A 
ATOM     15  C   UNL     1       1.019   2.714  18.767  0.00  0.00    +0.000 A 
ATOM     16  C   UNL     1       1.463   3.860  18.101  0.00  0.00    +0.000 A 
ATOM     17  C   UNL     1       2.153   4.866  18.794  0.00  0.00    +0.000 A 
ATOM     18  C   UNL     1       2.403   4.694  20.162  0.00  0.00    +0.000 A 
BRANCH  13  19
ATOM     19  O   UNL     1       2.220   3.433  22.150  0.00  0.00    +0.000 OA
ATOM     20  H   UNL     1       3.022   3.941  22.350  0.00  0.00    +0.000 HD
ENDBRANCH  13  19
ENDBRANCH  12  17
ENDBRANCH   1  12
TORSDOF 6
ENDMDL
