MODEL 1
REMARK VINA RESULT:      -7.3      0.000      0.000
REMARK  Name = 
REMARK  2 active torsions:
REMARK  status: ('A' for Active; 'I' for Inactive)
REMARK    1  A    between atoms: C_6  and  C_7
REMARK    2  A    between atoms: N_8  and  C_9
REMARK                            x       y       z     vdW  Elec       q    Type
REMARK                         _______ _______ _______ _____ _____    ______ ____
ROOT
ATOM      1  O   UNL     1       1.624   2.449  22.393  0.00  0.00    +0.000 OA
ATOM      2  C   UNL     1       1.680   3.070  21.338  0.00  0.00    +0.000 C 
ATOM      3  N   UNL     1       1.968   4.398  21.306  0.00  0.00    +0.000 N 
ATOM      4  C   UNL     1       1.928   5.200  20.204  0.00  0.00    +0.000 C 
ATOM      5  O   UNL     1       2.013   6.424  20.316  0.00  0.00    +0.000 OA
ATOM      6  C   UNL     1       1.761   4.534  18.872  0.00  0.00    +0.000 C 
ATOM      7  C   UNL     1       1.365   3.089  18.931  0.00  0.00    +0.000 C 
ATOM      8  O   UNL     1       1.018   2.467  17.927  0.00  0.00    +0.000 OA
ATOM      9  N   UNL     1       1.410   2.474  20.146  0.00  0.00    +0.000 N 
ATOM     10  H   UNL     1       2.104   4.851  22.198  0.00  0.00    +0.000 HD
ATOM     11  H   UNL     1       1.159   1.495  20.178  0.00  0.00    +0.000 HD
ENDROOT
BRANCH   6  12
ATOM     12  C   UNL     1       2.971   4.707  18.002  0.00  0.00    +0.000 C 
ATOM     13  N   UNL     1       4.125   4.262  18.381  0.00  0.00    +0.000 NA
BRANCH  13  14
ATOM     14  C   UNL     1       5.235   4.403  17.525  0.00  0.00    +0.000 A 
ATOM     15  C   UNL     1       6.539   4.611  17.975  0.00  0.00    +0.000 A 
ATOM     16  C   UNL     1       7.556   4.716  17.040  0.00  0.00    +0.000 A 
ATOM     17  N   UNL     1       7.368   4.607  15.709  0.00  0.00    +0.000 NA
ATOM     18  C   UNL     1       6.105   4.377  15.296  0.00  0.00    +0.000 A 
ATOM     19  C   UNL     1       5.022   4.270  16.155  0.00  0.00    +0.000 A 
ENDBRANCH  13  14
ENDBRANCH   6  12
TORSDOF 2
ENDMDL
MODEL 2
REMARK VINA RESULT:      -7.3      3.158      6.286
REMARK  Name = 
REMARK  2 active torsions:
REMARK  status: ('A' for Active; 'I' for Inactive)
REMARK    1  A    between atoms: C_6  and  C_7
REMARK    2  A    between atoms: N_8  and  C_9
REMARK                            x       y       z     vdW  Elec       q    Type
REMARK                         _______ _______ _______ _____ _____    ______ ____
ROOT
ATOM      1  O   UNL     1       8.077   8.635  17.285  0.00  0.00    +0.000 OA
ATOM      2  C   UNL     1       7.741   7.479  17.516  0.00  0.00    +0.000 C 
ATOM      3  N   UNL     1       7.823   6.949  18.764  0.00  0.00    +0.000 N 
ATOM      4  C   UNL     1       7.599   5.646  19.098  0.00  0.00    +0.000 C 
ATOM      5  O   UNL     1       7.890   5.226  20.218  0.00  0.00    +0.000 OA
ATOM      6  C   UNL     1       7.003   4.759  18.047  0.00  0.00    +0.000 C 
ATOM      7  C   UNL     1       6.996   5.332  16.662  0.00  0.00    +0.000 C 
ATOM      8  O   UNL     1       6.709   4.653  15.677  0.00  0.00    +0.000 OA
ATOM      9  N   UNL     1       7.314   6.651  16.527  0.00  0.00    +0.000 N 
ATOM     10  H   UNL     1       8.203   7.548  19.484  0.00  0.00    +0.000 HD
ATOM     11  H   UNL     1       7.290   7.038  15.593  0.00  0.00    +0.000 HD
ENDROOT
BRANCH   6  12
ATOM     12  C   UNL     1       5.629   4.286  18.423  0.00  0.00    +0.000 C 
ATOM     13  N   UNL     1       4.672   5.134  18.621  0.00  0.00    +0.000 NA
BRANCH  13  14
ATOM     14  C   UNL     1       3.383   4.659  18.932  0.00  0.00    +0.000 A 
ATOM     15  C   UNL     1       2.592   3.927  18.047  0.00  0.00    +0.000 A 
ATOM     16  C   UNL     1       1.345   3.496  18.471  0.00  0.00    +0.000 A 
ATOM     17  N   UNL     1       0.851   3.722  19.705  0.00  0.00    +0.000 NA
ATOM     18  C   UNL     1       1.643   4.407  20.555  0.00  0.00    +0.000 A 
ATOM     19  C   UNL     1       2.898   4.888  20.218  0.00  0.00    +0.000 A 
ENDBRANCH  13  14
ENDBRANCH   6  12
TORSDOF 2
ENDMDL
MODEL 3
REMARK VINA RESULT:      -7.3      3.503      6.215
REMARK  Name = 
REMARK  2 active torsions:
REMARK  status: ('A' for Active; 'I' for Inactive)
REMARK    1  A    between atoms: C_6  and  C_7
REMARK    2  A    between atoms: N_8  and  C_9
REMARK                            x       y       z     vdW  Elec       q    Type
REMARK                         _______ _______ _______ _____ _____    ______ ____
ROOT
ATOM      1  O   UNL     1       8.040   9.022  17.763  0.00  0.00    +0.000 OA
ATOM      2  C   UNL     1       7.855   7.811  17.761  0.00  0.00    +0.000 C 
ATOM      3  N   UNL     1       7.926   7.077  18.902  0.00  0.00    +0.000 N 
ATOM      4  C   UNL     1       7.864   5.717  18.985  0.00  0.00    +0.000 C 
ATOM      5  O   UNL     1       8.136   5.140  20.038  0.00  0.00    +0.000 OA
ATOM      6  C   UNL     1       7.471   4.969  17.748  0.00  0.00    +0.000 C 
ATOM      7  C   UNL     1       7.476   5.780  16.487  0.00  0.00    +0.000 C 
ATOM      8  O   UNL     1       7.354   5.261  15.377  0.00  0.00    +0.000 OA
ATOM      9  N   UNL     1       7.615   7.130  16.609  0.00  0.00    +0.000 N 
ATOM     10  H   UNL     1       8.169   7.577  19.745  0.00  0.00    +0.000 HD
ATOM     11  H   UNL     1       7.600   7.675  15.758  0.00  0.00    +0.000 HD
ENDROOT
BRANCH   6  12
ATOM     12  C   UNL     1       6.154   4.266  17.910  0.00  0.00    +0.000 C 
ATOM     13  N   UNL     1       5.046   4.870  17.626  0.00  0.00    +0.000 NA
BRANCH  13  14
ATOM     14  C   UNL     1       3.829   4.173  17.749  0.00  0.00    +0.000 A 
ATOM     15  C   UNL     1       3.736   2.784  17.830  0.00  0.00    +0.000 A 
ATOM     16  C   UNL     1       2.483   2.209  17.968  0.00  0.00    +0.000 A 
ATOM     17  N   UNL     1       1.337   2.914  18.053  0.00  0.00    +0.000 NA
ATOM     18  C   UNL     1       1.451   4.257  18.002  0.00  0.00    +0.000 A 
ATOM     19  C   UNL     1       2.658   4.921  17.852  0.00  0.00    +0.000 A 
ENDBRANCH  13  14
ENDBRANCH   6  12
TORSDOF 2
ENDMDL
MODEL 4
REMARK VINA RESULT:      -7.3      0.726      1.182
REMARK  Name = 
REMARK  2 active torsions:
REMARK  status: ('A' for Active; 'I' for Inactive)
REMARK    1  A    between atoms: C_6  and  C_7
REMARK    2  A    between atoms: N_8  and  C_9
REMARK                            x       y       z     vdW  Elec       q    Type
REMARK                         _______ _______ _______ _____ _____    ______ ____
ROOT
ATOM      1  O   UNL     1       1.880   2.315  22.205  0.00  0.00    +0.000 OA
ATOM      2  C   UNL     1       1.902   3.029  21.209  0.00  0.00    +0.000 C 
ATOM      3  N   UNL     1       2.003   4.381  21.304  0.00  0.00    +0.000 N 
ATOM      4  C   UNL     1       1.906   5.266  20.270  0.00  0.00    +0.000 C 
ATOM      5  O   UNL     1       1.814   6.475  20.487  0.00  0.00    +0.000 OA
ATOM      6  C   UNL     1       1.900   4.705  18.881  0.00  0.00    +0.000 C 
ATOM      7  C   UNL     1       1.706   3.220  18.797  0.00  0.00    +0.000 C 
ATOM      8  O   UNL     1       1.499   2.649  17.727  0.00  0.00    +0.000 OA
ATOM      9  N   UNL     1       1.777   2.511  19.959  0.00  0.00    +0.000 N 
ATOM     10  H   UNL     1       2.030   4.767  22.237  0.00  0.00    +0.000 HD
ATOM     11  H   UNL     1       1.663   1.509  19.895  0.00  0.00    +0.000 HD
ENDROOT
BRANCH   6  12
ATOM     12  C   UNL     1       3.116   5.117  18.103  0.00  0.00    +0.000 C 
ATOM     13  N   UNL     1       4.205   4.422  18.168  0.00  0.00    +0.000 NA
BRANCH  13  14
ATOM     14  C   UNL     1       5.317   4.810  17.395  0.00  0.00    +0.000 A 
ATOM     15  C   UNL     1       5.725   4.147  16.238  0.00  0.00    +0.000 A 
ATOM     16  C   UNL     1       6.825   4.631  15.547  0.00  0.00    +0.000 A 
ATOM     17  N   UNL     1       7.521   5.726  15.914  0.00  0.00    +0.000 NA
ATOM     18  C   UNL     1       7.093   6.369  17.020  0.00  0.00    +0.000 A 
ATOM     19  C   UNL     1       6.012   5.954  17.781  0.00  0.00    +0.000 A 
ENDBRANCH  13  14
ENDBRANCH   6  12
TORSDOF 2
ENDMDL
MODEL 5
REMARK VINA RESULT:      -7.1      3.239      6.300
REMARK  Name = 
REMARK  2 active torsions:
REMARK  status: ('A' for Active; 'I' for Inactive)
REMARK    1  A    between atoms: C_6  and  C_7
REMARK    2  A    between atoms: N_8  and  C_9
REMARK                            x       y       z     vdW  Elec       q    Type
REMARK                         _______ _______ _______ _____ _____    ______ ____
ROOT
ATOM      1  O   UNL     1       7.993   8.794  17.407  0.00  0.00    +0.000 OA
ATOM      2  C   UNL     1       7.686   7.624  17.597  0.00  0.00    +0.000 C 
ATOM      3  N   UNL     1       8.021   6.977  18.744  0.00  0.00    +0.000 N 
ATOM      4  C   UNL     1       7.840   5.648  18.997  0.00  0.00    +0.000 C 
ATOM      5  O   UNL     1       8.355   5.122  19.984  0.00  0.00    +0.000 OA
ATOM      6  C   UNL     1       7.012   4.868  18.022  0.00  0.00    +0.000 C 
ATOM      7  C   UNL     1       6.722   5.571  16.730  0.00  0.00    +0.000 C 
ATOM      8  O   UNL     1       6.213   4.991  15.772  0.00  0.00    +0.000 OA
ATOM      9  N   UNL     1       7.036   6.896  16.652  0.00  0.00    +0.000 N 
ATOM     10  H   UNL     1       8.561   7.502  19.417  0.00  0.00    +0.000 HD
ATOM     11  H   UNL     1       6.822   7.370  15.785  0.00  0.00    +0.000 HD
ENDROOT
BRANCH   6  12
ATOM     12  C   UNL     1       5.738   4.368  18.640  0.00  0.00    +0.000 C 
ATOM     13  N   UNL     1       4.778   5.187  18.925  0.00  0.00    +0.000 NA
BRANCH  13  14
ATOM     14  C   UNL     1       3.579   4.684  19.466  0.00  0.00    +0.000 A 
ATOM     15  C   UNL     1       2.638   5.472  20.128  0.00  0.00    +0.000 A 
ATOM     16  C   UNL     1       1.484   4.870  20.603  0.00  0.00    +0.000 A 
ATOM     17  N   UNL     1       1.199   3.561  20.446  0.00  0.00    +0.000 NA
ATOM     18  C   UNL     1       2.109   2.823  19.779  0.00  0.00    +0.000 A 
ATOM     19  C   UNL     1       3.296   3.333  19.278  0.00  0.00    +0.000 A 
ENDBRANCH  13  14
ENDBRANCH   6  12
TORSDOF 2
ENDMDL
MODEL 6
REMARK VINA RESULT:      -7.0      3.425      6.386
REMARK  Name = 
REMARK  2 active torsions:
REMARK  status: ('A' for Active; 'I' for Inactive)
REMARK    1  A    between atoms: C_6  and  C_7
REMARK    2  A    between atoms: N_8  and  C_9
REMARK                            x       y       z     vdW  Elec       q    Type
REMARK                         _______ _______ _______ _____ _____    ______ ____
ROOT
ATOM      1  O   UNL     1       8.626   9.204  18.034  0.00  0.00    +0.000 OA
ATOM      2  C   UNL     1       8.073   8.111  18.018  0.00  0.00    +0.000 C 
ATOM      3  N   UNL     1       8.295   7.186  18.989  0.00  0.00    +0.000 N 
ATOM      4  C   UNL     1       7.832   5.902  18.993  0.00  0.00    +0.000 C 
ATOM      5  O   UNL     1       8.250   5.088  19.816  0.00  0.00    +0.000 OA
ATOM      6  C   UNL     1       6.818   5.533  17.954  0.00  0.00    +0.000 C 
ATOM      7  C   UNL     1       6.647   6.532  16.849  0.00  0.00    +0.000 C 
ATOM      8  O   UNL     1       5.990   6.282  15.839  0.00  0.00    +0.000 OA
ATOM      9  N   UNL     1       7.245   7.747  17.004  0.00  0.00    +0.000 N 
ATOM     10  H   UNL     1       8.960   7.435  19.706  0.00  0.00    +0.000 HD
ATOM     11  H   UNL     1       7.113   8.424  16.265  0.00  0.00    +0.000 HD
ENDROOT
BRANCH   6  12
ATOM     12  C   UNL     1       5.487   5.196  18.562  0.00  0.00    +0.000 C 
ATOM     13  N   UNL     1       5.048   3.979  18.553  0.00  0.00    +0.000 NA
BRANCH  13  14
ATOM     14  C   UNL     1       3.815   3.686  19.167  0.00  0.00    +0.000 A 
ATOM     15  C   UNL     1       3.672   2.802  20.236  0.00  0.00    +0.000 A 
ATOM     16  C   UNL     1       2.410   2.605  20.772  0.00  0.00    +0.000 A 
ATOM     17  N   UNL     1       1.301   3.237  20.336  0.00  0.00    +0.000 NA
ATOM     18  C   UNL     1       1.465   4.110  19.321  0.00  0.00    +0.000 A 
ATOM     19  C   UNL     1       2.685   4.362  18.713  0.00  0.00    +0.000 A 
ENDBRANCH  13  14
ENDBRANCH   6  12
TORSDOF 2
ENDMDL
MODEL 7
REMARK VINA RESULT:      -7.0      2.905      6.162
REMARK  Name = 
REMARK  2 active torsions:
REMARK  status: ('A' for Active; 'I' for Inactive)
REMARK    1  A    between atoms: C_6  and  C_7
REMARK    2  A    between atoms: N_8  and  C_9
REMARK                            x       y       z     vdW  Elec       q    Type
REMARK                         _______ _______ _______ _____ _____    ______ ____
ROOT
ATOM      1  O   UNL     1       6.960   4.370  14.235  0.00  0.00    +0.000 OA
ATOM      2  C   UNL     1       6.671   4.836  15.331  0.00  0.00    +0.000 C 
ATOM      3  N   UNL     1       5.675   5.748  15.477  0.00  0.00    +0.000 N 
ATOM      4  C   UNL     1       5.364   6.418  16.625  0.00  0.00    +0.000 C 
ATOM      5  O   UNL     1       4.576   7.364  16.604  0.00  0.00    +0.000 OA
ATOM      6  C   UNL     1       6.028   5.965  17.888  0.00  0.00    +0.000 C 
ATOM      7  C   UNL     1       7.177   5.020  17.698  0.00  0.00    +0.000 C 
ATOM      8  O   UNL     1       7.927   4.710  18.624  0.00  0.00    +0.000 OA
ATOM      9  N   UNL     1       7.363   4.501  16.452  0.00  0.00    +0.000 N 
ATOM     10  H   UNL     1       5.206   6.043  14.633  0.00  0.00    +0.000 HD
ATOM     11  H   UNL     1       8.128   3.851  16.332  0.00  0.00    +0.000 HD
ENDROOT
BRANCH   6  12
ATOM     12  C   UNL     1       5.044   5.397  18.869  0.00  0.00    +0.000 C 
ATOM     13  N   UNL     1       4.151   4.542  18.486  0.00  0.00    +0.000 NA
BRANCH  13  14
ATOM     14  C   UNL     1       3.266   3.996  19.436  0.00  0.00    +0.000 A 
ATOM     15  C   UNL     1       3.573   2.897  20.239  0.00  0.00    +0.000 A 
ATOM     16  C   UNL     1       2.630   2.458  21.153  0.00  0.00    +0.000 A 
ATOM     17  N   UNL     1       1.429   3.043  21.335  0.00  0.00    +0.000 NA
ATOM     18  C   UNL     1       1.163   4.121  20.569  0.00  0.00    +0.000 A 
ATOM     19  C   UNL     1       2.038   4.626  19.620  0.00  0.00    +0.000 A 
ENDBRANCH  13  14
ENDBRANCH   6  12
TORSDOF 2
ENDMDL
MODEL 8
REMARK VINA RESULT:      -7.0      2.869      6.260
REMARK  Name = 
REMARK  2 active torsions:
REMARK  status: ('A' for Active; 'I' for Inactive)
REMARK    1  A    between atoms: C_6  and  C_7
REMARK    2  A    between atoms: N_8  and  C_9
REMARK                            x       y       z     vdW  Elec       q    Type
REMARK                         _______ _______ _______ _____ _____    ______ ____
ROOT
ATOM      1  O   UNL     1       7.018   4.588  13.916  0.00  0.00    +0.000 OA
ATOM      2  C   UNL     1       6.684   4.952  15.038  0.00  0.00    +0.000 C 
ATOM      3  N   UNL     1       5.704   5.875  15.225  0.00  0.00    +0.000 N 
ATOM      4  C   UNL     1       5.351   6.438  16.416  0.00  0.00    +0.000 C 
ATOM      5  O   UNL     1       4.589   7.405  16.451  0.00  0.00    +0.000 OA
ATOM      6  C   UNL     1       5.937   5.843  17.660  0.00  0.00    +0.000 C 
ATOM      7  C   UNL     1       7.070   4.887  17.433  0.00  0.00    +0.000 C 
ATOM      8  O   UNL     1       7.763   4.465  18.359  0.00  0.00    +0.000 OA
ATOM      9  N   UNL     1       7.308   4.488  16.152  0.00  0.00    +0.000 N 
ATOM     10  H   UNL     1       5.287   6.266  14.392  0.00  0.00    +0.000 HD
ATOM     11  H   UNL     1       8.062   3.830  16.006  0.00  0.00    +0.000 HD
ENDROOT
BRANCH   6  12
ATOM     12  C   UNL     1       4.889   5.211  18.529  0.00  0.00    +0.000 C 
ATOM     13  N   UNL     1       3.807   4.728  18.011  0.00  0.00    +0.000 NA
BRANCH  13  14
ATOM     14  C   UNL     1       2.860   4.105  18.846  0.00  0.00    +0.000 A 
ATOM     15  C   UNL     1       1.897   3.204  18.390  0.00  0.00    +0.000 A 
ATOM     16  C   UNL     1       1.028   2.638  19.308  0.00  0.00    +0.000 A 
ATOM     17  N   UNL     1       1.067   2.886  20.632  0.00  0.00    +0.000 NA
ATOM     18  C   UNL     1       2.024   3.737  21.057  0.00  0.00    +0.000 A 
ATOM     19  C   UNL     1       2.928   4.361  20.214  0.00  0.00    +0.000 A 
ENDBRANCH  13  14
ENDBRANCH   6  12
TORSDOF 2
ENDMDL
MODEL 9
REMARK VINA RESULT:      -6.9      3.125      5.201
REMARK  Name = 
REMARK  2 active torsions:
REMARK  status: ('A' for Active; 'I' for Inactive)
REMARK    1  A    between atoms: C_6  and  C_7
REMARK    2  A    between atoms: N_8  and  C_9
REMARK                            x       y       z     vdW  Elec       q    Type
REMARK                         _______ _______ _______ _____ _____    ______ ____
ROOT
ATOM      1  O   UNL     1       4.867   1.763  20.513  0.00  0.00    +0.000 OA
ATOM      2  C   UNL     1       4.600   2.568  19.629  0.00  0.00    +0.000 C 
ATOM      3  N   UNL     1       3.459   2.471  18.897  0.00  0.00    +0.000 N 
ATOM      4  C   UNL     1       3.134   3.233  17.814  0.00  0.00    +0.000 C 
ATOM      5  O   UNL     1       2.173   2.937  17.104  0.00  0.00    +0.000 OA
ATOM      6  C   UNL     1       3.999   4.422  17.524  0.00  0.00    +0.000 C 
ATOM      7  C   UNL     1       5.291   4.467  18.284  0.00  0.00    +0.000 C 
ATOM      8  O   UNL     1       6.177   5.279  18.017  0.00  0.00    +0.000 OA
ATOM      9  N   UNL     1       5.454   3.572  19.299  0.00  0.00    +0.000 N 
ATOM     10  H   UNL     1       2.858   1.685  19.101  0.00  0.00    +0.000 HD
ATOM     11  H   UNL     1       6.319   3.618  19.820  0.00  0.00    +0.000 HD
ENDROOT
BRANCH   6  12
ATOM     12  C   UNL     1       3.254   5.714  17.688  0.00  0.00    +0.000 C 
ATOM     13  N   UNL     1       3.057   6.217  18.863  0.00  0.00    +0.000 NA
BRANCH  13  14
ATOM     14  C   UNL     1       2.390   7.451  18.984  0.00  0.00    +0.000 A 
ATOM     15  C   UNL     1       2.226   8.350  17.930  0.00  0.00    +0.000 A 
ATOM     16  C   UNL     1       1.533   9.527  18.161  0.00  0.00    +0.000 A 
ATOM     17  N   UNL     1       0.982   9.854  19.348  0.00  0.00    +0.000 NA
ATOM     18  C   UNL     1       1.127   8.959  20.346  0.00  0.00    +0.000 A 
ATOM     19  C   UNL     1       1.813   7.762  20.213  0.00  0.00    +0.000 A 
ENDBRANCH  13  14
ENDBRANCH   6  12
TORSDOF 2
ENDMDL
