MODEL 1
REMARK VINA RESULT:      -9.5      0.000      0.000
REMARK  Name = 
REMARK  5 active torsions:
REMARK  status: ('A' for Active; 'I' for Inactive)
REMARK    1  A    between atoms: O_1  and  C_2
REMARK    2  A    between atoms: C_6  and  N_7
REMARK    3  A    between atoms: N_7  and  C_8
REMARK    4  A    between atoms: N_11  and  C_12
REMARK    5  A    between atoms: C_12  and  C_13
REMARK                            x       y       z     vdW  Elec       q    Type
REMARK                         _______ _______ _______ _____ _____    ______ ____
ROOT
ATOM      1  C   UNL     1       6.599   4.939  18.262  0.00  0.00    +0.000 A 
ATOM      2  N   UNL     1       7.245   6.040  18.736  0.00  0.00    +0.000 NA
ATOM      3  C   UNL     1       7.710   6.979  17.898  0.00  0.00    +0.000 A 
ATOM      4  N   UNL     1       8.157   8.114  18.520  0.00  0.00    +0.000 N 
ATOM      5  N   UNL     1       7.706   6.905  16.558  0.00  0.00    +0.000 NA
ATOM      6  C   UNL     1       7.175   5.757  16.123  0.00  0.00    +0.000 A 
ATOM      7  N   UNL     1       7.055   5.355  14.826  0.00  0.00    +0.000 N 
ATOM      8  C   UNL     1       6.418   4.143  14.830  0.00  0.00    +0.000 A 
ATOM      9  N   UNL     1       6.114   3.750  16.052  0.00  0.00    +0.000 NA
ATOM     10  C   UNL     1       6.605   4.746  16.873  0.00  0.00    +0.000 A 
ATOM     11  H   UNL     1       8.820   7.913  19.254  0.00  0.00    +0.000 HD
ATOM     12  H   UNL     1       7.380   5.873  14.025  0.00  0.00    +0.000 HD
ENDROOT
BRANCH   1  13
ATOM     13  N   UNL     1       5.941   4.064  19.152  0.00  0.00    +0.000 N 
ATOM     14  H   UNL     1       6.405   3.159  19.155  0.00  0.00    +0.000 HD
BRANCH  13  19
ATOM     15  C   UNL     1       2.477   2.663  19.077  0.00  0.00    +0.000 A 
ATOM     16  C   UNL     1       1.733   3.757  19.501  0.00  0.00    +0.000 A 
ATOM     17  C   UNL     1       2.393   4.942  19.829  0.00  0.00    +0.000 A 
ATOM     18  C   UNL     1       3.786   5.026  19.722  0.00  0.00    +0.000 A 
ATOM     19  C   UNL     1       4.534   3.940  19.253  0.00  0.00    +0.000 A 
ATOM     20  C   UNL     1       3.861   2.745  18.959  0.00  0.00    +0.000 A 
BRANCH  15  21
ATOM     21  O   UNL     1       1.879   1.476  18.764  0.00  0.00    +0.000 OA
ATOM     22  H   UNL     1       2.559   0.785  18.736  0.00  0.00    +0.000 HD
ENDBRANCH  15  21
ENDBRANCH  13  19
ENDBRANCH   1  13
BRANCH   4  23
ATOM     23  C   UNL     1       8.284   9.331  17.773  0.00  0.00    +0.000 C 
BRANCH  23  24
ATOM     24  C   UNL     1       9.215  10.261  18.533  0.00  0.00    +0.000 A 
ATOM     25  C   UNL     1      10.156  11.041  17.851  0.00  0.00    +0.000 A 
ATOM     26  C   UNL     1      11.014  11.887  18.560  0.00  0.00    +0.000 A 
ATOM     27  C   UNL     1      10.936  11.965  19.950  0.00  0.00    +0.000 A 
ATOM     28  C   UNL     1       9.992  11.203  20.636  0.00  0.00    +0.000 A 
ATOM     29  C   UNL     1       9.135  10.358  19.930  0.00  0.00    +0.000 A 
ENDBRANCH  23  24
ENDBRANCH   4  23
TORSDOF 5
ENDMDL
MODEL 2
REMARK VINA RESULT:      -9.2      1.089      1.445
REMARK  Name = 
REMARK  5 active torsions:
REMARK  status: ('A' for Active; 'I' for Inactive)
REMARK    1  A    between atoms: O_1  and  C_2
REMARK    2  A    between atoms: C_6  and  N_7
REMARK    3  A    between atoms: N_7  and  C_8
REMARK    4  A    between atoms: N_11  and  C_12
REMARK    5  A    between atoms: C_12  and  C_13
REMARK                            x       y       z     vdW  Elec       q    Type
REMARK                         _______ _______ _______ _____ _____    ______ ____
ROOT
ATOM      1  C   UNL     1       6.547   4.829  18.149  0.00  0.00    +0.000 A 
ATOM      2  N   UNL     1       7.214   5.914  18.631  0.00  0.00    +0.000 NA
ATOM      3  C   UNL     1       7.637   6.883  17.806  0.00  0.00    +0.000 A 
ATOM      4  N   UNL     1       8.112   7.997  18.445  0.00  0.00    +0.000 N 
ATOM      5  N   UNL     1       7.568   6.857  16.465  0.00  0.00    +0.000 NA
ATOM      6  C   UNL     1       7.018   5.724  16.016  0.00  0.00    +0.000 A 
ATOM      7  N   UNL     1       6.836   5.368  14.712  0.00  0.00    +0.000 N 
ATOM      8  C   UNL     1       6.202   4.155  14.704  0.00  0.00    +0.000 A 
ATOM      9  N   UNL     1       5.957   3.718  15.924  0.00  0.00    +0.000 NA
ATOM     10  C   UNL     1       6.486   4.686  16.755  0.00  0.00    +0.000 A 
ATOM     11  H   UNL     1       8.810   7.772  19.139  0.00  0.00    +0.000 HD
ATOM     12  H   UNL     1       7.122   5.916  13.915  0.00  0.00    +0.000 HD
ENDROOT
BRANCH   1  13
ATOM     13  N   UNL     1       5.933   3.921  19.038  0.00  0.00    +0.000 N 
ATOM     14  H   UNL     1       6.219   2.970  18.814  0.00  0.00    +0.000 HD
BRANCH  13  19
ATOM     15  C   UNL     1       2.602   5.223  20.121  0.00  0.00    +0.000 A 
ATOM     16  C   UNL     1       1.864   4.049  20.196  0.00  0.00    +0.000 A 
ATOM     17  C   UNL     1       2.474   2.839  19.864  0.00  0.00    +0.000 A 
ATOM     18  C   UNL     1       3.817   2.812  19.469  0.00  0.00    +0.000 A 
ATOM     19  C   UNL     1       4.577   3.988  19.435  0.00  0.00    +0.000 A 
ATOM     20  C   UNL     1       3.940   5.200  19.739  0.00  0.00    +0.000 A 
BRANCH  15  21
ATOM     21  O   UNL     1       2.044   6.433  20.417  0.00  0.00    +0.000 OA
ATOM     22  H   UNL     1       2.309   6.684  21.315  0.00  0.00    +0.000 HD
ENDBRANCH  15  21
ENDBRANCH  13  19
ENDBRANCH   1  13
BRANCH   4  23
ATOM     23  C   UNL     1       8.202   9.240  17.737  0.00  0.00    +0.000 C 
BRANCH  23  24
ATOM     24  C   UNL     1       9.136  10.160  18.505  0.00  0.00    +0.000 A 
ATOM     25  C   UNL     1      10.097  10.922  17.833  0.00  0.00    +0.000 A 
ATOM     26  C   UNL     1      10.959  11.759  18.550  0.00  0.00    +0.000 A 
ATOM     27  C   UNL     1      10.863  11.844  19.939  0.00  0.00    +0.000 A 
ATOM     28  C   UNL     1       9.899  11.099  20.615  0.00  0.00    +0.000 A 
ATOM     29  C   UNL     1       9.039  10.264  19.901  0.00  0.00    +0.000 A 
ENDBRANCH  23  24
ENDBRANCH   4  23
TORSDOF 5
ENDMDL
MODEL 3
REMARK VINA RESULT:      -8.9      0.913      1.345
REMARK  Name = 
REMARK  5 active torsions:
REMARK  status: ('A' for Active; 'I' for Inactive)
REMARK    1  A    between atoms: O_1  and  C_2
REMARK    2  A    between atoms: C_6  and  N_7
REMARK    3  A    between atoms: N_7  and  C_8
REMARK    4  A    between atoms: N_11  and  C_12
REMARK    5  A    between atoms: C_12  and  C_13
REMARK                            x       y       z     vdW  Elec       q    Type
REMARK                         _______ _______ _______ _____ _____    ______ ____
ROOT
ATOM      1  C   UNL     1       6.310   4.730  18.059  0.00  0.00    +0.000 A 
ATOM      2  N   UNL     1       6.961   5.817  18.558  0.00  0.00    +0.000 NA
ATOM      3  C   UNL     1       7.494   6.736  17.739  0.00  0.00    +0.000 A 
ATOM      4  N   UNL     1       7.940   7.865  18.374  0.00  0.00    +0.000 N 
ATOM      5  N   UNL     1       7.555   6.651  16.400  0.00  0.00    +0.000 NA
ATOM      6  C   UNL     1       7.015   5.515  15.947  0.00  0.00    +0.000 A 
ATOM      7  N   UNL     1       6.951   5.105  14.648  0.00  0.00    +0.000 N 
ATOM      8  C   UNL     1       6.282   3.912  14.628  0.00  0.00    +0.000 A 
ATOM      9  N   UNL     1       5.905   3.537  15.835  0.00  0.00    +0.000 NA
ATOM     10  C   UNL     1       6.381   4.526  16.673  0.00  0.00    +0.000 A 
ATOM     11  H   UNL     1       8.559   7.652  19.142  0.00  0.00    +0.000 HD
ATOM     12  H   UNL     1       7.330   5.608  13.861  0.00  0.00    +0.000 HD
ENDROOT
BRANCH   1  13
ATOM     13  N   UNL     1       5.584   3.881  18.920  0.00  0.00    +0.000 N 
ATOM     14  H   UNL     1       5.899   2.920  18.805  0.00  0.00    +0.000 HD
BRANCH  13  19
ATOM     15  C   UNL     1       1.903   4.088  18.312  0.00  0.00    +0.000 A 
ATOM     16  C   UNL     1       1.414   4.095  19.613  0.00  0.00    +0.000 A 
ATOM     17  C   UNL     1       2.311   4.007  20.677  0.00  0.00    +0.000 A 
ATOM     18  C   UNL     1       3.687   3.923  20.434  0.00  0.00    +0.000 A 
ATOM     19  C   UNL     1       4.187   3.961  19.127  0.00  0.00    +0.000 A 
ATOM     20  C   UNL     1       3.271   4.015  18.066  0.00  0.00    +0.000 A 
BRANCH  15  21
ATOM     21  O   UNL     1       1.063   4.152  17.237  0.00  0.00    +0.000 OA
ATOM     22  H   UNL     1       0.291   4.685  17.480  0.00  0.00    +0.000 HD
ENDBRANCH  15  21
ENDBRANCH  13  19
ENDBRANCH   1  13
BRANCH   4  23
ATOM     23  C   UNL     1       8.138   9.071  17.627  0.00  0.00    +0.000 C 
BRANCH  23  24
ATOM     24  C   UNL     1       9.000  10.009  18.455  0.00  0.00    +0.000 A 
ATOM     25  C   UNL     1       8.930   9.994  19.852  0.00  0.00    +0.000 A 
ATOM     26  C   UNL     1       9.722  10.867  20.605  0.00  0.00    +0.000 A 
ATOM     27  C   UNL     1      10.590  11.754  19.971  0.00  0.00    +0.000 A 
ATOM     28  C   UNL     1      10.677  11.766  18.580  0.00  0.00    +0.000 A 
ATOM     29  C   UNL     1       9.887  10.895  17.827  0.00  0.00    +0.000 A 
ENDBRANCH  23  24
ENDBRANCH   4  23
TORSDOF 5
ENDMDL
MODEL 4
REMARK VINA RESULT:      -8.8      4.507      7.542
REMARK  Name = 
REMARK  5 active torsions:
REMARK  status: ('A' for Active; 'I' for Inactive)
REMARK    1  A    between atoms: O_1  and  C_2
REMARK    2  A    between atoms: C_6  and  N_7
REMARK    3  A    between atoms: N_7  and  C_8
REMARK    4  A    between atoms: N_11  and  C_12
REMARK    5  A    between atoms: C_12  and  C_13
REMARK                            x       y       z     vdW  Elec       q    Type
REMARK                         _______ _______ _______ _____ _____    ______ ____
ROOT
ATOM      1  C   UNL     1       3.104   5.393  18.771  0.00  0.00    +0.000 A 
ATOM      2  N   UNL     1       2.742   6.630  19.211  0.00  0.00    +0.000 NA
ATOM      3  C   UNL     1       1.843   6.773  20.197  0.00  0.00    +0.000 A 
ATOM      4  N   UNL     1       1.725   8.054  20.667  0.00  0.00    +0.000 N 
ATOM      5  N   UNL     1       1.138   5.782  20.766  0.00  0.00    +0.000 NA
ATOM      6  C   UNL     1       1.428   4.592  20.229  0.00  0.00    +0.000 A 
ATOM      7  N   UNL     1       0.864   3.394  20.553  0.00  0.00    +0.000 N 
ATOM      8  C   UNL     1       1.481   2.434  19.797  0.00  0.00    +0.000 A 
ATOM      9  N   UNL     1       2.413   2.944  19.015  0.00  0.00    +0.000 NA
ATOM     10  C   UNL     1       2.372   4.302  19.263  0.00  0.00    +0.000 A 
ATOM     11  H   UNL     1       1.568   8.721  19.925  0.00  0.00    +0.000 HD
ATOM     12  H   UNL     1       0.130   3.261  21.232  0.00  0.00    +0.000 HD
ENDROOT
BRANCH   1  13
ATOM     13  N   UNL     1       4.189   5.246  17.881  0.00  0.00    +0.000 N 
ATOM     14  H   UNL     1       4.197   4.303  17.498  0.00  0.00    +0.000 HD
BRANCH  13  19
ATOM     15  C   UNL     1       7.542   5.803  19.433  0.00  0.00    +0.000 A 
ATOM     16  C   UNL     1       8.101   6.716  18.549  0.00  0.00    +0.000 A 
ATOM     17  C   UNL     1       7.367   7.120  17.433  0.00  0.00    +0.000 A 
ATOM     18  C   UNL     1       6.080   6.615  17.217  0.00  0.00    +0.000 A 
ATOM     19  C   UNL     1       5.495   5.729  18.130  0.00  0.00    +0.000 A 
ATOM     20  C   UNL     1       6.258   5.307  19.228  0.00  0.00    +0.000 A 
BRANCH  15  21
ATOM     21  O   UNL     1       8.228   5.363  20.529  0.00  0.00    +0.000 OA
ATOM     22  H   UNL     1       8.848   6.056  20.804  0.00  0.00    +0.000 HD
ENDBRANCH  15  21
ENDBRANCH  13  19
ENDBRANCH   1  13
BRANCH   4  23
ATOM     23  C   UNL     1       1.144   8.289  21.956  0.00  0.00    +0.000 C 
BRANCH  23  24
ATOM     24  C   UNL     1       0.265   9.525  21.864  0.00  0.00    +0.000 A 
ATOM     25  C   UNL     1       0.112  10.202  20.649  0.00  0.00    +0.000 A 
ATOM     26  C   UNL     1      -0.693  11.344  20.577  0.00  0.00    +0.000 A 
ATOM     27  C   UNL     1      -1.352  11.813  21.712  0.00  0.00    +0.000 A 
ATOM     28  C   UNL     1      -1.217  11.137  22.922  0.00  0.00    +0.000 A 
ATOM     29  C   UNL     1      -0.414   9.997  22.996  0.00  0.00    +0.000 A 
ENDBRANCH  23  24
ENDBRANCH   4  23
TORSDOF 5
ENDMDL
MODEL 5
REMARK VINA RESULT:      -8.6      6.804     10.155
REMARK  Name = 
REMARK  5 active torsions:
REMARK  status: ('A' for Active; 'I' for Inactive)
REMARK    1  A    between atoms: O_1  and  C_2
REMARK    2  A    between atoms: C_6  and  N_7
REMARK    3  A    between atoms: N_7  and  C_8
REMARK    4  A    between atoms: N_11  and  C_12
REMARK    5  A    between atoms: C_12  and  C_13
REMARK                            x       y       z     vdW  Elec       q    Type
REMARK                         _______ _______ _______ _____ _____    ______ ____
ROOT
ATOM      1  C   UNL     1       0.206  10.205  19.935  0.00  0.00    +0.000 A 
ATOM      2  N   UNL     1       1.105   9.210  19.702  0.00  0.00    +0.000 NA
ATOM      3  C   UNL     1       1.388   8.303  20.649  0.00  0.00    +0.000 A 
ATOM      4  N   UNL     1       2.154   7.255  20.212  0.00  0.00    +0.000 N 
ATOM      5  N   UNL     1       0.938   8.323  21.914  0.00  0.00    +0.000 NA
ATOM      6  C   UNL     1       0.152   9.380  22.147  0.00  0.00    +0.000 A 
ATOM      7  N   UNL     1      -0.434   9.715  23.331  0.00  0.00    +0.000 N 
ATOM      8  C   UNL     1      -1.183  10.839  23.114  0.00  0.00    +0.000 A 
ATOM      9  N   UNL     1      -1.121  11.239  21.859  0.00  0.00    +0.000 NA
ATOM     10  C   UNL     1      -0.266  10.343  21.248  0.00  0.00    +0.000 A 
ATOM     11  H   UNL     1       2.989   7.563  19.736  0.00  0.00    +0.000 HD
ATOM     12  H   UNL     1      -0.325   9.209  24.197  0.00  0.00    +0.000 HD
ENDROOT
BRANCH   1  13
ATOM     13  N   UNL     1      -0.233  11.027  18.875  0.00  0.00    +0.000 N 
ATOM     14  H   UNL     1       0.020  11.995  19.061  0.00  0.00    +0.000 HD
BRANCH  13  19
ATOM     15  C   UNL     1      -3.797  11.631  17.930  0.00  0.00    +0.000 A 
ATOM     16  C   UNL     1      -3.987  10.660  16.955  0.00  0.00    +0.000 A 
ATOM     17  C   UNL     1      -2.922   9.829  16.606  0.00  0.00    +0.000 A 
ATOM     18  C   UNL     1      -1.681   9.970  17.239  0.00  0.00    +0.000 A 
ATOM     19  C   UNL     1      -1.499  10.919  18.253  0.00  0.00    +0.000 A 
ATOM     20  C   UNL     1      -2.569  11.768  18.570  0.00  0.00    +0.000 A 
BRANCH  15  21
ATOM     21  O   UNL     1      -4.803  12.480  18.291  0.00  0.00    +0.000 OA
ATOM     22  H   UNL     1      -5.189  12.863  17.488  0.00  0.00    +0.000 HD
ENDBRANCH  15  21
ENDBRANCH  13  19
ENDBRANCH   1  13
BRANCH   4  23
ATOM     23  C   UNL     1       2.185   6.034  20.963  0.00  0.00    +0.000 C 
BRANCH  23  24
ATOM     24  C   UNL     1       1.823   4.891  20.030  0.00  0.00    +0.000 A 
ATOM     25  C   UNL     1       2.169   4.941  18.675  0.00  0.00    +0.000 A 
ATOM     26  C   UNL     1       1.824   3.887  17.822  0.00  0.00    +0.000 A 
ATOM     27  C   UNL     1       1.138   2.778  18.316  0.00  0.00    +0.000 A 
ATOM     28  C   UNL     1       0.803   2.714  19.667  0.00  0.00    +0.000 A 
ATOM     29  C   UNL     1       1.147   3.764  20.519  0.00  0.00    +0.000 A 
ENDBRANCH  23  24
ENDBRANCH   4  23
TORSDOF 5
ENDMDL
MODEL 6
REMARK VINA RESULT:      -8.6      2.964      6.648
REMARK  Name = 
REMARK  5 active torsions:
REMARK  status: ('A' for Active; 'I' for Inactive)
REMARK    1  A    between atoms: O_1  and  C_2
REMARK    2  A    between atoms: C_6  and  N_7
REMARK    3  A    between atoms: N_7  and  C_8
REMARK    4  A    between atoms: N_11  and  C_12
REMARK    5  A    between atoms: C_12  and  C_13
REMARK                            x       y       z     vdW  Elec       q    Type
REMARK                         _______ _______ _______ _____ _____    ______ ____
ROOT
ATOM      1  C   UNL     1       5.471   4.112  18.087  0.00  0.00    +0.000 A 
ATOM      2  N   UNL     1       5.111   4.066  16.775  0.00  0.00    +0.000 NA
ATOM      3  C   UNL     1       5.814   4.731  15.845  0.00  0.00    +0.000 A 
ATOM      4  N   UNL     1       5.459   4.436  14.556  0.00  0.00    +0.000 N 
ATOM      5  N   UNL     1       6.833   5.572  16.085  0.00  0.00    +0.000 NA
ATOM      6  C   UNL     1       7.085   5.690  17.393  0.00  0.00    +0.000 A 
ATOM      7  N   UNL     1       8.025   6.490  17.972  0.00  0.00    +0.000 N 
ATOM      8  C   UNL     1       7.973   6.270  19.322  0.00  0.00    +0.000 A 
ATOM      9  N   UNL     1       7.063   5.371  19.642  0.00  0.00    +0.000 NA
ATOM     10  C   UNL     1       6.484   5.017  18.439  0.00  0.00    +0.000 A 
ATOM     11  H   UNL     1       4.465   4.527  14.402  0.00  0.00    +0.000 HD
ATOM     12  H   UNL     1       8.639   7.117  17.477  0.00  0.00    +0.000 HD
ENDROOT
BRANCH   1  13
ATOM     13  N   UNL     1       4.853   3.256  19.023  0.00  0.00    +0.000 N 
ATOM     14  H   UNL     1       5.187   2.304  18.895  0.00  0.00    +0.000 HD
BRANCH  13  19
ATOM     15  C   UNL     1       1.182   2.562  19.068  0.00  0.00    +0.000 A 
ATOM     16  C   UNL     1       0.758   3.413  20.081  0.00  0.00    +0.000 A 
ATOM     17  C   UNL     1       1.699   4.191  20.754  0.00  0.00    +0.000 A 
ATOM     18  C   UNL     1       3.053   4.120  20.404  0.00  0.00    +0.000 A 
ATOM     19  C   UNL     1       3.478   3.297  19.354  0.00  0.00    +0.000 A 
ATOM     20  C   UNL     1       2.525   2.495  18.709  0.00  0.00    +0.000 A 
BRANCH  15  21
ATOM     21  O   UNL     1       0.301   1.766  18.394  0.00  0.00    +0.000 OA
ATOM     22  H   UNL     1      -0.595   2.112  18.529  0.00  0.00    +0.000 HD
ENDBRANCH  15  21
ENDBRANCH  13  19
ENDBRANCH   1  13
BRANCH   4  23
ATOM     23  C   UNL     1       6.364   4.728  13.484  0.00  0.00    +0.000 C 
BRANCH  23  24
ATOM     24  C   UNL     1       6.336   3.565  12.507  0.00  0.00    +0.000 A 
ATOM     25  C   UNL     1       5.121   2.989  12.119  0.00  0.00    +0.000 A 
ATOM     26  C   UNL     1       5.108   1.913  11.225  0.00  0.00    +0.000 A 
ATOM     27  C   UNL     1       6.301   1.409  10.710  0.00  0.00    +0.000 A 
ATOM     28  C   UNL     1       7.514   1.986  11.080  0.00  0.00    +0.000 A 
ATOM     29  C   UNL     1       7.531   3.060  11.972  0.00  0.00    +0.000 A 
ENDBRANCH  23  24
ENDBRANCH   4  23
TORSDOF 5
ENDMDL
MODEL 7
REMARK VINA RESULT:      -8.5      3.695      6.727
REMARK  Name = 
REMARK  5 active torsions:
REMARK  status: ('A' for Active; 'I' for Inactive)
REMARK    1  A    between atoms: O_1  and  C_2
REMARK    2  A    between atoms: C_6  and  N_7
REMARK    3  A    between atoms: N_7  and  C_8
REMARK    4  A    between atoms: N_11  and  C_12
REMARK    5  A    between atoms: C_12  and  C_13
REMARK                            x       y       z     vdW  Elec       q    Type
REMARK                         _______ _______ _______ _____ _____    ______ ____
ROOT
ATOM      1  C   UNL     1       4.869   5.724  17.665  0.00  0.00    +0.000 A 
ATOM      2  N   UNL     1       4.982   5.756  16.309  0.00  0.00    +0.000 NA
ATOM      3  C   UNL     1       6.125   5.398  15.705  0.00  0.00    +0.000 A 
ATOM      4  N   UNL     1       6.031   5.290  14.343  0.00  0.00    +0.000 N 
ATOM      5  N   UNL     1       7.277   5.091  16.324  0.00  0.00    +0.000 NA
ATOM      6  C   UNL     1       7.169   5.186  17.654  0.00  0.00    +0.000 A 
ATOM      7  N   UNL     1       8.158   4.979  18.568  0.00  0.00    +0.000 N 
ATOM      8  C   UNL     1       7.607   5.138  19.811  0.00  0.00    +0.000 A 
ATOM      9  N   UNL     1       6.321   5.424  19.748  0.00  0.00    +0.000 NA
ATOM     10  C   UNL     1       6.041   5.479  18.397  0.00  0.00    +0.000 A 
ATOM     11  H   UNL     1       5.634   6.116  13.920  0.00  0.00    +0.000 HD
ATOM     12  H   UNL     1       9.115   4.749  18.347  0.00  0.00    +0.000 HD
ENDROOT
BRANCH   1  13
ATOM     13  N   UNL     1       3.612   5.908  18.278  0.00  0.00    +0.000 N 
ATOM     14  H   UNL     1       3.631   6.735  18.869  0.00  0.00    +0.000 HD
BRANCH  13  19
ATOM     15  C   UNL     1       2.074   3.562  20.747  0.00  0.00    +0.000 A 
ATOM     16  C   UNL     1       1.269   2.788  19.920  0.00  0.00    +0.000 A 
ATOM     17  C   UNL     1       1.228   3.069  18.555  0.00  0.00    +0.000 A 
ATOM     18  C   UNL     1       1.997   4.112  18.026  0.00  0.00    +0.000 A 
ATOM     19  C   UNL     1       2.844   4.865  18.849  0.00  0.00    +0.000 A 
ATOM     20  C   UNL     1       2.849   4.593  20.225  0.00  0.00    +0.000 A 
BRANCH  15  21
ATOM     21  O   UNL     1       2.133   3.338  22.093  0.00  0.00    +0.000 OA
ATOM     22  H   UNL     1       2.971   3.693  22.428  0.00  0.00    +0.000 HD
ENDBRANCH  15  21
ENDBRANCH  13  19
ENDBRANCH   1  13
BRANCH   4  23
ATOM     23  C   UNL     1       7.010   4.533  13.619  0.00  0.00    +0.000 C 
BRANCH  23  24
ATOM     24  C   UNL     1       6.283   3.627  12.640  0.00  0.00    +0.000 A 
ATOM     25  C   UNL     1       4.928   3.828  12.354  0.00  0.00    +0.000 A 
ATOM     26  C   UNL     1       4.266   2.983  11.457  0.00  0.00    +0.000 A 
ATOM     27  C   UNL     1       4.950   1.938  10.838  0.00  0.00    +0.000 A 
ATOM     28  C   UNL     1       6.303   1.740  11.106  0.00  0.00    +0.000 A 
ATOM     29  C   UNL     1       6.966   2.582  12.001  0.00  0.00    +0.000 A 
ENDBRANCH  23  24
ENDBRANCH   4  23
TORSDOF 5
ENDMDL
MODEL 8
REMARK VINA RESULT:      -8.5      3.627      6.663
REMARK  Name = 
REMARK  5 active torsions:
REMARK  status: ('A' for Active; 'I' for Inactive)
REMARK    1  A    between atoms: O_1  and  C_2
REMARK    2  A    between atoms: C_6  and  N_7
REMARK    3  A    between atoms: N_7  and  C_8
REMARK    4  A    between atoms: N_11  and  C_12
REMARK    5  A    between atoms: C_12  and  C_13
REMARK                            x       y       z     vdW  Elec       q    Type
REMARK                         _______ _______ _______ _____ _____    ______ ____
ROOT
ATOM      1  C   UNL     1       4.816   5.933  17.516  0.00  0.00    +0.000 A 
ATOM      2  N   UNL     1       4.990   5.933  16.165  0.00  0.00    +0.000 NA
ATOM      3  C   UNL     1       6.131   5.487  15.618  0.00  0.00    +0.000 A 
ATOM      4  N   UNL     1       6.088   5.361  14.255  0.00  0.00    +0.000 N 
ATOM      5  N   UNL     1       7.230   5.113  16.292  0.00  0.00    +0.000 NA
ATOM      6  C   UNL     1       7.071   5.238  17.614  0.00  0.00    +0.000 A 
ATOM      7  N   UNL     1       8.003   4.980  18.575  0.00  0.00    +0.000 N 
ATOM      8  C   UNL     1       7.411   5.197  19.789  0.00  0.00    +0.000 A 
ATOM      9  N   UNL     1       6.152   5.569  19.665  0.00  0.00    +0.000 NA
ATOM     10  C   UNL     1       5.935   5.620  18.302  0.00  0.00    +0.000 A 
ATOM     11  H   UNL     1       5.768   6.206  13.803  0.00  0.00    +0.000 HD
ATOM     12  H   UNL     1       8.950   4.680  18.400  0.00  0.00    +0.000 HD
ENDROOT
BRANCH   1  13
ATOM     13  N   UNL     1       3.549   6.213  18.069  0.00  0.00    +0.000 N 
ATOM     14  H   UNL     1       3.592   7.068  18.617  0.00  0.00    +0.000 HD
BRANCH  13  19
ATOM     15  C   UNL     1       1.595   3.084  18.669  0.00  0.00    +0.000 A 
ATOM     16  C   UNL     1       1.038   3.348  19.915  0.00  0.00    +0.000 A 
ATOM     17  C   UNL     1       1.336   4.553  20.552  0.00  0.00    +0.000 A 
ATOM     18  C   UNL     1       2.179   5.486  19.936  0.00  0.00    +0.000 A 
ATOM     19  C   UNL     1       2.706   5.243  18.662  0.00  0.00    +0.000 A 
ATOM     20  C   UNL     1       2.425   4.014  18.049  0.00  0.00    +0.000 A 
BRANCH  15  21
ATOM     21  O   UNL     1       1.349   1.911  18.015  0.00  0.00    +0.000 OA
ATOM     22  H   UNL     1       0.390   1.804  17.924  0.00  0.00    +0.000 HD
ENDBRANCH  15  21
ENDBRANCH  13  19
ENDBRANCH   1  13
BRANCH   4  23
ATOM     23  C   UNL     1       7.042   4.526  13.587  0.00  0.00    +0.000 C 
BRANCH  23  24
ATOM     24  C   UNL     1       6.292   3.618  12.628  0.00  0.00    +0.000 A 
ATOM     25  C   UNL     1       4.935   3.831  12.359  0.00  0.00    +0.000 A 
ATOM     26  C   UNL     1       4.251   2.984  11.481  0.00  0.00    +0.000 A 
ATOM     27  C   UNL     1       4.915   1.925  10.863  0.00  0.00    +0.000 A 
ATOM     28  C   UNL     1       6.270   1.714  11.114  0.00  0.00    +0.000 A 
ATOM     29  C   UNL     1       6.954   2.559  11.990  0.00  0.00    +0.000 A 
ENDBRANCH  23  24
ENDBRANCH   4  23
TORSDOF 5
ENDMDL
MODEL 9
REMARK VINA RESULT:      -8.5      3.190      6.812
REMARK  Name = 
REMARK  5 active torsions:
REMARK  status: ('A' for Active; 'I' for Inactive)
REMARK    1  A    between atoms: O_1  and  C_2
REMARK    2  A    between atoms: C_6  and  N_7
REMARK    3  A    between atoms: N_7  and  C_8
REMARK    4  A    between atoms: N_11  and  C_12
REMARK    5  A    between atoms: C_12  and  C_13
REMARK                            x       y       z     vdW  Elec       q    Type
REMARK                         _______ _______ _______ _____ _____    ______ ____
ROOT
ATOM      1  C   UNL     1       5.348   4.126  17.951  0.00  0.00    +0.000 A 
ATOM      2  N   UNL     1       5.022   4.107  16.629  0.00  0.00    +0.000 NA
ATOM      3  C   UNL     1       5.783   4.741  15.724  0.00  0.00    +0.000 A 
ATOM      4  N   UNL     1       5.450   4.473  14.423  0.00  0.00    +0.000 N 
ATOM      5  N   UNL     1       6.836   5.529  15.999  0.00  0.00    +0.000 NA
ATOM      6  C   UNL     1       7.057   5.625  17.314  0.00  0.00    +0.000 A 
ATOM      7  N   UNL     1       8.020   6.372  17.925  0.00  0.00    +0.000 N 
ATOM      8  C   UNL     1       7.920   6.147  19.271  0.00  0.00    +0.000 A 
ATOM      9  N   UNL     1       6.957   5.293  19.559  0.00  0.00    +0.000 NA
ATOM     10  C   UNL     1       6.394   4.976  18.338  0.00  0.00    +0.000 A 
ATOM     11  H   UNL     1       4.467   4.616  14.243  0.00  0.00    +0.000 HD
ATOM     12  H   UNL     1       8.679   6.971  17.452  0.00  0.00    +0.000 HD
ENDROOT
BRANCH   1  13
ATOM     13  N   UNL     1       4.662   3.296  18.863  0.00  0.00    +0.000 N 
ATOM     14  H   UNL     1       4.695   2.330  18.545  0.00  0.00    +0.000 HD
BRANCH  13  19
ATOM     15  C   UNL     1       1.887   5.175  20.516  0.00  0.00    +0.000 A 
ATOM     16  C   UNL     1       0.904   4.196  20.591  0.00  0.00    +0.000 A 
ATOM     17  C   UNL     1       1.166   2.929  20.071  0.00  0.00    +0.000 A 
ATOM     18  C   UNL     1       2.408   2.648  19.490  0.00  0.00    +0.000 A 
ATOM     19  C   UNL     1       3.416   3.619  19.452  0.00  0.00    +0.000 A 
ATOM     20  C   UNL     1       3.127   4.898  19.949  0.00  0.00    +0.000 A 
BRANCH  15  21
ATOM     21  O   UNL     1       1.671   6.436  20.994  0.00  0.00    +0.000 OA
ATOM     22  H   UNL     1       2.398   6.668  21.593  0.00  0.00    +0.000 HD
ENDBRANCH  15  21
ENDBRANCH  13  19
ENDBRANCH   1  13
BRANCH   4  23
ATOM     23  C   UNL     1       6.398   4.726  13.379  0.00  0.00    +0.000 C 
BRANCH  23  24
ATOM     24  C   UNL     1       6.396   3.536  12.435  0.00  0.00    +0.000 A 
ATOM     25  C   UNL     1       5.198   2.896  12.097  0.00  0.00    +0.000 A 
ATOM     26  C   UNL     1       5.207   1.796  11.234  0.00  0.00    +0.000 A 
ATOM     27  C   UNL     1       6.408   1.331  10.699  0.00  0.00    +0.000 A 
ATOM     28  C   UNL     1       7.604   1.971  11.018  0.00  0.00    +0.000 A 
ATOM     29  C   UNL     1       7.596   3.069  11.880  0.00  0.00    +0.000 A 
ENDBRANCH  23  24
ENDBRANCH   4  23
TORSDOF 5
ENDMDL
