MODEL 1
REMARK VINA RESULT:      -9.1      0.000      0.000
REMARK  Name = 
REMARK  5 active torsions:
REMARK  status: ('A' for Active; 'I' for Inactive)
REMARK    1  A    between atoms: C_1  and  C_2
REMARK    2  A    between atoms: C_2  and  N_3
REMARK    3  A    between atoms: C_2  and  C_23
REMARK    4  A    between atoms: N_3  and  C_4
REMARK    5  A    between atoms: N_7  and  C_8
REMARK                            x       y       z     vdW  Elec       q    Type
REMARK                         _______ _______ _______ _____ _____    ______ ____
ROOT
ATOM      1  C   UNL     1       3.999   4.997  17.378  0.00  0.00    +0.000 A 
ATOM      2  N   UNL     1       3.849   6.329  17.522  0.00  0.00    +0.000 NA
ATOM      3  C   UNL     1       2.840   6.754  18.295  0.00  0.00    +0.000 A 
ATOM      4  N   UNL     1       2.702   8.125  18.507  0.00  0.00    +0.000 N 
ATOM      5  N   UNL     1       1.978   5.936  18.910  0.00  0.00    +0.000 NA
ATOM      6  C   UNL     1       2.162   4.627  18.816  0.00  0.00    +0.000 A 
ATOM      7  C   UNL     1       1.257   3.792  19.458  0.00  0.00    +0.000 A 
ATOM      8  C   UNL     1       1.393   2.406  19.431  0.00  0.00    +0.000 A 
ATOM      9  C   UNL     1       2.464   1.836  18.757  0.00  0.00    +0.000 A 
ATOM     10  C   UNL     1       3.365   2.659  18.080  0.00  0.00    +0.000 A 
ATOM     11  C   UNL     1       3.213   4.071  18.089  0.00  0.00    +0.000 A 
ATOM     12  H   UNL     1       3.524   8.643  18.243  0.00  0.00    +0.000 HD
ENDROOT
BRANCH   4  13
ATOM     13  C   UNL     1       1.553   8.827  18.900  0.00  0.00    +0.000 A 
ATOM     14  C   UNL     1       0.798   9.533  17.950  0.00  0.00    +0.000 A 
ATOM     15  C   UNL     1      -0.295  10.313  18.345  0.00  0.00    +0.000 A 
ATOM     16  C   UNL     1      -0.645  10.391  19.690  0.00  0.00    +0.000 A 
ATOM     17  F   UNL     1      -1.696  11.142  20.045  0.00  0.00    +0.000 F 
ATOM     18  C   UNL     1       0.091   9.701  20.648  0.00  0.00    +0.000 A 
ATOM     19 CL   UNL     1      -0.324   9.786  22.315  0.00  0.00    +0.000 Cl
ATOM     20  C   UNL     1       1.188   8.936  20.254  0.00  0.00    +0.000 A 
ENDBRANCH   4  13
BRANCH   1  21
ATOM     21  N   UNL     1       4.970   4.501  16.483  0.00  0.00    +0.000 N 
ATOM     22  H   UNL     1       5.449   3.726  16.933  0.00  0.00    +0.000 HD
BRANCH  21  24
ATOM     23  C   UNL     1       6.355   4.920  14.483  0.00  0.00    +0.000 C 
ATOM     24  C   UNL     1       5.884   5.458  15.844  0.00  0.00    +0.000 C 
BRANCH  24  25
ATOM     25  C   UNL     1       7.129   5.619  16.735  0.00  0.00    +0.000 C 
ATOM     26  C   UNL     1       7.257   6.917  17.585  0.00  0.00    +0.000 C 
ATOM     27  C   UNL     1       7.888   6.054  18.692  0.00  0.00    +0.000 C 
ATOM     28  C   UNL     1       7.137   4.851  18.086  0.00  0.00    +0.000 C 
ENDBRANCH  24  25
ENDBRANCH  21  24
ENDBRANCH   1  21
TORSDOF 4
ENDMDL
MODEL 2
REMARK VINA RESULT:      -8.9      1.028      1.038
REMARK  Name = 
REMARK  5 active torsions:
REMARK  status: ('A' for Active; 'I' for Inactive)
REMARK    1  A    between atoms: C_1  and  C_2
REMARK    2  A    between atoms: C_2  and  N_3
REMARK    3  A    between atoms: C_2  and  C_23
REMARK    4  A    between atoms: N_3  and  C_4
REMARK    5  A    between atoms: N_7  and  C_8
REMARK                            x       y       z     vdW  Elec       q    Type
REMARK                         _______ _______ _______ _____ _____    ______ ____
ROOT
ATOM      1  C   UNL     1       3.861   5.508  17.960  0.00  0.00    +0.000 A 
ATOM      2  N   UNL     1       3.532   6.797  17.743  0.00  0.00    +0.000 NA
ATOM      3  C   UNL     1       2.615   7.342  18.554  0.00  0.00    +0.000 A 
ATOM      4  N   UNL     1       2.303   8.691  18.387  0.00  0.00    +0.000 N 
ATOM      5  N   UNL     1       2.008   6.678  19.545  0.00  0.00    +0.000 NA
ATOM      6  C   UNL     1       2.375   5.429  19.795  0.00  0.00    +0.000 A 
ATOM      7  C   UNL     1       1.734   4.754  20.825  0.00  0.00    +0.000 A 
ATOM      8  C   UNL     1       2.078   3.448  21.171  0.00  0.00    +0.000 A 
ATOM      9  C   UNL     1       3.095   2.803  20.479  0.00  0.00    +0.000 A 
ATOM     10  C   UNL     1       3.728   3.456  19.422  0.00  0.00    +0.000 A 
ATOM     11  C   UNL     1       3.361   4.779  19.056  0.00  0.00    +0.000 A 
ATOM     12  H   UNL     1       2.977   9.177  17.820  0.00  0.00    +0.000 HD
ENDROOT
BRANCH   4  13
ATOM     13  C   UNL     1       1.143   9.366  18.793  0.00  0.00    +0.000 A 
ATOM     14  C   UNL     1       0.150   9.691  17.855  0.00  0.00    +0.000 A 
ATOM     15  C   UNL     1      -0.967  10.446  18.231  0.00  0.00    +0.000 A 
ATOM     16  C   UNL     1      -1.103  10.878  19.547  0.00  0.00    +0.000 A 
ATOM     17  F   UNL     1      -2.181  11.598  19.885  0.00  0.00    +0.000 F 
ATOM     18  C   UNL     1      -0.131  10.570  20.492  0.00  0.00    +0.000 A 
ATOM     19 CL   UNL     1      -0.281  11.097  22.122  0.00  0.00    +0.000 Cl
ATOM     20  C   UNL     1       0.988   9.830  20.112  0.00  0.00    +0.000 A 
ENDBRANCH   4  13
BRANCH   1  21
ATOM     21  N   UNL     1       4.731   4.853  17.063  0.00  0.00    +0.000 N 
ATOM     22  H   UNL     1       5.248   4.149  17.581  0.00  0.00    +0.000 HD
BRANCH  21  24
ATOM     23  C   UNL     1       5.825   4.957  14.853  0.00  0.00    +0.000 C 
ATOM     24  C   UNL     1       5.580   5.675  16.189  0.00  0.00    +0.000 C 
BRANCH  24  25
ATOM     25  C   UNL     1       6.947   5.865  16.872  0.00  0.00    +0.000 C 
ATOM     26  C   UNL     1       7.235   7.230  17.563  0.00  0.00    +0.000 C 
ATOM     27  C   UNL     1       7.999   6.447  18.646  0.00  0.00    +0.000 C 
ATOM     28  C   UNL     1       7.134   5.225  18.274  0.00  0.00    +0.000 C 
ENDBRANCH  24  25
ENDBRANCH  21  24
ENDBRANCH   1  21
TORSDOF 4
ENDMDL
MODEL 3
REMARK VINA RESULT:      -8.9      1.614      1.844
REMARK  Name = 
REMARK  5 active torsions:
REMARK  status: ('A' for Active; 'I' for Inactive)
REMARK    1  A    between atoms: C_1  and  C_2
REMARK    2  A    between atoms: C_2  and  N_3
REMARK    3  A    between atoms: C_2  and  C_23
REMARK    4  A    between atoms: N_3  and  C_4
REMARK    5  A    between atoms: N_7  and  C_8
REMARK                            x       y       z     vdW  Elec       q    Type
REMARK                         _______ _______ _______ _____ _____    ______ ____
ROOT
ATOM      1  C   UNL     1       3.911   5.662  17.975  0.00  0.00    +0.000 A 
ATOM      2  N   UNL     1       3.610   6.941  17.672  0.00  0.00    +0.000 NA
ATOM      3  C   UNL     1       2.667   7.541  18.413  0.00  0.00    +0.000 A 
ATOM      4  N   UNL     1       2.381   8.882  18.158  0.00  0.00    +0.000 N 
ATOM      5  N   UNL     1       2.010   6.940  19.412  0.00  0.00    +0.000 NA
ATOM      6  C   UNL     1       2.348   5.703  19.746  0.00  0.00    +0.000 A 
ATOM      7  C   UNL     1       1.655   5.095  20.784  0.00  0.00    +0.000 A 
ATOM      8  C   UNL     1       1.965   3.806  21.215  0.00  0.00    +0.000 A 
ATOM      9  C   UNL     1       3.001   3.112  20.605  0.00  0.00    +0.000 A 
ATOM     10  C   UNL     1       3.687   3.697  19.541  0.00  0.00    +0.000 A 
ATOM     11  C   UNL     1       3.355   5.001  19.087  0.00  0.00    +0.000 A 
ATOM     12  H   UNL     1       3.086   9.328  17.594  0.00  0.00    +0.000 HD
ENDROOT
BRANCH   4  13
ATOM     13  C   UNL     1       1.215   9.592  18.476  0.00  0.00    +0.000 A 
ATOM     14  C   UNL     1       1.107  10.259  19.706  0.00  0.00    +0.000 A 
ATOM     15  C   UNL     1      -0.086  10.892  20.073  0.00  0.00    +0.000 A 
ATOM     16  C   UNL     1      -1.179  10.867  19.212  0.00  0.00    +0.000 A 
ATOM     17  F   UNL     1      -2.311  11.480  19.584  0.00  0.00    +0.000 F 
ATOM     18  C   UNL     1      -1.096  10.210  17.989  0.00  0.00    +0.000 A 
ATOM     19 CL   UNL     1      -2.437  10.166  16.914  0.00  0.00    +0.000 Cl
ATOM     20  C   UNL     1       0.089   9.568  17.632  0.00  0.00    +0.000 A 
ENDBRANCH   4  13
BRANCH   1  21
ATOM     21  N   UNL     1       4.808   4.948  17.154  0.00  0.00    +0.000 N 
ATOM     22  H   UNL     1       5.339   4.312  17.742  0.00  0.00    +0.000 HD
BRANCH  21  24
ATOM     23  C   UNL     1       5.889   4.882  14.936  0.00  0.00    +0.000 C 
ATOM     24  C   UNL     1       5.644   5.704  16.211  0.00  0.00    +0.000 C 
BRANCH  24  25
ATOM     25  C   UNL     1       7.013   5.963  16.867  0.00  0.00    +0.000 C 
ATOM     26  C   UNL     1       7.260   7.356  17.517  0.00  0.00    +0.000 C 
ATOM     27  C   UNL     1       8.068   6.630  18.608  0.00  0.00    +0.000 C 
ATOM     28  C   UNL     1       7.243   5.368  18.283  0.00  0.00    +0.000 C 
ENDBRANCH  24  25
ENDBRANCH  21  24
ENDBRANCH   1  21
TORSDOF 4
ENDMDL
MODEL 4
REMARK VINA RESULT:      -8.6      1.008      1.071
REMARK  Name = 
REMARK  5 active torsions:
REMARK  status: ('A' for Active; 'I' for Inactive)
REMARK    1  A    between atoms: C_1  and  C_2
REMARK    2  A    between atoms: C_2  and  N_3
REMARK    3  A    between atoms: C_2  and  C_23
REMARK    4  A    between atoms: N_3  and  C_4
REMARK    5  A    between atoms: N_7  and  C_8
REMARK                            x       y       z     vdW  Elec       q    Type
REMARK                         _______ _______ _______ _____ _____    ______ ____
ROOT
ATOM      1  C   UNL     1       4.158   4.566  18.595  0.00  0.00    +0.000 A 
ATOM      2  N   UNL     1       4.101   5.842  19.027  0.00  0.00    +0.000 NA
ATOM      3  C   UNL     1       2.927   6.277  19.505  0.00  0.00    +0.000 A 
ATOM      4  N   UNL     1       2.860   7.574  20.013  0.00  0.00    +0.000 N 
ATOM      5  N   UNL     1       1.821   5.525  19.560  0.00  0.00    +0.000 NA
ATOM      6  C   UNL     1       1.893   4.254  19.191  0.00  0.00    +0.000 A 
ATOM      7  C   UNL     1       0.736   3.489  19.253  0.00  0.00    +0.000 A 
ATOM      8  C   UNL     1       0.732   2.139  18.908  0.00  0.00    +0.000 A 
ATOM      9  C   UNL     1       1.913   1.533  18.501  0.00  0.00    +0.000 A 
ATOM     10  C   UNL     1       3.077   2.295  18.404  0.00  0.00    +0.000 A 
ATOM     11  C   UNL     1       3.076   3.676  18.734  0.00  0.00    +0.000 A 
ATOM     12  H   UNL     1       3.769   7.970  20.183  0.00  0.00    +0.000 HD
ENDROOT
BRANCH   4  13
ATOM     13  C   UNL     1       1.724   8.381  20.174  0.00  0.00    +0.000 A 
ATOM     14  C   UNL     1       1.215   9.108  19.087  0.00  0.00    +0.000 A 
ATOM     15  C   UNL     1       0.140   9.988  19.258  0.00  0.00    +0.000 A 
ATOM     16  C   UNL     1      -0.436  10.146  20.515  0.00  0.00    +0.000 A 
ATOM     17  F   UNL     1      -1.465  10.993  20.655  0.00  0.00    +0.000 F 
ATOM     18  C   UNL     1       0.054   9.437  21.607  0.00  0.00    +0.000 A 
ATOM     19 CL   UNL     1      -0.644   9.621  23.168  0.00  0.00    +0.000 Cl
ATOM     20  C   UNL     1       1.134   8.572  21.437  0.00  0.00    +0.000 A 
ENDBRANCH   4  13
BRANCH   1  21
ATOM     21  N   UNL     1       5.334   4.096  17.974  0.00  0.00    +0.000 N 
ATOM     22  H   UNL     1       6.046   3.981  18.690  0.00  0.00    +0.000 HD
BRANCH  21  24
ATOM     23  C   UNL     1       6.159   3.789  15.668  0.00  0.00    +0.000 C 
ATOM     24  C   UNL     1       5.820   4.797  16.778  0.00  0.00    +0.000 C 
BRANCH  24  25
ATOM     25  C   UNL     1       7.118   5.543  17.139  0.00  0.00    +0.000 C 
ATOM     26  C   UNL     1       7.038   7.081  17.367  0.00  0.00    +0.000 C 
ATOM     27  C   UNL     1       8.088   6.905  18.478  0.00  0.00    +0.000 C 
ATOM     28  C   UNL     1       7.603   5.447  18.611  0.00  0.00    +0.000 C 
ENDBRANCH  24  25
ENDBRANCH  21  24
ENDBRANCH   1  21
TORSDOF 4
ENDMDL
MODEL 5
REMARK VINA RESULT:      -8.5      0.947      1.107
REMARK  Name = 
REMARK  5 active torsions:
REMARK  status: ('A' for Active; 'I' for Inactive)
REMARK    1  A    between atoms: C_1  and  C_2
REMARK    2  A    between atoms: C_2  and  N_3
REMARK    3  A    between atoms: C_2  and  C_23
REMARK    4  A    between atoms: N_3  and  C_4
REMARK    5  A    between atoms: N_7  and  C_8
REMARK                            x       y       z     vdW  Elec       q    Type
REMARK                         _______ _______ _______ _____ _____    ______ ____
ROOT
ATOM      1  C   UNL     1       3.298   5.025  17.815  0.00  0.00    +0.000 A 
ATOM      2  N   UNL     1       3.148   6.364  17.783  0.00  0.00    +0.000 NA
ATOM      3  C   UNL     1       2.378   6.919  18.730  0.00  0.00    +0.000 A 
ATOM      4  N   UNL     1       2.257   8.308  18.754  0.00  0.00    +0.000 N 
ATOM      5  N   UNL     1       1.749   6.220  19.682  0.00  0.00    +0.000 NA
ATOM      6  C   UNL     1       1.945   4.911  19.748  0.00  0.00    +0.000 A 
ATOM      7  C   UNL     1       1.282   4.200  20.740  0.00  0.00    +0.000 A 
ATOM      8  C   UNL     1       1.453   2.826  20.895  0.00  0.00    +0.000 A 
ATOM      9  C   UNL     1       2.315   2.144  20.047  0.00  0.00    +0.000 A 
ATOM     10  C   UNL     1       2.965   2.837  19.026  0.00  0.00    +0.000 A 
ATOM     11  C   UNL     1       2.772   4.234  18.854  0.00  0.00    +0.000 A 
ATOM     12  H   UNL     1       2.956   8.767  18.193  0.00  0.00    +0.000 HD
ENDROOT
BRANCH   4  13
ATOM     13  C   UNL     1       1.239   9.076  19.335  0.00  0.00    +0.000 A 
ATOM     14  C   UNL     1       0.489   9.965  18.550  0.00  0.00    +0.000 A 
ATOM     15  C   UNL     1      -0.466  10.805  19.136  0.00  0.00    +0.000 A 
ATOM     16  C   UNL     1      -0.681  10.760  20.511  0.00  0.00    +0.000 A 
ATOM     17  F   UNL     1      -1.600  11.572  21.050  0.00  0.00    +0.000 F 
ATOM     18  C   UNL     1       0.053   9.888  21.308  0.00  0.00    +0.000 A 
ATOM     19 CL   UNL     1      -0.197   9.820  23.008  0.00  0.00    +0.000 Cl
ATOM     20  C   UNL     1       1.013   9.063  20.724  0.00  0.00    +0.000 A 
ENDBRANCH   4  13
BRANCH   1  21
ATOM     21  N   UNL     1       4.000   4.381  16.775  0.00  0.00    +0.000 N 
ATOM     22  H   UNL     1       3.932   3.377  16.921  0.00  0.00    +0.000 HD
BRANCH  21  24
ATOM     23  C   UNL     1       6.043   3.861  15.491  0.00  0.00    +0.000 C 
ATOM     24  C   UNL     1       5.364   4.834  16.467  0.00  0.00    +0.000 C 
BRANCH  24  25
ATOM     25  C   UNL     1       6.186   4.835  17.770  0.00  0.00    +0.000 C 
ATOM     26  C   UNL     1       7.712   4.545  17.670  0.00  0.00    +0.000 C 
ATOM     27  C   UNL     1       7.916   5.574  18.796  0.00  0.00    +0.000 C 
ATOM     28  C   UNL     1       6.585   6.217  18.354  0.00  0.00    +0.000 C 
ENDBRANCH  24  25
ENDBRANCH  21  24
ENDBRANCH   1  21
TORSDOF 4
ENDMDL
MODEL 6
REMARK VINA RESULT:      -8.3      1.196      2.014
REMARK  Name = 
REMARK  5 active torsions:
REMARK  status: ('A' for Active; 'I' for Inactive)
REMARK    1  A    between atoms: C_1  and  C_2
REMARK    2  A    between atoms: C_2  and  N_3
REMARK    3  A    between atoms: C_2  and  C_23
REMARK    4  A    between atoms: N_3  and  C_4
REMARK    5  A    between atoms: N_7  and  C_8
REMARK                            x       y       z     vdW  Elec       q    Type
REMARK                         _______ _______ _______ _____ _____    ______ ____
ROOT
ATOM      1  C   UNL     1       3.664   5.409  17.875  0.00  0.00    +0.000 A 
ATOM      2  N   UNL     1       3.339   6.708  17.727  0.00  0.00    +0.000 NA
ATOM      3  C   UNL     1       2.557   7.256  18.668  0.00  0.00    +0.000 A 
ATOM      4  N   UNL     1       2.255   8.614  18.569  0.00  0.00    +0.000 N 
ATOM      5  N   UNL     1       2.079   6.585  19.723  0.00  0.00    +0.000 NA
ATOM      6  C   UNL     1       2.449   5.324  19.898  0.00  0.00    +0.000 A 
ATOM      7  C   UNL     1       1.942   4.642  20.996  0.00  0.00    +0.000 A 
ATOM      8  C   UNL     1       2.300   3.323  21.268  0.00  0.00    +0.000 A 
ATOM      9  C   UNL     1       3.195   2.671  20.431  0.00  0.00    +0.000 A 
ATOM     10  C   UNL     1       3.690   3.332  19.306  0.00  0.00    +0.000 A 
ATOM     11  C   UNL     1       3.306   4.668  19.018  0.00  0.00    +0.000 A 
ATOM     12  H   UNL     1       2.855   9.098  17.921  0.00  0.00    +0.000 HD
ENDROOT
BRANCH   4  13
ATOM     13  C   UNL     1       1.180   9.305  19.144  0.00  0.00    +0.000 A 
ATOM     14  C   UNL     1       0.292  10.031  18.335  0.00  0.00    +0.000 A 
ATOM     15  C   UNL     1      -0.729  10.799  18.905  0.00  0.00    +0.000 A 
ATOM     16  C   UNL     1      -0.874  10.845  20.289  0.00  0.00    +0.000 A 
ATOM     17  F   UNL     1      -1.859  11.587  20.813  0.00  0.00    +0.000 F 
ATOM     18  C   UNL     1      -0.005  10.136  21.111  0.00  0.00    +0.000 A 
ATOM     19 CL   UNL     1      -0.166  10.183  22.822  0.00  0.00    +0.000 Cl
ATOM     20  C   UNL     1       1.020   9.382  20.540  0.00  0.00    +0.000 A 
ENDBRANCH   4  13
BRANCH   1  21
ATOM     21  N   UNL     1       4.385   4.754  16.854  0.00  0.00    +0.000 N 
ATOM     22  H   UNL     1       3.973   3.836  16.714  0.00  0.00    +0.000 HD
BRANCH  21  24
ATOM     23  C   UNL     1       6.409   6.158  17.006  0.00  0.00    +0.000 C 
ATOM     24  C   UNL     1       5.852   4.727  16.941  0.00  0.00    +0.000 C 
BRANCH  24  25
ATOM     25  C   UNL     1       6.408   4.070  15.665  0.00  0.00    +0.000 C 
ATOM     26  C   UNL     1       5.423   3.812  14.487  0.00  0.00    +0.000 C 
ATOM     27  C   UNL     1       6.578   4.160  13.531  0.00  0.00    +0.000 C 
ATOM     28  C   UNL     1       7.192   4.982  14.682  0.00  0.00    +0.000 C 
ENDBRANCH  24  25
ENDBRANCH  21  24
ENDBRANCH   1  21
TORSDOF 4
ENDMDL
MODEL 7
REMARK VINA RESULT:      -8.2      1.289      1.712
REMARK  Name = 
REMARK  5 active torsions:
REMARK  status: ('A' for Active; 'I' for Inactive)
REMARK    1  A    between atoms: C_1  and  C_2
REMARK    2  A    between atoms: C_2  and  N_3
REMARK    3  A    between atoms: C_2  and  C_23
REMARK    4  A    between atoms: N_3  and  C_4
REMARK    5  A    between atoms: N_7  and  C_8
REMARK                            x       y       z     vdW  Elec       q    Type
REMARK                         _______ _______ _______ _____ _____    ______ ____
ROOT
ATOM      1  C   UNL     1       3.310   5.072  17.737  0.00  0.00    +0.000 A 
ATOM      2  N   UNL     1       3.211   6.416  17.689  0.00  0.00    +0.000 NA
ATOM      3  C   UNL     1       2.430   7.008  18.604  0.00  0.00    +0.000 A 
ATOM      4  N   UNL     1       2.360   8.400  18.612  0.00  0.00    +0.000 N 
ATOM      5  N   UNL     1       1.742   6.341  19.539  0.00  0.00    +0.000 NA
ATOM      6  C   UNL     1       1.887   5.026  19.622  0.00  0.00    +0.000 A 
ATOM      7  C   UNL     1       1.165   4.350  20.597  0.00  0.00    +0.000 A 
ATOM      8  C   UNL     1       1.279   2.972  20.769  0.00  0.00    +0.000 A 
ATOM      9  C   UNL     1       2.144   2.251  19.956  0.00  0.00    +0.000 A 
ATOM     10  C   UNL     1       2.853   2.910  18.953  0.00  0.00    +0.000 A 
ATOM     11  C   UNL     1       2.719   4.311  18.764  0.00  0.00    +0.000 A 
ATOM     12  H   UNL     1       3.094   8.828  18.073  0.00  0.00    +0.000 HD
ENDROOT
BRANCH   4  13
ATOM     13  C   UNL     1       1.351   9.211  19.152  0.00  0.00    +0.000 A 
ATOM     14  C   UNL     1       1.100   9.200  20.533  0.00  0.00    +0.000 A 
ATOM     15  C   UNL     1       0.036   9.933  21.071  0.00  0.00    +0.000 A 
ATOM     16  C   UNL     1      -0.783  10.686  20.234  0.00  0.00    +0.000 A 
ATOM     17  F   UNL     1      -1.795  11.381  20.770  0.00  0.00    +0.000 F 
ATOM     18  C   UNL     1      -0.554  10.710  18.862  0.00  0.00    +0.000 A 
ATOM     19 CL   UNL     1      -1.555  11.632  17.812  0.00  0.00    +0.000 Cl
ATOM     20  C   UNL     1       0.498   9.967  18.328  0.00  0.00    +0.000 A 
ENDBRANCH   4  13
BRANCH   1  21
ATOM     21  N   UNL     1       4.022   4.393  16.727  0.00  0.00    +0.000 N 
ATOM     22  H   UNL     1       4.024   3.402  16.952  0.00  0.00    +0.000 HD
BRANCH  21  24
ATOM     23  C   UNL     1       6.125   3.835  15.562  0.00  0.00    +0.000 C 
ATOM     24  C   UNL     1       5.344   4.905  16.340  0.00  0.00    +0.000 C 
BRANCH  24  25
ATOM     25  C   UNL     1       6.141   5.222  17.620  0.00  0.00    +0.000 C 
ATOM     26  C   UNL     1       7.572   4.624  17.755  0.00  0.00    +0.000 C 
ATOM     27  C   UNL     1       7.983   5.933  18.454  0.00  0.00    +0.000 C 
ATOM     28  C   UNL     1       6.820   6.616  17.704  0.00  0.00    +0.000 C 
ENDBRANCH  24  25
ENDBRANCH  21  24
ENDBRANCH   1  21
TORSDOF 4
ENDMDL
MODEL 8
REMARK VINA RESULT:      -8.2      1.793      2.521
REMARK  Name = 
REMARK  5 active torsions:
REMARK  status: ('A' for Active; 'I' for Inactive)
REMARK    1  A    between atoms: C_1  and  C_2
REMARK    2  A    between atoms: C_2  and  N_3
REMARK    3  A    between atoms: C_2  and  C_23
REMARK    4  A    between atoms: N_3  and  C_4
REMARK    5  A    between atoms: N_7  and  C_8
REMARK                            x       y       z     vdW  Elec       q    Type
REMARK                         _______ _______ _______ _____ _____    ______ ____
ROOT
ATOM      1  C   UNL     1       3.687   6.091  17.784  0.00  0.00    +0.000 A 
ATOM      2  N   UNL     1       3.352   7.369  17.517  0.00  0.00    +0.000 NA
ATOM      3  C   UNL     1       2.479   7.961  18.345  0.00  0.00    +0.000 A 
ATOM      4  N   UNL     1       2.163   9.301  18.123  0.00  0.00    +0.000 N 
ATOM      5  N   UNL     1       1.922   7.352  19.398  0.00  0.00    +0.000 NA
ATOM      6  C   UNL     1       2.298   6.116  19.694  0.00  0.00    +0.000 A 
ATOM      7  C   UNL     1       1.708   5.499  20.789  0.00  0.00    +0.000 A 
ATOM      8  C   UNL     1       2.065   4.211  21.184  0.00  0.00    +0.000 A 
ATOM      9  C   UNL     1       3.043   3.525  20.477  0.00  0.00    +0.000 A 
ATOM     10  C   UNL     1       3.623   4.119  19.356  0.00  0.00    +0.000 A 
ATOM     11  C   UNL     1       3.242   5.422  18.941  0.00  0.00    +0.000 A 
ATOM     12  H   UNL     1       2.809   9.753  17.498  0.00  0.00    +0.000 HD
ENDROOT
BRANCH   4  13
ATOM     13  C   UNL     1       1.027  10.002  18.552  0.00  0.00    +0.000 A 
ATOM     14  C   UNL     1       1.117  10.905  19.623  0.00  0.00    +0.000 A 
ATOM     15  C   UNL     1      -0.027  11.540  20.120  0.00  0.00    +0.000 A 
ATOM     16  C   UNL     1      -1.269  11.281  19.548  0.00  0.00    +0.000 A 
ATOM     17  F   UNL     1      -2.351  11.901  20.038  0.00  0.00    +0.000 F 
ATOM     18  C   UNL     1      -1.383  10.389  18.487  0.00  0.00    +0.000 A 
ATOM     19 CL   UNL     1      -2.909  10.055  17.768  0.00  0.00    +0.000 Cl
ATOM     20  C   UNL     1      -0.243   9.747  18.003  0.00  0.00    +0.000 A 
ENDBRANCH   4  13
BRANCH   1  21
ATOM     21  N   UNL     1       4.508   5.386  16.879  0.00  0.00    +0.000 N 
ATOM     22  H   UNL     1       4.077   4.483  16.698  0.00  0.00    +0.000 HD
BRANCH  21  24
ATOM     23  C   UNL     1       6.581   6.698  17.150  0.00  0.00    +0.000 C 
ATOM     24  C   UNL     1       5.947   5.298  17.165  0.00  0.00    +0.000 C 
BRANCH  24  25
ATOM     25  C   UNL     1       6.619   4.472  16.052  0.00  0.00    +0.000 C 
ATOM     26  C   UNL     1       5.703   3.654  15.096  0.00  0.00    +0.000 C 
ATOM     27  C   UNL     1       6.685   4.001  13.962  0.00  0.00    +0.000 C 
ATOM     28  C   UNL     1       7.089   5.240  14.786  0.00  0.00    +0.000 C 
ENDBRANCH  24  25
ENDBRANCH  21  24
ENDBRANCH   1  21
TORSDOF 4
ENDMDL
MODEL 9
REMARK VINA RESULT:      -8.1      3.966      7.437
REMARK  Name = 
REMARK  5 active torsions:
REMARK  status: ('A' for Active; 'I' for Inactive)
REMARK    1  A    between atoms: C_1  and  C_2
REMARK    2  A    between atoms: C_2  and  N_3
REMARK    3  A    between atoms: C_2  and  C_23
REMARK    4  A    between atoms: N_3  and  C_4
REMARK    5  A    between atoms: N_7  and  C_8
REMARK                            x       y       z     vdW  Elec       q    Type
REMARK                         _______ _______ _______ _____ _____    ______ ____
ROOT
ATOM      1  C   UNL     1       3.239   5.551  19.924  0.00  0.00    +0.000 A 
ATOM      2  N   UNL     1       4.232   4.829  19.367  0.00  0.00    +0.000 NA
ATOM      3  C   UNL     1       4.733   5.270  18.204  0.00  0.00    +0.000 A 
ATOM      4  N   UNL     1       5.802   4.574  17.640  0.00  0.00    +0.000 N 
ATOM      5  N   UNL     1       4.294   6.364  17.571  0.00  0.00    +0.000 NA
ATOM      6  C   UNL     1       3.359   7.104  18.149  0.00  0.00    +0.000 A 
ATOM      7  C   UNL     1       2.914   8.235  17.477  0.00  0.00    +0.000 A 
ATOM      8  C   UNL     1       1.953   9.082  18.026  0.00  0.00    +0.000 A 
ATOM      9  C   UNL     1       1.430   8.801  19.281  0.00  0.00    +0.000 A 
ATOM     10  C   UNL     1       1.844   7.652  19.956  0.00  0.00    +0.000 A 
ATOM     11  C   UNL     1       2.807   6.778  19.386  0.00  0.00    +0.000 A 
ATOM     12  H   UNL     1       6.241   3.944  18.290  0.00  0.00    +0.000 HD
ENDROOT
BRANCH   4  13
ATOM     13  C   UNL     1       6.215   4.565  16.300  0.00  0.00    +0.000 A 
ATOM     14  C   UNL     1       7.412   5.197  15.926  0.00  0.00    +0.000 A 
ATOM     15  C   UNL     1       7.787   5.275  14.580  0.00  0.00    +0.000 A 
ATOM     16  C   UNL     1       6.972   4.720  13.598  0.00  0.00    +0.000 A 
ATOM     17  F   UNL     1       7.352   4.806  12.316  0.00  0.00    +0.000 F 
ATOM     18  C   UNL     1       5.781   4.092  13.945  0.00  0.00    +0.000 A 
ATOM     19 CL   UNL     1       4.760   3.402  12.745  0.00  0.00    +0.000 Cl
ATOM     20  C   UNL     1       5.403   4.027  15.285  0.00  0.00    +0.000 A 
ENDBRANCH   4  13
BRANCH   1  21
ATOM     21  N   UNL     1       2.597   5.068  21.084  0.00  0.00    +0.000 N 
ATOM     22  H   UNL     1       3.312   4.846  21.772  0.00  0.00    +0.000 HD
BRANCH  21  24
ATOM     23  C   UNL     1       1.845   2.877  21.937  0.00  0.00    +0.000 C 
ATOM     24  C   UNL     1       1.585   4.013  20.934  0.00  0.00    +0.000 C 
BRANCH  24  25
ATOM     25  C   UNL     1       1.703   3.418  19.519  0.00  0.00    +0.000 C 
ATOM     26  C   UNL     1       2.427   2.049  19.360  0.00  0.00    +0.000 C 
ATOM     27  C   UNL     1       1.401   1.707  18.264  0.00  0.00    +0.000 C 
ATOM     28  C   UNL     1       0.446   2.710  18.942  0.00  0.00    +0.000 C 
ENDBRANCH  24  25
ENDBRANCH  21  24
ENDBRANCH   1  21
TORSDOF 4
ENDMDL
