MODEL 1
REMARK VINA RESULT:      -7.0      0.000      0.000
REMARK  Name = 
REMARK  15 active torsions:
REMARK  status: ('A' for Active; 'I' for Inactive)
REMARK    1  A    between atoms: C_1  and  C_2
REMARK    2  A    between atoms: C_2  and  C_3
REMARK    3  A    between atoms: C_3  and  C_4
REMARK    4  A    between atoms: C_4  and  O_6
REMARK    5  A    between atoms: O_6  and  C_7
REMARK    6  A    between atoms: C_7  and  C_8
REMARK    7  A    between atoms: C_9  and  C_10
REMARK    8  A    between atoms: C_9  and  C_11
REMARK    9  A    between atoms: C_11  and  C_12
REMARK   10  A    between atoms: C_12  and  O_13
REMARK   11  A    between atoms: C_12  and  C_14
REMARK   12  A    between atoms: C_14  and  C_15
REMARK   13  A    between atoms: C_20  and  C_21
REMARK   14  A    between atoms: C_20  and  C_22
REMARK   15  A    between atoms: C_26  and  C_27
REMARK                            x       y       z     vdW  Elec       q    Type
REMARK                         _______ _______ _______ _____ _____    ______ ____
ROOT
ATOM      1  C   UNL     1       4.285   6.527  16.572  0.00  0.00    +0.000 C 
ENDROOT
BRANCH   1   2
ATOM      2  C   UNL     1       4.846   5.079  16.930  0.00  0.00    +0.000 C 
ATOM      3  C   UNL     1       5.285   4.424  15.585  0.00  0.00    +0.000 C 
ATOM      4  C   UNL     1       3.697   4.213  17.658  0.00  0.00    +0.000 C 
ATOM      5  C   UNL     1       3.326   2.904  16.913  0.00  0.00    +0.000 C 
ATOM      6  C   UNL     1       2.171   2.135  17.546  0.00  0.00    +0.000 C 
ATOM      7  C   UNL     1       2.459   1.831  19.006  0.00  0.00    +0.000 C 
ATOM      8  C   UNL     1       2.731   3.104  19.838  0.00  0.00    +0.000 C 
ATOM      9  C   UNL     1       1.449   3.957  19.961  0.00  0.00    +0.000 C 
ATOM     10  C   UNL     1       3.077   2.620  21.270  0.00  0.00    +0.000 C 
ATOM     11  C   UNL     1       3.849   3.936  19.155  0.00  0.00    +0.000 C 
ATOM     12  C   UNL     1       4.873   4.445  19.857  0.00  0.00    +0.000 C 
ATOM     13  C   UNL     1       5.949   5.320  19.334  0.00  0.00    +0.000 C 
ATOM     14  C   UNL     1       6.147   5.345  17.816  0.00  0.00    +0.000 C 
ATOM     15  C   UNL     1       7.408   4.540  17.448  0.00  0.00    +0.000 C 
ENDBRANCH   1   2
BRANCH   1  16
ATOM     16  O   UNL     1       4.955   7.035  15.420  0.00  0.00    +0.000 OA
ATOM     17  H   UNL     1       4.976   8.006  15.475  0.00  0.00    +0.000 HD
ENDBRANCH   1  16
BRANCH   1  18
ATOM     18  C   UNL     1       4.301   7.587  17.703  0.00  0.00    +0.000 C 
BRANCH  18  20
ATOM     19  C   UNL     1       2.200   8.930  17.550  0.00  0.00    +0.000 C 
ATOM     20  C   UNL     1       2.904   7.964  18.177  0.00  0.00    +0.000 C 
ATOM     21  C   UNL     1       2.361   7.171  19.336  0.00  0.00    +0.000 C 
BRANCH  19  22
ATOM     22  C   UNL     1       0.808   9.383  17.885  0.00  0.00    +0.000 C 
BRANCH  22  23
ATOM     23  O   UNL     1       0.850  10.397  18.895  0.00  0.00    +0.000 OA
BRANCH  23  24
ATOM     24  C   UNL     1      -0.321  10.613  19.551  0.00  0.00    +0.000 C 
ATOM     25  O   UNL     1      -1.430  10.657  19.035  0.00  0.00    +0.000 OA
BRANCH  24  26
ATOM     26  C   UNL     1      -0.071  10.764  21.030  0.00  0.00    +0.000 C 
BRANCH  26  28
ATOM     27  C   UNL     1      -0.013   9.473  23.213  0.00  0.00    +0.000 C 
ATOM     28  C   UNL     1       0.146   9.411  21.700  0.00  0.00    +0.000 C 
ENDBRANCH  26  28
ENDBRANCH  24  26
ENDBRANCH  23  24
ENDBRANCH  22  23
ENDBRANCH  19  22
ENDBRANCH  18  20
ENDBRANCH   1  18
TORSDOF 9
ENDMDL
MODEL 2
REMARK VINA RESULT:      -6.7      1.884      4.540
REMARK  Name = 
REMARK  15 active torsions:
REMARK  status: ('A' for Active; 'I' for Inactive)
REMARK    1  A    between atoms: C_1  and  C_2
REMARK    2  A    between atoms: C_2  and  C_3
REMARK    3  A    between atoms: C_3  and  C_4
REMARK    4  A    between atoms: C_4  and  O_6
REMARK    5  A    between atoms: O_6  and  C_7
REMARK    6  A    between atoms: C_7  and  C_8
REMARK    7  A    between atoms: C_9  and  C_10
REMARK    8  A    between atoms: C_9  and  C_11
REMARK    9  A    between atoms: C_11  and  C_12
REMARK   10  A    between atoms: C_12  and  O_13
REMARK   11  A    between atoms: C_12  and  C_14
REMARK   12  A    between atoms: C_14  and  C_15
REMARK   13  A    between atoms: C_20  and  C_21
REMARK   14  A    between atoms: C_20  and  C_22
REMARK   15  A    between atoms: C_26  and  C_27
REMARK                            x       y       z     vdW  Elec       q    Type
REMARK                         _______ _______ _______ _____ _____    ______ ____
ROOT
ATOM      1  C   UNL     1       1.793   6.749  19.394  0.00  0.00    +0.000 C 
ENDROOT
BRANCH   1   2
ATOM      2  C   UNL     1       2.555   5.352  19.494  0.00  0.00    +0.000 C 
ATOM      3  C   UNL     1       2.787   5.078  21.011  0.00  0.00    +0.000 C 
ATOM      4  C   UNL     1       3.952   5.434  18.692  0.00  0.00    +0.000 C 
ATOM      5  C   UNL     1       5.202   5.163  19.569  0.00  0.00    +0.000 C 
ATOM      6  C   UNL     1       6.526   5.338  18.835  0.00  0.00    +0.000 C 
ATOM      7  C   UNL     1       6.575   4.469  17.590  0.00  0.00    +0.000 C 
ATOM      8  C   UNL     1       5.416   4.764  16.613  0.00  0.00    +0.000 C 
ATOM      9  C   UNL     1       5.569   6.172  15.996  0.00  0.00    +0.000 C 
ATOM     10  C   UNL     1       5.566   3.753  15.445  0.00  0.00    +0.000 C 
ATOM     11  C   UNL     1       4.065   4.669  17.371  0.00  0.00    +0.000 C 
ATOM     12  C   UNL     1       3.020   3.997  16.864  0.00  0.00    +0.000 C 
ATOM     13  C   UNL     1       1.663   3.907  17.452  0.00  0.00    +0.000 C 
ATOM     14  C   UNL     1       1.522   4.273  18.932  0.00  0.00    +0.000 C 
ATOM     15  C   UNL     1       1.346   2.989  19.765  0.00  0.00    +0.000 C 
ENDBRANCH   1   2
BRANCH   1  16
ATOM     16  O   UNL     1       2.182   7.429  18.202  0.00  0.00    +0.000 OA
ATOM     17  H   UNL     1       1.399   7.539  17.637  0.00  0.00    +0.000 HD
ENDBRANCH   1  16
BRANCH   1  18
ATOM     18  C   UNL     1       1.912   7.703  20.610  0.00  0.00    +0.000 C 
BRANCH  18  20
ATOM     19  C   UNL     1       0.845   9.807  19.788  0.00  0.00    +0.000 C 
ATOM     20  C   UNL     1       0.816   8.760  20.638  0.00  0.00    +0.000 C 
ATOM     21  C   UNL     1      -0.296   8.534  21.628  0.00  0.00    +0.000 C 
BRANCH  19  22
ATOM     22  C   UNL     1      -0.177  10.902  19.681  0.00  0.00    +0.000 C 
BRANCH  22  23
ATOM     23  O   UNL     1      -1.342  10.424  19.000  0.00  0.00    +0.000 OA
BRANCH  23  24
ATOM     24  C   UNL     1      -2.252  11.376  18.664  0.00  0.00    +0.000 C 
ATOM     25  O   UNL     1      -2.792  12.151  19.441  0.00  0.00    +0.000 OA
BRANCH  24  26
ATOM     26  C   UNL     1      -2.488  11.371  17.175  0.00  0.00    +0.000 C 
BRANCH  26  28
ATOM     27  C   UNL     1      -2.872   9.908  15.138  0.00  0.00    +0.000 C 
ATOM     28  C   UNL     1      -2.539   9.950  16.623  0.00  0.00    +0.000 C 
ENDBRANCH  26  28
ENDBRANCH  24  26
ENDBRANCH  23  24
ENDBRANCH  22  23
ENDBRANCH  19  22
ENDBRANCH  18  20
ENDBRANCH   1  18
TORSDOF 9
ENDMDL
MODEL 3
REMARK VINA RESULT:      -6.7      1.064      1.634
REMARK  Name = 
REMARK  15 active torsions:
REMARK  status: ('A' for Active; 'I' for Inactive)
REMARK    1  A    between atoms: C_1  and  C_2
REMARK    2  A    between atoms: C_2  and  C_3
REMARK    3  A    between atoms: C_3  and  C_4
REMARK    4  A    between atoms: C_4  and  O_6
REMARK    5  A    between atoms: O_6  and  C_7
REMARK    6  A    between atoms: C_7  and  C_8
REMARK    7  A    between atoms: C_9  and  C_10
REMARK    8  A    between atoms: C_9  and  C_11
REMARK    9  A    between atoms: C_11  and  C_12
REMARK   10  A    between atoms: C_12  and  O_13
REMARK   11  A    between atoms: C_12  and  C_14
REMARK   12  A    between atoms: C_14  and  C_15
REMARK   13  A    between atoms: C_20  and  C_21
REMARK   14  A    between atoms: C_20  and  C_22
REMARK   15  A    between atoms: C_26  and  C_27
REMARK                            x       y       z     vdW  Elec       q    Type
REMARK                         _______ _______ _______ _____ _____    ______ ____
ROOT
ATOM      1  C   UNL     1       4.314   6.494  16.543  0.00  0.00    +0.000 C 
ENDROOT
BRANCH   1   2
ATOM      2  C   UNL     1       4.869   5.046  16.914  0.00  0.00    +0.000 C 
ATOM      3  C   UNL     1       5.307   4.379  15.574  0.00  0.00    +0.000 C 
ATOM      4  C   UNL     1       3.715   4.191  17.646  0.00  0.00    +0.000 C 
ATOM      5  C   UNL     1       3.339   2.877  16.911  0.00  0.00    +0.000 C 
ATOM      6  C   UNL     1       2.181   2.119  17.548  0.00  0.00    +0.000 C 
ATOM      7  C   UNL     1       2.465   1.825  19.011  0.00  0.00    +0.000 C 
ATOM      8  C   UNL     1       2.741   3.103  19.833  0.00  0.00    +0.000 C 
ATOM      9  C   UNL     1       1.462   3.963  19.948  0.00  0.00    +0.000 C 
ATOM     10  C   UNL     1       3.083   2.629  21.270  0.00  0.00    +0.000 C 
ATOM     11  C   UNL     1       3.863   3.925  19.146  0.00  0.00    +0.000 C 
ATOM     12  C   UNL     1       4.889   4.435  19.845  0.00  0.00    +0.000 C 
ATOM     13  C   UNL     1       5.969   5.301  19.317  0.00  0.00    +0.000 C 
ATOM     14  C   UNL     1       6.170   5.314  17.800  0.00  0.00    +0.000 C 
ATOM     15  C   UNL     1       7.427   4.501  17.440  0.00  0.00    +0.000 C 
ENDBRANCH   1   2
BRANCH   1  16
ATOM     16  O   UNL     1       5.005   7.000  15.402  0.00  0.00    +0.000 OA
ATOM     17  H   UNL     1       4.391   7.549  14.885  0.00  0.00    +0.000 HD
ENDBRANCH   1  16
BRANCH   1  18
ATOM     18  C   UNL     1       4.311   7.556  17.672  0.00  0.00    +0.000 C 
BRANCH  18  20
ATOM     19  C   UNL     1       2.727   7.288  19.586  0.00  0.00    +0.000 C 
ATOM     20  C   UNL     1       2.945   7.717  18.325  0.00  0.00    +0.000 C 
ATOM     21  C   UNL     1       1.895   8.414  17.501  0.00  0.00    +0.000 C 
BRANCH  19  22
ATOM     22  C   UNL     1       1.449   7.408  20.365  0.00  0.00    +0.000 C 
BRANCH  22  23
ATOM     23  O   UNL     1       1.338   8.719  20.928  0.00  0.00    +0.000 OA
BRANCH  23  24
ATOM     24  C   UNL     1       0.074   9.114  21.239  0.00  0.00    +0.000 C 
ATOM     25  O   UNL     1      -0.597   8.688  22.169  0.00  0.00    +0.000 OA
BRANCH  24  26
ATOM     26  C   UNL     1      -0.387  10.188  20.286  0.00  0.00    +0.000 C 
BRANCH  26  28
ATOM     27  C   UNL     1       1.006  12.255  20.757  0.00  0.00    +0.000 C 
ATOM     28  C   UNL     1       0.774  11.067  19.833  0.00  0.00    +0.000 C 
ENDBRANCH  26  28
ENDBRANCH  24  26
ENDBRANCH  23  24
ENDBRANCH  22  23
ENDBRANCH  19  22
ENDBRANCH  18  20
ENDBRANCH   1  18
TORSDOF 9
ENDMDL
MODEL 4
REMARK VINA RESULT:      -6.6      0.709      1.212
REMARK  Name = 
REMARK  15 active torsions:
REMARK  status: ('A' for Active; 'I' for Inactive)
REMARK    1  A    between atoms: C_1  and  C_2
REMARK    2  A    between atoms: C_2  and  C_3
REMARK    3  A    between atoms: C_3  and  C_4
REMARK    4  A    between atoms: C_4  and  O_6
REMARK    5  A    between atoms: O_6  and  C_7
REMARK    6  A    between atoms: C_7  and  C_8
REMARK    7  A    between atoms: C_9  and  C_10
REMARK    8  A    between atoms: C_9  and  C_11
REMARK    9  A    between atoms: C_11  and  C_12
REMARK   10  A    between atoms: C_12  and  O_13
REMARK   11  A    between atoms: C_12  and  C_14
REMARK   12  A    between atoms: C_14  and  C_15
REMARK   13  A    between atoms: C_20  and  C_21
REMARK   14  A    between atoms: C_20  and  C_22
REMARK   15  A    between atoms: C_26  and  C_27
REMARK                            x       y       z     vdW  Elec       q    Type
REMARK                         _______ _______ _______ _____ _____    ______ ____
ROOT
ATOM      1  C   UNL     1       4.321   6.512  16.489  0.00  0.00    +0.000 C 
ENDROOT
BRANCH   1   2
ATOM      2  C   UNL     1       4.847   5.058  16.880  0.00  0.00    +0.000 C 
ATOM      3  C   UNL     1       5.248   4.355  15.547  0.00  0.00    +0.000 C 
ATOM      4  C   UNL     1       3.684   4.245  17.646  0.00  0.00    +0.000 C 
ATOM      5  C   UNL     1       3.267   2.927  16.942  0.00  0.00    +0.000 C 
ATOM      6  C   UNL     1       2.100   2.208  17.611  0.00  0.00    +0.000 C 
ATOM      7  C   UNL     1       2.399   1.936  19.075  0.00  0.00    +0.000 C 
ATOM      8  C   UNL     1       2.718   3.223  19.868  0.00  0.00    +0.000 C 
ATOM      9  C   UNL     1       1.462   4.114  19.985  0.00  0.00    +0.000 C 
ATOM     10  C   UNL     1       3.071   2.768  21.309  0.00  0.00    +0.000 C 
ATOM     11  C   UNL     1       3.849   4.005  19.148  0.00  0.00    +0.000 C 
ATOM     12  C   UNL     1       4.897   4.503  19.822  0.00  0.00    +0.000 C 
ATOM     13  C   UNL     1       5.989   5.333  19.262  0.00  0.00    +0.000 C 
ATOM     14  C   UNL     1       6.167   5.312  17.741  0.00  0.00    +0.000 C 
ATOM     15  C   UNL     1       7.399   4.462  17.379  0.00  0.00    +0.000 C 
ENDBRANCH   1   2
BRANCH   1  16
ATOM     16  O   UNL     1       4.985   6.967  15.312  0.00  0.00    +0.000 OA
ATOM     17  H   UNL     1       4.329   7.051  14.598  0.00  0.00    +0.000 HD
ENDBRANCH   1  16
BRANCH   1  18
ATOM     18  C   UNL     1       4.388   7.602  17.589  0.00  0.00    +0.000 C 
BRANCH  18  20
ATOM     19  C   UNL     1       2.738   7.503  19.462  0.00  0.00    +0.000 C 
ATOM     20  C   UNL     1       3.028   7.901  18.206  0.00  0.00    +0.000 C 
ATOM     21  C   UNL     1       2.073   8.692  17.352  0.00  0.00    +0.000 C 
BRANCH  19  22
ATOM     22  C   UNL     1       1.459   7.753  20.208  0.00  0.00    +0.000 C 
BRANCH  22  23
ATOM     23  O   UNL     1       1.220   9.161  20.316  0.00  0.00    +0.000 OA
BRANCH  23  24
ATOM     24  C   UNL     1      -0.042   9.510  20.683  0.00  0.00    +0.000 C 
ATOM     25  O   UNL     1      -0.762  10.303  20.092  0.00  0.00    +0.000 OA
BRANCH  24  26
ATOM     26  C   UNL     1      -0.455   8.753  21.920  0.00  0.00    +0.000 C 
BRANCH  26  28
ATOM     27  C   UNL     1      -1.196  10.860  23.124  0.00  0.00    +0.000 C 
ATOM     28  C   UNL     1      -0.321   9.614  23.171  0.00  0.00    +0.000 C 
ENDBRANCH  26  28
ENDBRANCH  24  26
ENDBRANCH  23  24
ENDBRANCH  22  23
ENDBRANCH  19  22
ENDBRANCH  18  20
ENDBRANCH   1  18
TORSDOF 9
ENDMDL
MODEL 5
REMARK VINA RESULT:      -6.6      1.410      1.790
REMARK  Name = 
REMARK  15 active torsions:
REMARK  status: ('A' for Active; 'I' for Inactive)
REMARK    1  A    between atoms: C_1  and  C_2
REMARK    2  A    between atoms: C_2  and  C_3
REMARK    3  A    between atoms: C_3  and  C_4
REMARK    4  A    between atoms: C_4  and  O_6
REMARK    5  A    between atoms: O_6  and  C_7
REMARK    6  A    between atoms: C_7  and  C_8
REMARK    7  A    between atoms: C_9  and  C_10
REMARK    8  A    between atoms: C_9  and  C_11
REMARK    9  A    between atoms: C_11  and  C_12
REMARK   10  A    between atoms: C_12  and  O_13
REMARK   11  A    between atoms: C_12  and  C_14
REMARK   12  A    between atoms: C_14  and  C_15
REMARK   13  A    between atoms: C_20  and  C_21
REMARK   14  A    between atoms: C_20  and  C_22
REMARK   15  A    between atoms: C_26  and  C_27
REMARK                            x       y       z     vdW  Elec       q    Type
REMARK                         _______ _______ _______ _____ _____    ______ ____
ROOT
ATOM      1  C   UNL     1       4.452   6.424  16.439  0.00  0.00    +0.000 C 
ENDROOT
BRANCH   1   2
ATOM      2  C   UNL     1       5.002   4.994  16.878  0.00  0.00    +0.000 C 
ATOM      3  C   UNL     1       5.473   4.277  15.577  0.00  0.00    +0.000 C 
ATOM      4  C   UNL     1       3.833   4.163  17.617  0.00  0.00    +0.000 C 
ATOM      5  C   UNL     1       3.479   2.820  16.925  0.00  0.00    +0.000 C 
ATOM      6  C   UNL     1       2.308   2.083  17.565  0.00  0.00    +0.000 C 
ATOM      7  C   UNL     1       2.558   1.847  19.044  0.00  0.00    +0.000 C 
ATOM      8  C   UNL     1       2.812   3.158  19.821  0.00  0.00    +0.000 C 
ATOM      9  C   UNL     1       1.528   4.016  19.873  0.00  0.00    +0.000 C 
ATOM     10  C   UNL     1       3.121   2.742  21.283  0.00  0.00    +0.000 C 
ATOM     11  C   UNL     1       3.947   3.957  19.129  0.00  0.00    +0.000 C 
ATOM     12  C   UNL     1       4.955   4.497  19.831  0.00  0.00    +0.000 C 
ATOM     13  C   UNL     1       6.045   5.346  19.295  0.00  0.00    +0.000 C 
ATOM     14  C   UNL     1       6.281   5.301  17.783  0.00  0.00    +0.000 C 
ATOM     15  C   UNL     1       7.549   4.479  17.485  0.00  0.00    +0.000 C 
ENDBRANCH   1   2
BRANCH   1  16
ATOM     16  O   UNL     1       5.259   6.951  15.387  0.00  0.00    +0.000 OA
ATOM     17  H   UNL     1       6.166   7.062  15.718  0.00  0.00    +0.000 HD
ENDBRANCH   1  16
BRANCH   1  18
ATOM     18  C   UNL     1       4.281   7.485  17.556  0.00  0.00    +0.000 C 
BRANCH  18  20
ATOM     19  C   UNL     1       2.439   9.128  17.936  0.00  0.00    +0.000 C 
ATOM     20  C   UNL     1       2.822   7.841  17.811  0.00  0.00    +0.000 C 
ATOM     21  C   UNL     1       1.858   6.686  17.867  0.00  0.00    +0.000 C 
BRANCH  19  22
ATOM     22  C   UNL     1       1.039   9.628  18.157  0.00  0.00    +0.000 C 
BRANCH  22  23
ATOM     23  O   UNL     1       1.069  10.969  18.657  0.00  0.00    +0.000 OA
BRANCH  23  24
ATOM     24  C   UNL     1      -0.118  11.629  18.624  0.00  0.00    +0.000 C 
ATOM     25  O   UNL     1      -0.260  12.836  18.482  0.00  0.00    +0.000 OA
BRANCH  24  26
ATOM     26  C   UNL     1      -1.262  10.655  18.756  0.00  0.00    +0.000 C 
BRANCH  26  28
ATOM     27  C   UNL     1      -3.291   9.737  17.540  0.00  0.00    +0.000 C 
ATOM     28  C   UNL     1      -2.339  10.914  17.708  0.00  0.00    +0.000 C 
ENDBRANCH  26  28
ENDBRANCH  24  26
ENDBRANCH  23  24
ENDBRANCH  22  23
ENDBRANCH  19  22
ENDBRANCH  18  20
ENDBRANCH   1  18
TORSDOF 9
ENDMDL
MODEL 6
REMARK VINA RESULT:      -6.6      1.940      4.329
REMARK  Name = 
REMARK  15 active torsions:
REMARK  status: ('A' for Active; 'I' for Inactive)
REMARK    1  A    between atoms: C_1  and  C_2
REMARK    2  A    between atoms: C_2  and  C_3
REMARK    3  A    between atoms: C_3  and  C_4
REMARK    4  A    between atoms: C_4  and  O_6
REMARK    5  A    between atoms: O_6  and  C_7
REMARK    6  A    between atoms: C_7  and  C_8
REMARK    7  A    between atoms: C_9  and  C_10
REMARK    8  A    between atoms: C_9  and  C_11
REMARK    9  A    between atoms: C_11  and  C_12
REMARK   10  A    between atoms: C_12  and  O_13
REMARK   11  A    between atoms: C_12  and  C_14
REMARK   12  A    between atoms: C_14  and  C_15
REMARK   13  A    between atoms: C_20  and  C_21
REMARK   14  A    between atoms: C_20  and  C_22
REMARK   15  A    between atoms: C_26  and  C_27
REMARK                            x       y       z     vdW  Elec       q    Type
REMARK                         _______ _______ _______ _____ _____    ______ ____
ROOT
ATOM      1  C   UNL     1       2.195   4.777  19.308  0.00  0.00    +0.000 C 
ENDROOT
BRANCH   1   2
ATOM      2  C   UNL     1       3.489   3.866  19.116  0.00  0.00    +0.000 C 
ATOM      3  C   UNL     1       3.786   3.214  20.501  0.00  0.00    +0.000 C 
ATOM      4  C   UNL     1       4.726   4.774  18.617  0.00  0.00    +0.000 C 
ATOM      5  C   UNL     1       5.950   4.753  19.570  0.00  0.00    +0.000 C 
ATOM      6  C   UNL     1       7.079   5.687  19.150  0.00  0.00    +0.000 C 
ATOM      7  C   UNL     1       7.529   5.390  17.731  0.00  0.00    +0.000 C 
ATOM      8  C   UNL     1       6.379   5.500  16.705  0.00  0.00    +0.000 C 
ATOM      9  C   UNL     1       5.913   6.966  16.566  0.00  0.00    +0.000 C 
ATOM     10  C   UNL     1       6.981   5.097  15.334  0.00  0.00    +0.000 C 
ATOM     11  C   UNL     1       5.190   4.616  17.167  0.00  0.00    +0.000 C 
ATOM     12  C   UNL     1       4.556   3.793  16.318  0.00  0.00    +0.000 C 
ATOM     13  C   UNL     1       3.362   2.967  16.620  0.00  0.00    +0.000 C 
ATOM     14  C   UNL     1       3.044   2.721  18.097  0.00  0.00    +0.000 C 
ATOM     15  C   UNL     1       3.430   1.278  18.473  0.00  0.00    +0.000 C 
ENDBRANCH   1   2
BRANCH   1  16
ATOM     16  O   UNL     1       1.019   3.977  19.199  0.00  0.00    +0.000 OA
ATOM     17  H   UNL     1       0.927   3.448  20.010  0.00  0.00    +0.000 HD
ENDBRANCH   1  16
BRANCH   1  18
ATOM     18  C   UNL     1       2.072   6.024  18.395  0.00  0.00    +0.000 C 
BRANCH  18  20
ATOM     19  C   UNL     1       1.740   7.314  20.508  0.00  0.00    +0.000 C 
ATOM     20  C   UNL     1       1.989   7.325  19.183  0.00  0.00    +0.000 C 
ATOM     21  C   UNL     1       2.244   8.588  18.403  0.00  0.00    +0.000 C 
BRANCH  19  22
ATOM     22  C   UNL     1       1.662   8.509  21.415  0.00  0.00    +0.000 C 
BRANCH  22  23
ATOM     23  O   UNL     1       0.305   8.739  21.809  0.00  0.00    +0.000 OA
BRANCH  23  24
ATOM     24  C   UNL     1       0.027  10.003  22.226  0.00  0.00    +0.000 C 
ATOM     25  O   UNL     1      -0.267  10.329  23.368  0.00  0.00    +0.000 OA
BRANCH  24  26
ATOM     26  C   UNL     1       0.162  10.973  21.079  0.00  0.00    +0.000 C 
BRANCH  26  28
ATOM     27  C   UNL     1      -0.430  11.263  18.629  0.00  0.00    +0.000 C 
ATOM     28  C   UNL     1      -0.839  10.667  19.970  0.00  0.00    +0.000 C 
ENDBRANCH  26  28
ENDBRANCH  24  26
ENDBRANCH  23  24
ENDBRANCH  22  23
ENDBRANCH  19  22
ENDBRANCH  18  20
ENDBRANCH   1  18
TORSDOF 9
ENDMDL
MODEL 7
REMARK VINA RESULT:      -6.5      2.167      4.372
REMARK  Name = 
REMARK  15 active torsions:
REMARK  status: ('A' for Active; 'I' for Inactive)
REMARK    1  A    between atoms: C_1  and  C_2
REMARK    2  A    between atoms: C_2  and  C_3
REMARK    3  A    between atoms: C_3  and  C_4
REMARK    4  A    between atoms: C_4  and  O_6
REMARK    5  A    between atoms: O_6  and  C_7
REMARK    6  A    between atoms: C_7  and  C_8
REMARK    7  A    between atoms: C_9  and  C_10
REMARK    8  A    between atoms: C_9  and  C_11
REMARK    9  A    between atoms: C_11  and  C_12
REMARK   10  A    between atoms: C_12  and  O_13
REMARK   11  A    between atoms: C_12  and  C_14
REMARK   12  A    between atoms: C_14  and  C_15
REMARK   13  A    between atoms: C_20  and  C_21
REMARK   14  A    between atoms: C_20  and  C_22
REMARK   15  A    between atoms: C_26  and  C_27
REMARK                            x       y       z     vdW  Elec       q    Type
REMARK                         _______ _______ _______ _____ _____    ______ ____
ROOT
ATOM      1  C   UNL     1       2.318   4.895  19.632  0.00  0.00    +0.000 C 
ENDROOT
BRANCH   1   2
ATOM      2  C   UNL     1       3.562   3.951  19.309  0.00  0.00    +0.000 C 
ATOM      3  C   UNL     1       3.948   3.248  20.646  0.00  0.00    +0.000 C 
ATOM      4  C   UNL     1       4.784   4.835  18.736  0.00  0.00    +0.000 C 
ATOM      5  C   UNL     1       6.079   4.748  19.585  0.00  0.00    +0.000 C 
ATOM      6  C   UNL     1       7.201   5.659  19.101  0.00  0.00    +0.000 C 
ATOM      7  C   UNL     1       7.525   5.392  17.641  0.00  0.00    +0.000 C 
ATOM      8  C   UNL     1       6.300   5.569  16.717  0.00  0.00    +0.000 C 
ATOM      9  C   UNL     1       5.873   7.052  16.658  0.00  0.00    +0.000 C 
ATOM     10  C   UNL     1       6.775   5.191  15.290  0.00  0.00    +0.000 C 
ATOM     11  C   UNL     1       5.124   4.708  17.250  0.00  0.00    +0.000 C 
ATOM     12  C   UNL     1       4.396   3.931  16.433  0.00  0.00    +0.000 C 
ATOM     13  C   UNL     1       3.205   3.134  16.808  0.00  0.00    +0.000 C 
ATOM     14  C   UNL     1       2.999   2.851  18.299  0.00  0.00    +0.000 C 
ATOM     15  C   UNL     1       3.367   1.387  18.601  0.00  0.00    +0.000 C 
ENDBRANCH   1   2
BRANCH   1  16
ATOM     16  O   UNL     1       1.153   4.102  19.849  0.00  0.00    +0.000 OA
ATOM     17  H   UNL     1       0.730   4.391  20.676  0.00  0.00    +0.000 HD
ENDBRANCH   1  16
BRANCH   1  18
ATOM     18  C   UNL     1       2.009   6.021  18.613  0.00  0.00    +0.000 C 
BRANCH  18  20
ATOM     19  C   UNL     1       1.611   7.515  20.576  0.00  0.00    +0.000 C 
ATOM     20  C   UNL     1       1.908   7.394  19.266  0.00  0.00    +0.000 C 
ATOM     21  C   UNL     1       2.202   8.573  18.376  0.00  0.00    +0.000 C 
BRANCH  19  22
ATOM     22  C   UNL     1       1.510   8.794  21.356  0.00  0.00    +0.000 C 
BRANCH  22  23
ATOM     23  O   UNL     1       0.135   9.142  21.555  0.00  0.00    +0.000 OA
BRANCH  23  24
ATOM     24  C   UNL     1      -0.108   9.979  22.598  0.00  0.00    +0.000 C 
ATOM     25  O   UNL     1       0.214   9.780  23.761  0.00  0.00    +0.000 OA
BRANCH  24  26
ATOM     26  C   UNL     1      -0.815  11.222  22.117  0.00  0.00    +0.000 C 
BRANCH  26  28
ATOM     27  C   UNL     1      -1.698  13.271  23.324  0.00  0.00    +0.000 C 
ATOM     28  C   UNL     1      -1.778  11.758  23.171  0.00  0.00    +0.000 C 
ENDBRANCH  26  28
ENDBRANCH  24  26
ENDBRANCH  23  24
ENDBRANCH  22  23
ENDBRANCH  19  22
ENDBRANCH  18  20
ENDBRANCH   1  18
TORSDOF 9
ENDMDL
MODEL 8
REMARK VINA RESULT:      -6.5      1.915      4.379
REMARK  Name = 
REMARK  15 active torsions:
REMARK  status: ('A' for Active; 'I' for Inactive)
REMARK    1  A    between atoms: C_1  and  C_2
REMARK    2  A    between atoms: C_2  and  C_3
REMARK    3  A    between atoms: C_3  and  C_4
REMARK    4  A    between atoms: C_4  and  O_6
REMARK    5  A    between atoms: O_6  and  C_7
REMARK    6  A    between atoms: C_7  and  C_8
REMARK    7  A    between atoms: C_9  and  C_10
REMARK    8  A    between atoms: C_9  and  C_11
REMARK    9  A    between atoms: C_11  and  C_12
REMARK   10  A    between atoms: C_12  and  O_13
REMARK   11  A    between atoms: C_12  and  C_14
REMARK   12  A    between atoms: C_14  and  C_15
REMARK   13  A    between atoms: C_20  and  C_21
REMARK   14  A    between atoms: C_20  and  C_22
REMARK   15  A    between atoms: C_26  and  C_27
REMARK                            x       y       z     vdW  Elec       q    Type
REMARK                         _______ _______ _______ _____ _____    ______ ____
ROOT
ATOM      1  C   UNL     1       2.554   5.581  19.480  0.00  0.00    +0.000 C 
ENDROOT
BRANCH   1   2
ATOM      2  C   UNL     1       3.533   4.361  19.172  0.00  0.00    +0.000 C 
ATOM      3  C   UNL     1       4.093   3.880  20.545  0.00  0.00    +0.000 C 
ATOM      4  C   UNL     1       4.719   4.846  18.192  0.00  0.00    +0.000 C 
ATOM      5  C   UNL     1       6.141   4.673  18.787  0.00  0.00    +0.000 C 
ATOM      6  C   UNL     1       7.255   5.223  17.903  0.00  0.00    +0.000 C 
ATOM      7  C   UNL     1       7.200   4.607  16.517  0.00  0.00    +0.000 C 
ATOM      8  C   UNL     1       5.843   4.836  15.815  0.00  0.00    +0.000 C 
ATOM      9  C   UNL     1       5.650   6.332  15.481  0.00  0.00    +0.000 C 
ATOM     10  C   UNL     1       5.925   4.089  14.458  0.00  0.00    +0.000 C 
ATOM     11  C   UNL     1       4.696   4.355  16.743  0.00  0.00    +0.000 C 
ATOM     12  C   UNL     1       3.693   3.592  16.282  0.00  0.00    +0.000 C 
ATOM     13  C   UNL     1       2.506   3.144  17.047  0.00  0.00    +0.000 C 
ATOM     14  C   UNL     1       2.595   3.216  18.573  0.00  0.00    +0.000 C 
ATOM     15  C   UNL     1       2.789   1.799  19.146  0.00  0.00    +0.000 C 
ENDBRANCH   1   2
BRANCH   1  16
ATOM     16  O   UNL     1       1.254   5.089  19.800  0.00  0.00    +0.000 OA
ATOM     17  H   UNL     1       0.953   4.513  19.078  0.00  0.00    +0.000 HD
ENDBRANCH   1  16
BRANCH   1  18
ATOM     18  C   UNL     1       2.449   6.687  18.399  0.00  0.00    +0.000 C 
BRANCH  18  20
ATOM     19  C   UNL     1       1.609   9.024  18.129  0.00  0.00    +0.000 C 
ATOM     20  C   UNL     1       1.929   8.006  18.954  0.00  0.00    +0.000 C 
ATOM     21  C   UNL     1       1.758   8.073  20.449  0.00  0.00    +0.000 C 
BRANCH  19  22
ATOM     22  C   UNL     1       1.058  10.363  18.530  0.00  0.00    +0.000 C 
BRANCH  22  23
ATOM     23  O   UNL     1      -0.373  10.337  18.491  0.00  0.00    +0.000 OA
BRANCH  23  24
ATOM     24  C   UNL     1      -0.973  11.550  18.365  0.00  0.00    +0.000 C 
ATOM     25  O   UNL     1      -0.458  12.630  18.619  0.00  0.00    +0.000 OA
BRANCH  24  26
ATOM     26  C   UNL     1      -2.374  11.387  17.830  0.00  0.00    +0.000 C 
BRANCH  26  28
ATOM     27  C   UNL     1      -2.872   9.854  15.870  0.00  0.00    +0.000 C 
ATOM     28  C   UNL     1      -2.632   9.955  17.371  0.00  0.00    +0.000 C 
ENDBRANCH  26  28
ENDBRANCH  24  26
ENDBRANCH  23  24
ENDBRANCH  22  23
ENDBRANCH  19  22
ENDBRANCH  18  20
ENDBRANCH   1  18
TORSDOF 9
ENDMDL
MODEL 9
REMARK VINA RESULT:      -6.5      1.942      4.330
REMARK  Name = 
REMARK  15 active torsions:
REMARK  status: ('A' for Active; 'I' for Inactive)
REMARK    1  A    between atoms: C_1  and  C_2
REMARK    2  A    between atoms: C_2  and  C_3
REMARK    3  A    between atoms: C_3  and  C_4
REMARK    4  A    between atoms: C_4  and  O_6
REMARK    5  A    between atoms: O_6  and  C_7
REMARK    6  A    between atoms: C_7  and  C_8
REMARK    7  A    between atoms: C_9  and  C_10
REMARK    8  A    between atoms: C_9  and  C_11
REMARK    9  A    between atoms: C_11  and  C_12
REMARK   10  A    between atoms: C_12  and  O_13
REMARK   11  A    between atoms: C_12  and  C_14
REMARK   12  A    between atoms: C_14  and  C_15
REMARK   13  A    between atoms: C_20  and  C_21
REMARK   14  A    between atoms: C_20  and  C_22
REMARK   15  A    between atoms: C_26  and  C_27
REMARK                            x       y       z     vdW  Elec       q    Type
REMARK                         _______ _______ _______ _____ _____    ______ ____
ROOT
ATOM      1  C   UNL     1       2.850   4.564  20.423  0.00  0.00    +0.000 C 
ENDROOT
BRANCH   1   2
ATOM      2  C   UNL     1       3.835   3.652  19.563  0.00  0.00    +0.000 C 
ATOM      3  C   UNL     1       4.564   2.710  20.569  0.00  0.00    +0.000 C 
ATOM      4  C   UNL     1       4.883   4.583  18.765  0.00  0.00    +0.000 C 
ATOM      5  C   UNL     1       6.369   4.303  19.113  0.00  0.00    +0.000 C 
ATOM      6  C   UNL     1       7.354   5.249  18.435  0.00  0.00    +0.000 C 
ATOM      7  C   UNL     1       7.168   5.236  16.928  0.00  0.00    +0.000 C 
ATOM      8  C   UNL     1       5.733   5.615  16.501  0.00  0.00    +0.000 C 
ATOM      9  C   UNL     1       5.445   7.098  16.821  0.00  0.00    +0.000 C 
ATOM     10  C   UNL     1       5.690   5.482  14.956  0.00  0.00    +0.000 C 
ATOM     11  C   UNL     1       4.717   4.712  17.250  0.00  0.00    +0.000 C 
ATOM     12  C   UNL     1       3.699   4.118  16.608  0.00  0.00    +0.000 C 
ATOM     13  C   UNL     1       2.624   3.306  17.225  0.00  0.00    +0.000 C 
ATOM     14  C   UNL     1       2.882   2.770  18.636  0.00  0.00    +0.000 C 
ATOM     15  C   UNL     1       3.194   1.263  18.564  0.00  0.00    +0.000 C 
ENDBRANCH   1   2
BRANCH   1  16
ATOM     16  O   UNL     1       2.310   3.806  21.504  0.00  0.00    +0.000 OA
ATOM     17  H   UNL     1       3.044   3.479  22.052  0.00  0.00    +0.000 HD
ENDBRANCH   1  16
BRANCH   1  18
ATOM     18  C   UNL     1       1.709   5.281  19.658  0.00  0.00    +0.000 C 
BRANCH  18  20
ATOM     19  C   UNL     1       2.291   7.358  18.399  0.00  0.00    +0.000 C 
ATOM     20  C   UNL     1       1.918   6.786  19.562  0.00  0.00    +0.000 C 
ATOM     21  C   UNL     1       1.641   7.574  20.815  0.00  0.00    +0.000 C 
BRANCH  19  22
ATOM     22  C   UNL     1       2.503   8.824  18.149  0.00  0.00    +0.000 C 
BRANCH  22  23
ATOM     23  O   UNL     1       1.418   9.353  17.380  0.00  0.00    +0.000 OA
BRANCH  23  24
ATOM     24  C   UNL     1       0.465  10.010  18.093  0.00  0.00    +0.000 C 
ATOM     25  O   UNL     1      -0.740   9.962  17.886  0.00  0.00    +0.000 OA
BRANCH  24  26
ATOM     26  C   UNL     1       1.099  10.795  19.214  0.00  0.00    +0.000 C 
BRANCH  26  28
ATOM     27  C   UNL     1       1.570  13.141  18.372  0.00  0.00    +0.000 C 
ATOM     28  C   UNL     1       0.650  12.252  19.197  0.00  0.00    +0.000 C 
ENDBRANCH  26  28
ENDBRANCH  24  26
ENDBRANCH  23  24
ENDBRANCH  22  23
ENDBRANCH  19  22
ENDBRANCH  18  20
ENDBRANCH   1  18
TORSDOF 9
ENDMDL
