MODEL 1
REMARK VINA RESULT:      -8.2      0.000      0.000
REMARK  Name = 
REMARK  8 active torsions:
REMARK  status: ('A' for Active; 'I' for Inactive)
REMARK    1  A    between atoms: C_1  and  C_2
REMARK    2  A    between atoms: C_2  and  C_3
REMARK    3  A    between atoms: C_2  and  C_4
REMARK    4  A    between atoms: C_2  and  N_5
REMARK    5  A    between atoms: C_11  and  C_12
REMARK    6  A    between atoms: N_14  and  C_15
REMARK    7  A    between atoms: C_18  and  C_19
REMARK    8  A    between atoms: C_19  and  O_21
REMARK                            x       y       z     vdW  Elec       q    Type
REMARK                         _______ _______ _______ _____ _____    ______ ____
ROOT
ATOM      1  N   UNL     1      -0.890  11.785  21.731  0.00  0.00    +0.000 N 
ATOM      2  C   UNL     1      -0.558  10.669  22.471  0.00  0.00    +0.000 C 
ATOM      3  O   UNL     1      -0.870  10.356  23.605  0.00  0.00    +0.000 OA
ATOM      4  C   UNL     1       0.246   9.797  21.616  0.00  0.00    +0.000 A 
ATOM      5  C   UNL     1       0.840   8.568  21.857  0.00  0.00    +0.000 A 
ATOM      6  C   UNL     1       1.534   7.957  20.797  0.00  0.00    +0.000 A 
ATOM      7  C   UNL     1       1.611   8.590  19.535  0.00  0.00    +0.000 A 
ATOM      8  C   UNL     1       1.003   9.838  19.330  0.00  0.00    +0.000 A 
ATOM      9  C   UNL     1       0.329  10.408  20.388  0.00  0.00    +0.000 A 
ATOM     10  C   UNL     1      -0.411  11.659  20.453  0.00  0.00    +0.000 C 
ATOM     11  O   UNL     1      -0.536  12.371  19.475  0.00  0.00    +0.000 OA
ENDROOT
BRANCH   1  13
ATOM     12  C   UNL     1      -2.498  13.545  21.010  0.00  0.00    +0.000 C 
ATOM     13  C   UNL     1      -1.827  12.841  22.206  0.00  0.00    +0.000 C 
ATOM     14  C   UNL     1      -1.050  13.881  23.036  0.00  0.00    +0.000 C 
ATOM     15  C   UNL     1      -2.964  12.292  23.098  0.00  0.00    +0.000 C 
ENDBRANCH   1  13
BRANCH   7  16
ATOM     16  C   UNL     1       2.394   8.050  18.397  0.00  0.00    +0.000 C 
ATOM     17  O   UNL     1       2.244   8.615  17.321  0.00  0.00    +0.000 OA
ATOM     18  N   UNL     1       3.172   6.923  18.623  0.00  0.00    +0.000 N 
ATOM     19  H   UNL     1       3.048   6.419  19.491  0.00  0.00    +0.000 HD
BRANCH  18  20
ATOM     20  C   UNL     1       3.983   6.310  17.633  0.00  0.00    +0.000 A 
ATOM     21  C   UNL     1       3.797   4.982  17.234  0.00  0.00    +0.000 A 
ATOM     22  C   UNL     1       4.617   4.387  16.273  0.00  0.00    +0.000 A 
ATOM     23  C   UNL     1       5.653   5.119  15.697  0.00  0.00    +0.000 A 
ATOM     24  C   UNL     1       5.830   6.461  16.058  0.00  0.00    +0.000 A 
ATOM     25  C   UNL     1       4.993   7.057  17.019  0.00  0.00    +0.000 A 
BRANCH  23  26
ATOM     26  C   UNL     1       6.532   4.525  14.661  0.00  0.00    +0.000 C 
ATOM     27  O   UNL     1       6.227   3.534  14.024  0.00  0.00    +0.000 OA
BRANCH  26  28
ATOM     28  O   UNL     1       7.691   5.196  14.469  0.00  0.00    +0.000 OA
ATOM     29  H   UNL     1       8.362   4.730  13.935  0.00  0.00    +0.000 HD
ENDBRANCH  26  28
ENDBRANCH  23  26
ENDBRANCH  18  20
ENDBRANCH   7  16
TORSDOF 5
ENDMDL
MODEL 2
REMARK VINA RESULT:      -8.2      0.477      1.210
REMARK  Name = 
REMARK  8 active torsions:
REMARK  status: ('A' for Active; 'I' for Inactive)
REMARK    1  A    between atoms: C_1  and  C_2
REMARK    2  A    between atoms: C_2  and  C_3
REMARK    3  A    between atoms: C_2  and  C_4
REMARK    4  A    between atoms: C_2  and  N_5
REMARK    5  A    between atoms: C_11  and  C_12
REMARK    6  A    between atoms: N_14  and  C_15
REMARK    7  A    between atoms: C_18  and  C_19
REMARK    8  A    between atoms: C_19  and  O_21
REMARK                            x       y       z     vdW  Elec       q    Type
REMARK                         _______ _______ _______ _____ _____    ______ ____
ROOT
ATOM      1  N   UNL     1      -1.298  11.781  21.449  0.00  0.00    +0.000 N 
ATOM      2  C   UNL     1      -0.921  10.718  22.245  0.00  0.00    +0.000 C 
ATOM      3  O   UNL     1      -1.257  10.426  23.377  0.00  0.00    +0.000 OA
ATOM      4  C   UNL     1      -0.026   9.873  21.456  0.00  0.00    +0.000 A 
ATOM      5  C   UNL     1       0.639   8.698  21.767  0.00  0.00    +0.000 A 
ATOM      6  C   UNL     1       1.416   8.097  20.760  0.00  0.00    +0.000 A 
ATOM      7  C   UNL     1       1.500   8.687  19.478  0.00  0.00    +0.000 A 
ATOM      8  C   UNL     1       0.818   9.881  19.200  0.00  0.00    +0.000 A 
ATOM      9  C   UNL     1       0.065  10.442  20.209  0.00  0.00    +0.000 A 
ATOM     10  C   UNL     1      -0.760  11.641  20.195  0.00  0.00    +0.000 C 
ATOM     11  O   UNL     1      -0.893  12.305  19.186  0.00  0.00    +0.000 OA
ENDROOT
BRANCH   1  13
ATOM     12  C   UNL     1      -3.537  12.721  20.898  0.00  0.00    +0.000 C 
ATOM     13  C   UNL     1      -2.322  12.786  21.846  0.00  0.00    +0.000 C 
ATOM     14  C   UNL     1      -1.707  14.197  21.786  0.00  0.00    +0.000 C 
ATOM     15  C   UNL     1      -2.862  12.575  23.279  0.00  0.00    +0.000 C 
ENDBRANCH   1  13
BRANCH   7  16
ATOM     16  C   UNL     1       2.364   8.160  18.392  0.00  0.00    +0.000 C 
ATOM     17  O   UNL     1       2.257   8.709  17.302  0.00  0.00    +0.000 OA
ATOM     18  N   UNL     1       3.162   7.061  18.675  0.00  0.00    +0.000 N 
ATOM     19  H   UNL     1       3.006   6.563  19.541  0.00  0.00    +0.000 HD
BRANCH  18  20
ATOM     20  C   UNL     1       4.048   6.464  17.741  0.00  0.00    +0.000 A 
ATOM     21  C   UNL     1       5.166   7.138  17.238  0.00  0.00    +0.000 A 
ATOM     22  C   UNL     1       6.017   6.543  16.304  0.00  0.00    +0.000 A 
ATOM     23  C   UNL     1       5.752   5.254  15.847  0.00  0.00    +0.000 A 
ATOM     24  C   UNL     1       4.657   4.552  16.367  0.00  0.00    +0.000 A 
ATOM     25  C   UNL     1       3.811   5.153  17.316  0.00  0.00    +0.000 A 
BRANCH  23  26
ATOM     26  C   UNL     1       6.643   4.586  14.868  0.00  0.00    +0.000 C 
ATOM     27  O   UNL     1       7.634   5.119  14.405  0.00  0.00    +0.000 OA
BRANCH  26  28
ATOM     28  O   UNL     1       6.272   3.323  14.555  0.00  0.00    +0.000 OA
ATOM     29  H   UNL     1       6.852   2.618  14.899  0.00  0.00    +0.000 HD
ENDBRANCH  26  28
ENDBRANCH  23  26
ENDBRANCH  18  20
ENDBRANCH   7  16
TORSDOF 5
ENDMDL
MODEL 3
REMARK VINA RESULT:      -8.1      0.494      1.215
REMARK  Name = 
REMARK  8 active torsions:
REMARK  status: ('A' for Active; 'I' for Inactive)
REMARK    1  A    between atoms: C_1  and  C_2
REMARK    2  A    between atoms: C_2  and  C_3
REMARK    3  A    between atoms: C_2  and  C_4
REMARK    4  A    between atoms: C_2  and  N_5
REMARK    5  A    between atoms: C_11  and  C_12
REMARK    6  A    between atoms: N_14  and  C_15
REMARK    7  A    between atoms: C_18  and  C_19
REMARK    8  A    between atoms: C_19  and  O_21
REMARK                            x       y       z     vdW  Elec       q    Type
REMARK                         _______ _______ _______ _____ _____    ______ ____
ROOT
ATOM      1  N   UNL     1      -1.398  11.788  21.486  0.00  0.00    +0.000 N 
ATOM      2  C   UNL     1      -0.922  10.794  22.316  0.00  0.00    +0.000 C 
ATOM      3  O   UNL     1      -1.180  10.551  23.480  0.00  0.00    +0.000 OA
ATOM      4  C   UNL     1      -0.025   9.952  21.525  0.00  0.00    +0.000 A 
ATOM      5  C   UNL     1       0.719   8.833  21.861  0.00  0.00    +0.000 A 
ATOM      6  C   UNL     1       1.472   8.216  20.845  0.00  0.00    +0.000 A 
ATOM      7  C   UNL     1       1.455   8.735  19.530  0.00  0.00    +0.000 A 
ATOM      8  C   UNL     1       0.694   9.875  19.228  0.00  0.00    +0.000 A 
ATOM      9  C   UNL     1      -0.034  10.453  20.245  0.00  0.00    +0.000 A 
ATOM     10  C   UNL     1      -0.922  11.605  20.214  0.00  0.00    +0.000 C 
ATOM     11  O   UNL     1      -1.145  12.203  19.179  0.00  0.00    +0.000 OA
ENDROOT
BRANCH   1  13
ATOM     12  C   UNL     1      -1.869  14.183  21.983  0.00  0.00    +0.000 C 
ATOM     13  C   UNL     1      -2.454  12.760  21.885  0.00  0.00    +0.000 C 
ATOM     14  C   UNL     1      -3.033  12.355  23.254  0.00  0.00    +0.000 C 
ATOM     15  C   UNL     1      -3.631  12.829  20.886  0.00  0.00    +0.000 C 
ENDBRANCH   1  13
BRANCH   7  16
ATOM     16  C   UNL     1       2.286   8.193  18.428  0.00  0.00    +0.000 C 
ATOM     17  O   UNL     1       2.163   8.740  17.339  0.00  0.00    +0.000 OA
ATOM     18  N   UNL     1       3.075   7.083  18.697  0.00  0.00    +0.000 N 
ATOM     19  H   UNL     1       2.930   6.590  19.568  0.00  0.00    +0.000 HD
BRANCH  18  20
ATOM     20  C   UNL     1       3.930   6.470  17.745  0.00  0.00    +0.000 A 
ATOM     21  C   UNL     1       4.972   7.166  17.122  0.00  0.00    +0.000 A 
ATOM     22  C   UNL     1       5.793   6.554  16.173  0.00  0.00    +0.000 A 
ATOM     23  C   UNL     1       5.574   5.223  15.822  0.00  0.00    +0.000 A 
ATOM     24  C   UNL     1       4.559   4.501  16.463  0.00  0.00    +0.000 A 
ATOM     25  C   UNL     1       3.743   5.121  17.426  0.00  0.00    +0.000 A 
BRANCH  23  26
ATOM     26  C   UNL     1       6.437   4.536  14.831  0.00  0.00    +0.000 C 
ATOM     27  O   UNL     1       6.117   3.498  14.284  0.00  0.00    +0.000 OA
BRANCH  26  28
ATOM     28  O   UNL     1       7.599   5.179  14.569  0.00  0.00    +0.000 OA
ATOM     29  H   UNL     1       8.410   4.689  14.801  0.00  0.00    +0.000 HD
ENDBRANCH  26  28
ENDBRANCH  23  26
ENDBRANCH  18  20
ENDBRANCH   7  16
TORSDOF 5
ENDMDL
MODEL 4
REMARK VINA RESULT:      -8.1      0.667      1.220
REMARK  Name = 
REMARK  8 active torsions:
REMARK  status: ('A' for Active; 'I' for Inactive)
REMARK    1  A    between atoms: C_1  and  C_2
REMARK    2  A    between atoms: C_2  and  C_3
REMARK    3  A    between atoms: C_2  and  C_4
REMARK    4  A    between atoms: C_2  and  N_5
REMARK    5  A    between atoms: C_11  and  C_12
REMARK    6  A    between atoms: N_14  and  C_15
REMARK    7  A    between atoms: C_18  and  C_19
REMARK    8  A    between atoms: C_19  and  O_21
REMARK                            x       y       z     vdW  Elec       q    Type
REMARK                         _______ _______ _______ _____ _____    ______ ____
ROOT
ATOM      1  N   UNL     1      -1.171  12.188  21.497  0.00  0.00    +0.000 N 
ATOM      2  C   UNL     1      -0.812  11.157  22.341  0.00  0.00    +0.000 C 
ATOM      3  O   UNL     1      -1.108  10.953  23.504  0.00  0.00    +0.000 OA
ATOM      4  C   UNL     1       0.002  10.219  21.568  0.00  0.00    +0.000 A 
ATOM      5  C   UNL     1       0.621   9.031  21.924  0.00  0.00    +0.000 A 
ATOM      6  C   UNL     1       1.317   8.330  20.923  0.00  0.00    +0.000 A 
ATOM      7  C   UNL     1       1.371   8.835  19.604  0.00  0.00    +0.000 A 
ATOM      8  C   UNL     1       0.737  10.045  19.282  0.00  0.00    +0.000 A 
ATOM      9  C   UNL     1       0.061  10.705  20.285  0.00  0.00    +0.000 A 
ATOM     10  C   UNL     1      -0.702  11.943  20.232  0.00  0.00    +0.000 C 
ATOM     11  O   UNL     1      -0.849  12.551  19.190  0.00  0.00    +0.000 OA
ENDROOT
BRANCH   1  13
ATOM     12  C   UNL     1      -1.777  13.833  23.266  0.00  0.00    +0.000 C 
ATOM     13  C   UNL     1      -2.125  13.268  21.874  0.00  0.00    +0.000 C 
ATOM     14  C   UNL     1      -3.557  12.702  21.900  0.00  0.00    +0.000 C 
ATOM     15  C   UNL     1      -2.115  14.462  20.892  0.00  0.00    +0.000 C 
ENDBRANCH   1  13
BRANCH   7  16
ATOM     16  C   UNL     1       2.155   8.199  18.517  0.00  0.00    +0.000 C 
ATOM     17  O   UNL     1       2.116   8.754  17.426  0.00  0.00    +0.000 OA
ATOM     18  N   UNL     1       2.804   7.006  18.800  0.00  0.00    +0.000 N 
ATOM     19  H   UNL     1       2.587   6.534  19.668  0.00  0.00    +0.000 HD
BRANCH  18  20
ATOM     20  C   UNL     1       3.601   6.297  17.864  0.00  0.00    +0.000 A 
ATOM     21  C   UNL     1       3.440   4.926  17.634  0.00  0.00    +0.000 A 
ATOM     22  C   UNL     1       4.245   4.239  16.724  0.00  0.00    +0.000 A 
ATOM     23  C   UNL     1       5.242   4.920  16.029  0.00  0.00    +0.000 A 
ATOM     24  C   UNL     1       5.393   6.300  16.220  0.00  0.00    +0.000 A 
ATOM     25  C   UNL     1       4.571   6.988  17.130  0.00  0.00    +0.000 A 
BRANCH  23  26
ATOM     26  C   UNL     1       6.105   4.227  15.042  0.00  0.00    +0.000 C 
ATOM     27  O   UNL     1       6.679   4.809  14.142  0.00  0.00    +0.000 OA
BRANCH  26  28
ATOM     28  O   UNL     1       6.217   2.894  15.246  0.00  0.00    +0.000 OA
ATOM     29  H   UNL     1       5.377   2.418  15.382  0.00  0.00    +0.000 HD
ENDBRANCH  26  28
ENDBRANCH  23  26
ENDBRANCH  18  20
ENDBRANCH   7  16
TORSDOF 5
ENDMDL
MODEL 5
REMARK VINA RESULT:      -7.9      6.405      8.897
REMARK  Name = 
REMARK  8 active torsions:
REMARK  status: ('A' for Active; 'I' for Inactive)
REMARK    1  A    between atoms: C_1  and  C_2
REMARK    2  A    between atoms: C_2  and  C_3
REMARK    3  A    between atoms: C_2  and  C_4
REMARK    4  A    between atoms: C_2  and  N_5
REMARK    5  A    between atoms: C_11  and  C_12
REMARK    6  A    between atoms: N_14  and  C_15
REMARK    7  A    between atoms: C_18  and  C_19
REMARK    8  A    between atoms: C_19  and  O_21
REMARK                            x       y       z     vdW  Elec       q    Type
REMARK                         _______ _______ _______ _____ _____    ______ ____
ROOT
ATOM      1  N   UNL     1       3.781   4.229  18.678  0.00  0.00    +0.000 N 
ATOM      2  C   UNL     1       4.934   3.859  19.339  0.00  0.00    +0.000 C 
ATOM      3  O   UNL     1       5.180   2.863  19.994  0.00  0.00    +0.000 OA
ATOM      4  C   UNL     1       5.940   4.888  19.080  0.00  0.00    +0.000 A 
ATOM      5  C   UNL     1       7.253   5.017  19.503  0.00  0.00    +0.000 A 
ATOM      6  C   UNL     1       7.984   6.128  19.044  0.00  0.00    +0.000 A 
ATOM      7  C   UNL     1       7.382   7.069  18.179  0.00  0.00    +0.000 A 
ATOM      8  C   UNL     1       6.047   6.910  17.776  0.00  0.00    +0.000 A 
ATOM      9  C   UNL     1       5.361   5.810  18.242  0.00  0.00    +0.000 A 
ATOM     10  C   UNL     1       3.998   5.381  17.967  0.00  0.00    +0.000 C 
ATOM     11  O   UNL     1       3.281   6.002  17.206  0.00  0.00    +0.000 OA
ENDROOT
BRANCH   1  13
ATOM     12  C   UNL     1       2.896   2.074  17.799  0.00  0.00    +0.000 C 
ATOM     13  C   UNL     1       2.573   3.363  18.579  0.00  0.00    +0.000 C 
ATOM     14  C   UNL     1       1.451   4.129  17.851  0.00  0.00    +0.000 C 
ATOM     15  C   UNL     1       2.019   2.927  19.955  0.00  0.00    +0.000 C 
ENDBRANCH   1  13
BRANCH   7  16
ATOM     16  C   UNL     1       8.060   8.308  17.722  0.00  0.00    +0.000 C 
ATOM     17  O   UNL     1       8.336   8.364  16.530  0.00  0.00    +0.000 OA
ATOM     18  N   UNL     1       8.383   9.260  18.678  0.00  0.00    +0.000 N 
ATOM     19  H   UNL     1       8.301   9.008  19.654  0.00  0.00    +0.000 HD
BRANCH  18  20
ATOM     20  C   UNL     1       9.015  10.495  18.383  0.00  0.00    +0.000 A 
ATOM     21  C   UNL     1       8.322  11.573  17.822  0.00  0.00    +0.000 A 
ATOM     22  C   UNL     1       8.963  12.775  17.519  0.00  0.00    +0.000 A 
ATOM     23  C   UNL     1      10.327  12.915  17.769  0.00  0.00    +0.000 A 
ATOM     24  C   UNL     1      11.029  11.859  18.364  0.00  0.00    +0.000 A 
ATOM     25  C   UNL     1      10.374  10.655  18.677  0.00  0.00    +0.000 A 
BRANCH  23  26
ATOM     26  C   UNL     1      11.037  14.183  17.476  0.00  0.00    +0.000 C 
ATOM     27  O   UNL     1      11.405  14.951  18.345  0.00  0.00    +0.000 OA
BRANCH  26  28
ATOM     28  O   UNL     1      11.263  14.400  16.159  0.00  0.00    +0.000 OA
ATOM     29  H   UNL     1      11.738  13.687  15.692  0.00  0.00    +0.000 HD
ENDBRANCH  26  28
ENDBRANCH  23  26
ENDBRANCH  18  20
ENDBRANCH   7  16
TORSDOF 5
ENDMDL
MODEL 6
REMARK VINA RESULT:      -7.8      2.789     10.023
REMARK  Name = 
REMARK  8 active torsions:
REMARK  status: ('A' for Active; 'I' for Inactive)
REMARK    1  A    between atoms: C_1  and  C_2
REMARK    2  A    between atoms: C_2  and  C_3
REMARK    3  A    between atoms: C_2  and  C_4
REMARK    4  A    between atoms: C_2  and  N_5
REMARK    5  A    between atoms: C_11  and  C_12
REMARK    6  A    between atoms: N_14  and  C_15
REMARK    7  A    between atoms: C_18  and  C_19
REMARK    8  A    between atoms: C_19  and  O_21
REMARK                            x       y       z     vdW  Elec       q    Type
REMARK                         _______ _______ _______ _____ _____    ______ ____
ROOT
ATOM      1  N   UNL     1       2.922   4.113  19.303  0.00  0.00    +0.000 N 
ATOM      2  C   UNL     1       2.976   5.037  18.279  0.00  0.00    +0.000 C 
ATOM      3  O   UNL     1       3.272   4.895  17.107  0.00  0.00    +0.000 OA
ATOM      4  C   UNL     1       2.535   6.321  18.821  0.00  0.00    +0.000 A 
ATOM      5  C   UNL     1       2.406   7.570  18.235  0.00  0.00    +0.000 A 
ATOM      6  C   UNL     1       1.913   8.620  19.030  0.00  0.00    +0.000 A 
ATOM      7  C   UNL     1       1.563   8.388  20.380  0.00  0.00    +0.000 A 
ATOM      8  C   UNL     1       1.712   7.111  20.942  0.00  0.00    +0.000 A 
ATOM      9  C   UNL     1       2.196   6.104  20.135  0.00  0.00    +0.000 A 
ATOM     10  C   UNL     1       2.420   4.699  20.436  0.00  0.00    +0.000 C 
ATOM     11  O   UNL     1       2.147   4.235  21.526  0.00  0.00    +0.000 OA
ENDROOT
BRANCH   1  13
ATOM     12  C   UNL     1       1.866   1.859  19.388  0.00  0.00    +0.000 C 
ATOM     13  C   UNL     1       3.157   2.655  19.112  0.00  0.00    +0.000 C 
ATOM     14  C   UNL     1       4.261   2.182  20.076  0.00  0.00    +0.000 C 
ATOM     15  C   UNL     1       3.607   2.291  17.678  0.00  0.00    +0.000 C 
ENDBRANCH   1  13
BRANCH   7  16
ATOM     16  C   UNL     1       1.117   9.461  21.303  0.00  0.00    +0.000 C 
ATOM     17  O   UNL     1       1.466   9.347  22.472  0.00  0.00    +0.000 OA
ATOM     18  N   UNL     1       0.297  10.456  20.792  0.00  0.00    +0.000 N 
ATOM     19  H   UNL     1      -0.099  10.327  19.870  0.00  0.00    +0.000 HD
BRANCH  18  20
ATOM     20  C   UNL     1      -0.190  11.549  21.554  0.00  0.00    +0.000 A 
ATOM     21  C   UNL     1       0.342  12.838  21.435  0.00  0.00    +0.000 A 
ATOM     22  C   UNL     1      -0.135  13.899  22.206  0.00  0.00    +0.000 A 
ATOM     23  C   UNL     1      -1.159  13.682  23.126  0.00  0.00    +0.000 A 
ATOM     24  C   UNL     1      -1.728  12.406  23.233  0.00  0.00    +0.000 A 
ATOM     25  C   UNL     1      -1.250  11.344  22.444  0.00  0.00    +0.000 A 
BRANCH  23  26
ATOM     26  C   UNL     1      -1.701  14.789  23.950  0.00  0.00    +0.000 C 
ATOM     27  O   UNL     1      -2.879  15.095  23.951  0.00  0.00    +0.000 OA
BRANCH  26  28
ATOM     28  O   UNL     1      -0.778  15.411  24.718  0.00  0.00    +0.000 OA
ATOM     29  H   UNL     1      -1.134  15.957  25.443  0.00  0.00    +0.000 HD
ENDBRANCH  26  28
ENDBRANCH  23  26
ENDBRANCH  18  20
ENDBRANCH   7  16
TORSDOF 5
ENDMDL
MODEL 7
REMARK VINA RESULT:      -7.8      1.420      2.461
REMARK  Name = 
REMARK  8 active torsions:
REMARK  status: ('A' for Active; 'I' for Inactive)
REMARK    1  A    between atoms: C_1  and  C_2
REMARK    2  A    between atoms: C_2  and  C_3
REMARK    3  A    between atoms: C_2  and  C_4
REMARK    4  A    between atoms: C_2  and  N_5
REMARK    5  A    between atoms: C_11  and  C_12
REMARK    6  A    between atoms: N_14  and  C_15
REMARK    7  A    between atoms: C_18  and  C_19
REMARK    8  A    between atoms: C_19  and  O_21
REMARK                            x       y       z     vdW  Elec       q    Type
REMARK                         _______ _______ _______ _____ _____    ______ ____
ROOT
ATOM      1  N   UNL     1      -1.895  12.152  21.889  0.00  0.00    +0.000 N 
ATOM      2  C   UNL     1      -2.064  12.214  20.521  0.00  0.00    +0.000 C 
ATOM      3  O   UNL     1      -2.783  12.930  19.849  0.00  0.00    +0.000 OA
ATOM      4  C   UNL     1      -1.136  11.258  19.919  0.00  0.00    +0.000 A 
ATOM      5  C   UNL     1      -0.900  10.916  18.597  0.00  0.00    +0.000 A 
ATOM      6  C   UNL     1       0.103   9.964  18.335  0.00  0.00    +0.000 A 
ATOM      7  C   UNL     1       0.836   9.390  19.399  0.00  0.00    +0.000 A 
ATOM      8  C   UNL     1       0.565   9.757  20.726  0.00  0.00    +0.000 A 
ATOM      9  C   UNL     1      -0.422  10.693  20.947  0.00  0.00    +0.000 A 
ATOM     10  C   UNL     1      -0.886  11.276  22.197  0.00  0.00    +0.000 C 
ATOM     11  O   UNL     1      -0.377  10.980  23.260  0.00  0.00    +0.000 OA
ENDROOT
BRANCH   1  13
ATOM     12  C   UNL     1      -1.508  13.902  23.618  0.00  0.00    +0.000 C 
ATOM     13  C   UNL     1      -2.559  13.081  22.845  0.00  0.00    +0.000 C 
ATOM     14  C   UNL     1      -3.404  12.270  23.845  0.00  0.00    +0.000 C 
ATOM     15  C   UNL     1      -3.501  14.095  22.158  0.00  0.00    +0.000 C 
ENDBRANCH   1  13
BRANCH   7  16
ATOM     16  C   UNL     1       1.848   8.322  19.210  0.00  0.00    +0.000 C 
ATOM     17  O   UNL     1       2.137   7.669  20.206  0.00  0.00    +0.000 OA
ATOM     18  N   UNL     1       2.427   8.192  17.956  0.00  0.00    +0.000 N 
ATOM     19  H   UNL     1       2.269   8.924  17.275  0.00  0.00    +0.000 HD
BRANCH  18  20
ATOM     20  C   UNL     1       3.394   7.207  17.628  0.00  0.00    +0.000 A 
ATOM     21  C   UNL     1       3.173   5.843  17.849  0.00  0.00    +0.000 A 
ATOM     22  C   UNL     1       4.142   4.887  17.538  0.00  0.00    +0.000 A 
ATOM     23  C   UNL     1       5.365   5.288  17.006  0.00  0.00    +0.000 A 
ATOM     24  C   UNL     1       5.589   6.646  16.745  0.00  0.00    +0.000 A 
ATOM     25  C   UNL     1       4.604   7.602  17.049  0.00  0.00    +0.000 A 
BRANCH  23  26
ATOM     26  C   UNL     1       6.411   4.299  16.649  0.00  0.00    +0.000 C 
ATOM     27  O   UNL     1       7.593   4.476  16.876  0.00  0.00    +0.000 OA
BRANCH  26  28
ATOM     28  O   UNL     1       5.933   3.172  16.072  0.00  0.00    +0.000 OA
ATOM     29  H   UNL     1       6.599   2.612  15.631  0.00  0.00    +0.000 HD
ENDBRANCH  26  28
ENDBRANCH  23  26
ENDBRANCH  18  20
ENDBRANCH   7  16
TORSDOF 5
ENDMDL
MODEL 8
REMARK VINA RESULT:      -7.7      2.632      3.709
REMARK  Name = 
REMARK  8 active torsions:
REMARK  status: ('A' for Active; 'I' for Inactive)
REMARK    1  A    between atoms: C_1  and  C_2
REMARK    2  A    between atoms: C_2  and  C_3
REMARK    3  A    between atoms: C_2  and  C_4
REMARK    4  A    between atoms: C_2  and  N_5
REMARK    5  A    between atoms: C_11  and  C_12
REMARK    6  A    between atoms: N_14  and  C_15
REMARK    7  A    between atoms: C_18  and  C_19
REMARK    8  A    between atoms: C_19  and  O_21
REMARK                            x       y       z     vdW  Elec       q    Type
REMARK                         _______ _______ _______ _____ _____    ______ ____
ROOT
ATOM      1  N   UNL     1      -1.629  12.263  21.891  0.00  0.00    +0.000 N 
ATOM      2  C   UNL     1      -1.346  12.665  20.601  0.00  0.00    +0.000 C 
ATOM      3  O   UNL     1      -1.650  13.684  20.010  0.00  0.00    +0.000 OA
ATOM      4  C   UNL     1      -0.503  11.635  19.995  0.00  0.00    +0.000 A 
ATOM      5  C   UNL     1       0.054  11.532  18.730  0.00  0.00    +0.000 A 
ATOM      6  C   UNL     1       0.861  10.412  18.459  0.00  0.00    +0.000 A 
ATOM      7  C   UNL     1       1.086   9.436  19.457  0.00  0.00    +0.000 A 
ATOM      8  C   UNL     1       0.500   9.571  20.725  0.00  0.00    +0.000 A 
ATOM      9  C   UNL     1      -0.283  10.681  20.958  0.00  0.00    +0.000 A 
ATOM     10  C   UNL     1      -0.978  11.089  22.169  0.00  0.00    +0.000 C 
ATOM     11  O   UNL     1      -0.901  10.438  23.193  0.00  0.00    +0.000 OA
ENDROOT
BRANCH   1  13
ATOM     12  C   UNL     1      -1.335  13.908  23.737  0.00  0.00    +0.000 C 
ATOM     13  C   UNL     1      -2.343  13.116  22.881  0.00  0.00    +0.000 C 
ATOM     14  C   UNL     1      -3.200  12.225  23.801  0.00  0.00    +0.000 C 
ATOM     15  C   UNL     1      -3.287  14.152  22.229  0.00  0.00    +0.000 C 
ENDBRANCH   1  13
BRANCH   7  16
ATOM     16  C   UNL     1       1.853   8.189  19.221  0.00  0.00    +0.000 C 
ATOM     17  O   UNL     1       2.500   8.140  18.182  0.00  0.00    +0.000 OA
ATOM     18  N   UNL     1       1.725   7.164  20.148  0.00  0.00    +0.000 N 
ATOM     19  H   UNL     1       0.998   7.237  20.848  0.00  0.00    +0.000 HD
BRANCH  18  20
ATOM     20  C   UNL     1       2.410   5.925  20.059  0.00  0.00    +0.000 A 
ATOM     21  C   UNL     1       3.667   5.810  19.454  0.00  0.00    +0.000 A 
ATOM     22  C   UNL     1       4.320   4.580  19.357  0.00  0.00    +0.000 A 
ATOM     23  C   UNL     1       3.713   3.431  19.861  0.00  0.00    +0.000 A 
ATOM     24  C   UNL     1       2.471   3.534  20.502  0.00  0.00    +0.000 A 
ATOM     25  C   UNL     1       1.825   4.779  20.606  0.00  0.00    +0.000 A 
BRANCH  23  26
ATOM     26  C   UNL     1       4.384   2.111  19.790  0.00  0.00    +0.000 C 
ATOM     27  O   UNL     1       5.168   1.722  20.635  0.00  0.00    +0.000 OA
BRANCH  26  28
ATOM     28  O   UNL     1       4.030   1.367  18.717  0.00  0.00    +0.000 OA
ATOM     29  H   UNL     1       4.520   0.532  18.606  0.00  0.00    +0.000 HD
ENDBRANCH  26  28
ENDBRANCH  23  26
ENDBRANCH  18  20
ENDBRANCH   7  16
TORSDOF 5
ENDMDL
MODEL 9
REMARK VINA RESULT:      -7.7      2.826      3.736
REMARK  Name = 
REMARK  8 active torsions:
REMARK  status: ('A' for Active; 'I' for Inactive)
REMARK    1  A    between atoms: C_1  and  C_2
REMARK    2  A    between atoms: C_2  and  C_3
REMARK    3  A    between atoms: C_2  and  C_4
REMARK    4  A    between atoms: C_2  and  N_5
REMARK    5  A    between atoms: C_11  and  C_12
REMARK    6  A    between atoms: N_14  and  C_15
REMARK    7  A    between atoms: C_18  and  C_19
REMARK    8  A    between atoms: C_19  and  O_21
REMARK                            x       y       z     vdW  Elec       q    Type
REMARK                         _______ _______ _______ _____ _____    ______ ____
ROOT
ATOM      1  N   UNL     1      -3.850  11.644  18.525  0.00  0.00    +0.000 N 
ATOM      2  C   UNL     1      -3.069  12.199  19.518  0.00  0.00    +0.000 C 
ATOM      3  O   UNL     1      -3.354  13.005  20.385  0.00  0.00    +0.000 OA
ATOM      4  C   UNL     1      -1.741  11.594  19.424  0.00  0.00    +0.000 A 
ATOM      5  C   UNL     1      -0.587  11.792  20.164  0.00  0.00    +0.000 A 
ATOM      6  C   UNL     1       0.541  11.015  19.842  0.00  0.00    +0.000 A 
ATOM      7  C   UNL     1       0.477  10.067  18.795  0.00  0.00    +0.000 A 
ATOM      8  C   UNL     1      -0.708   9.897  18.063  0.00  0.00    +0.000 A 
ATOM      9  C   UNL     1      -1.794  10.672  18.406  0.00  0.00    +0.000 A 
ATOM     10  C   UNL     1      -3.138  10.687  17.849  0.00  0.00    +0.000 C 
ATOM     11  O   UNL     1      -3.463   9.922  16.962  0.00  0.00    +0.000 OA
ENDROOT
BRANCH   1  13
ATOM     12  C   UNL     1      -6.109  10.599  18.622  0.00  0.00    +0.000 C 
ATOM     13  C   UNL     1      -5.311  11.897  18.386  0.00  0.00    +0.000 C 
ATOM     14  C   UNL     1      -5.608  12.425  16.970  0.00  0.00    +0.000 C 
ATOM     15  C   UNL     1      -5.849  12.941  19.392  0.00  0.00    +0.000 C 
ENDBRANCH   1  13
BRANCH   7  16
ATOM     16  C   UNL     1       1.646   9.273  18.342  0.00  0.00    +0.000 C 
ATOM     17  O   UNL     1       2.326   9.772  17.453  0.00  0.00    +0.000 OA
ATOM     18  N   UNL     1       1.833   8.018  18.903  0.00  0.00    +0.000 N 
ATOM     19  H   UNL     1       1.089   7.626  19.464  0.00  0.00    +0.000 HD
BRANCH  18  20
ATOM     20  C   UNL     1       2.914   7.158  18.576  0.00  0.00    +0.000 A 
ATOM     21  C   UNL     1       3.677   7.327  17.416  0.00  0.00    +0.000 A 
ATOM     22  C   UNL     1       4.725   6.461  17.099  0.00  0.00    +0.000 A 
ATOM     23  C   UNL     1       5.022   5.394  17.945  0.00  0.00    +0.000 A 
ATOM     24  C   UNL     1       4.292   5.232  19.130  0.00  0.00    +0.000 A 
ATOM     25  C   UNL     1       3.245   6.116  19.448  0.00  0.00    +0.000 A 
BRANCH  23  26
ATOM     26  C   UNL     1       6.139   4.464  17.649  0.00  0.00    +0.000 C 
ATOM     27  O   UNL     1       7.189   4.475  18.264  0.00  0.00    +0.000 OA
BRANCH  26  28
ATOM     28  O   UNL     1       5.878   3.586  16.653  0.00  0.00    +0.000 OA
ATOM     29  H   UNL     1       6.660   3.246  16.179  0.00  0.00    +0.000 HD
ENDBRANCH  26  28
ENDBRANCH  23  26
ENDBRANCH  18  20
ENDBRANCH   7  16
TORSDOF 5
ENDMDL
