MODEL 1
REMARK VINA RESULT:      -7.7      0.000      0.000
REMARK  Name = 
REMARK  14 active torsions:
REMARK  status: ('A' for Active; 'I' for Inactive)
REMARK    1  A    between atoms: C_1  and  C_2
REMARK    2  A    between atoms: C_2  and  N_3
REMARK    3  A    between atoms: N_3  and  C_4
REMARK    4  A    between atoms: C_4  and  C_5
REMARK    5  A    between atoms: C_5  and  C_6
REMARK    6  A    between atoms: C_9  and  S_10
REMARK    7  A    between atoms: S_10  and  N_13
REMARK    8  A    between atoms: N_13  and  C_14
REMARK    9  A    between atoms: N_13  and  C_15
REMARK   10  A    between atoms: C_18  and  C_20
REMARK   11  A    between atoms: C_20  and  C_21
REMARK   12  A    between atoms: C_21  and  C_22
REMARK   13  A    between atoms: C_22  and  C_23
REMARK   14  A    between atoms: C_23  and  C_24
REMARK                            x       y       z     vdW  Elec       q    Type
REMARK                         _______ _______ _______ _____ _____    ______ ____
ROOT
ATOM      1  N   UNL     1       6.382   6.274  17.234  0.00  0.00    +0.000 N 
ATOM      2  C   UNL     1       6.678   5.250  16.334  0.00  0.00    +0.000 C 
ATOM      3  O   UNL     1       7.795   4.747  16.244  0.00  0.00    +0.000 OA
ENDROOT
BRANCH   1   5
ATOM      4  C   UNL     1       7.945   8.266  17.738  0.00  0.00    +0.000 C 
ATOM      5  C   UNL     1       7.511   6.824  18.029  0.00  0.00    +0.000 C 
ENDBRANCH   1   5
BRANCH   1   6
ATOM      6  C   UNL     1       5.090   7.005  17.206  0.00  0.00    +0.000 C 
BRANCH   6   7
ATOM      7  C   UNL     1       3.958   6.405  18.049  0.00  0.00    +0.000 C 
BRANCH   7   8
ATOM      8  C   UNL     1       2.920   7.399  18.502  0.00  0.00    +0.000 A 
ATOM      9  C   UNL     1       2.547   8.426  17.629  0.00  0.00    +0.000 A 
ATOM     10  C   UNL     1       1.655   9.412  18.024  0.00  0.00    +0.000 A 
ATOM     11  C   UNL     1       1.064   9.331  19.282  0.00  0.00    +0.000 A 
ATOM     12  C   UNL     1       1.396   8.295  20.162  0.00  0.00    +0.000 A 
ATOM     13  C   UNL     1       2.333   7.333  19.772  0.00  0.00    +0.000 A 
BRANCH  11  14
ATOM     14  S   UNL     1      -0.007  10.650  19.777  0.00  0.00    +0.000 S 
ATOM     15  O   UNL     1      -1.302  10.435  19.139  0.00  0.00    +0.000 OA
ATOM     16  O   UNL     1       0.100  10.781  21.211  0.00  0.00    +0.000 OA
BRANCH  14  17
ATOM     17  N   UNL     1       0.685  12.047  19.065  0.00  0.00    +0.000 NA
ATOM     18  C   UNL     1      -0.275  13.001  18.459  0.00  0.00    +0.000 C 
ATOM     19  C   UNL     1       1.584  12.749  20.014  0.00  0.00    +0.000 C 
ENDBRANCH  14  17
ENDBRANCH  11  14
ENDBRANCH   7   8
ENDBRANCH   6   7
ENDBRANCH   1   6
BRANCH   2  20
ATOM     20  C   UNL     1       5.570   4.762  15.399  0.00  0.00    +0.000 C 
BRANCH  20  21
ATOM     21  C   UNL     1       5.068   3.377  15.804  0.00  0.00    +0.000 C 
BRANCH  21  22
ATOM     22  C   UNL     1       3.888   3.483  16.775  0.00  0.00    +0.000 C 
BRANCH  22  23
ATOM     23  C   UNL     1       4.089   2.583  17.995  0.00  0.00    +0.000 C 
BRANCH  23  24
ATOM     24  C   UNL     1       3.101   2.883  19.095  0.00  0.00    +0.000 A 
ATOM     25  C   UNL     1       1.886   3.518  18.807  0.00  0.00    +0.000 A 
ATOM     26  C   UNL     1       0.974   3.799  19.826  0.00  0.00    +0.000 A 
ATOM     27  C   UNL     1       1.270   3.452  21.143  0.00  0.00    +0.000 A 
ATOM     28  C   UNL     1       2.479   2.825  21.442  0.00  0.00    +0.000 A 
ATOM     29  C   UNL     1       3.392   2.545  20.424  0.00  0.00    +0.000 A 
ENDBRANCH  23  24
ENDBRANCH  22  23
ENDBRANCH  21  22
ENDBRANCH  20  21
ENDBRANCH   2  20
TORSDOF 11
ENDMDL
MODEL 2
REMARK VINA RESULT:      -7.3      1.034      2.018
REMARK  Name = 
REMARK  14 active torsions:
REMARK  status: ('A' for Active; 'I' for Inactive)
REMARK    1  A    between atoms: C_1  and  C_2
REMARK    2  A    between atoms: C_2  and  N_3
REMARK    3  A    between atoms: N_3  and  C_4
REMARK    4  A    between atoms: C_4  and  C_5
REMARK    5  A    between atoms: C_5  and  C_6
REMARK    6  A    between atoms: C_9  and  S_10
REMARK    7  A    between atoms: S_10  and  N_13
REMARK    8  A    between atoms: N_13  and  C_14
REMARK    9  A    between atoms: N_13  and  C_15
REMARK   10  A    between atoms: C_18  and  C_20
REMARK   11  A    between atoms: C_20  and  C_21
REMARK   12  A    between atoms: C_21  and  C_22
REMARK   13  A    between atoms: C_22  and  C_23
REMARK   14  A    between atoms: C_23  and  C_24
REMARK                            x       y       z     vdW  Elec       q    Type
REMARK                         _______ _______ _______ _____ _____    ______ ____
ROOT
ATOM      1  N   UNL     1       5.912   6.216  16.264  0.00  0.00    +0.000 N 
ATOM      2  C   UNL     1       7.008   5.688  16.946  0.00  0.00    +0.000 C 
ATOM      3  O   UNL     1       7.704   4.786  16.488  0.00  0.00    +0.000 OA
ENDROOT
BRANCH   1   5
ATOM      4  C   UNL     1       5.141   4.087  15.021  0.00  0.00    +0.000 C 
ATOM      5  C   UNL     1       5.538   5.568  14.979  0.00  0.00    +0.000 C 
ENDBRANCH   1   5
BRANCH   1   6
ATOM      6  C   UNL     1       4.965   7.167  16.899  0.00  0.00    +0.000 C 
BRANCH   6   7
ATOM      7  C   UNL     1       3.598   6.594  17.292  0.00  0.00    +0.000 C 
BRANCH   7   8
ATOM      8  C   UNL     1       2.752   7.516  18.133  0.00  0.00    +0.000 A 
ATOM      9  C   UNL     1       2.302   8.714  17.570  0.00  0.00    +0.000 A 
ATOM     10  C   UNL     1       1.586   9.634  18.323  0.00  0.00    +0.000 A 
ATOM     11  C   UNL     1       1.245   9.320  19.636  0.00  0.00    +0.000 A 
ATOM     12  C   UNL     1       1.656   8.112  20.212  0.00  0.00    +0.000 A 
ATOM     13  C   UNL     1       2.418   7.213  19.459  0.00  0.00    +0.000 A 
BRANCH  11  14
ATOM     14  S   UNL     1       0.400  10.550  20.586  0.00  0.00    +0.000 S 
ATOM     15  O   UNL     1      -1.033  10.333  20.423  0.00  0.00    +0.000 OA
ATOM     16  O   UNL     1       1.001  10.574  21.900  0.00  0.00    +0.000 OA
BRANCH  14  17
ATOM     17  N   UNL     1       0.784  12.026  19.803  0.00  0.00    +0.000 NA
ATOM     18  C   UNL     1      -0.369  12.903  19.484  0.00  0.00    +0.000 C 
ATOM     19  C   UNL     1       1.818  12.782  20.551  0.00  0.00    +0.000 C 
ENDBRANCH  14  17
ENDBRANCH  11  14
ENDBRANCH   7   8
ENDBRANCH   6   7
ENDBRANCH   1   6
BRANCH   2  20
ATOM     20  C   UNL     1       7.330   6.236  18.337  0.00  0.00    +0.000 C 
BRANCH  20  21
ATOM     21  C   UNL     1       6.976   5.228  19.430  0.00  0.00    +0.000 C 
BRANCH  21  22
ATOM     22  C   UNL     1       5.458   5.105  19.593  0.00  0.00    +0.000 C 
BRANCH  22  23
ATOM     23  C   UNL     1       4.957   3.739  19.120  0.00  0.00    +0.000 C 
BRANCH  23  24
ATOM     24  C   UNL     1       3.472   3.571  19.331  0.00  0.00    +0.000 A 
ATOM     25  C   UNL     1       2.646   3.156  18.278  0.00  0.00    +0.000 A 
ATOM     26  C   UNL     1       1.272   3.005  18.473  0.00  0.00    +0.000 A 
ATOM     27  C   UNL     1       0.711   3.273  19.720  0.00  0.00    +0.000 A 
ATOM     28  C   UNL     1       1.523   3.692  20.773  0.00  0.00    +0.000 A 
ATOM     29  C   UNL     1       2.896   3.844  20.579  0.00  0.00    +0.000 A 
ENDBRANCH  23  24
ENDBRANCH  22  23
ENDBRANCH  21  22
ENDBRANCH  20  21
ENDBRANCH   2  20
TORSDOF 11
ENDMDL
MODEL 3
REMARK VINA RESULT:      -7.3      2.383      6.282
REMARK  Name = 
REMARK  14 active torsions:
REMARK  status: ('A' for Active; 'I' for Inactive)
REMARK    1  A    between atoms: C_1  and  C_2
REMARK    2  A    between atoms: C_2  and  N_3
REMARK    3  A    between atoms: N_3  and  C_4
REMARK    4  A    between atoms: C_4  and  C_5
REMARK    5  A    between atoms: C_5  and  C_6
REMARK    6  A    between atoms: C_9  and  S_10
REMARK    7  A    between atoms: S_10  and  N_13
REMARK    8  A    between atoms: N_13  and  C_14
REMARK    9  A    between atoms: N_13  and  C_15
REMARK   10  A    between atoms: C_18  and  C_20
REMARK   11  A    between atoms: C_20  and  C_21
REMARK   12  A    between atoms: C_21  and  C_22
REMARK   13  A    between atoms: C_22  and  C_23
REMARK   14  A    between atoms: C_23  and  C_24
REMARK                            x       y       z     vdW  Elec       q    Type
REMARK                         _______ _______ _______ _____ _____    ______ ____
ROOT
ATOM      1  N   UNL     1       4.731   5.166  18.022  0.00  0.00    +0.000 N 
ATOM      2  C   UNL     1       6.015   5.322  17.499  0.00  0.00    +0.000 C 
ATOM      3  O   UNL     1       6.360   4.830  16.428  0.00  0.00    +0.000 OA
ENDROOT
BRANCH   1   5
ATOM      4  C   UNL     1       3.762   2.797  17.677  0.00  0.00    +0.000 C 
ATOM      5  C   UNL     1       3.800   4.278  17.278  0.00  0.00    +0.000 C 
ENDBRANCH   1   5
BRANCH   1   6
ATOM      6  C   UNL     1       4.378   5.598  19.398  0.00  0.00    +0.000 C 
BRANCH   6   7
ATOM      7  C   UNL     1       2.881   5.740  19.696  0.00  0.00    +0.000 C 
BRANCH   7   8
ATOM      8  C   UNL     1       2.325   7.121  19.465  0.00  0.00    +0.000 A 
ATOM      9  C   UNL     1       1.685   7.774  20.524  0.00  0.00    +0.000 A 
ATOM     10  C   UNL     1       1.088   9.013  20.344  0.00  0.00    +0.000 A 
ATOM     11  C   UNL     1       1.199   9.649  19.111  0.00  0.00    +0.000 A 
ATOM     12  C   UNL     1       1.863   9.032  18.045  0.00  0.00    +0.000 A 
ATOM     13  C   UNL     1       2.419   7.761  18.223  0.00  0.00    +0.000 A 
BRANCH  11  14
ATOM     14  S   UNL     1       0.358  11.192  18.900  0.00  0.00    +0.000 S 
ATOM     15  O   UNL     1       1.344  12.184  18.484  0.00  0.00    +0.000 OA
ATOM     16  O   UNL     1      -0.820  10.939  18.103  0.00  0.00    +0.000 OA
BRANCH  14  17
ATOM     17  N   UNL     1      -0.154  11.614  20.481  0.00  0.00    +0.000 NA
ATOM     18  C   UNL     1       0.594  12.724  21.122  0.00  0.00    +0.000 C 
ATOM     19  C   UNL     1      -1.613  11.879  20.524  0.00  0.00    +0.000 C 
ENDBRANCH  14  17
ENDBRANCH  11  14
ENDBRANCH   7   8
ENDBRANCH   6   7
ENDBRANCH   1   6
BRANCH   2  20
ATOM     20  C   UNL     1       7.041   6.110  18.315  0.00  0.00    +0.000 C 
BRANCH  20  21
ATOM     21  C   UNL     1       7.547   7.330  17.546  0.00  0.00    +0.000 C 
BRANCH  21  22
ATOM     22  C   UNL     1       8.399   8.231  18.445  0.00  0.00    +0.000 C 
BRANCH  22  23
ATOM     23  C   UNL     1       8.295   9.697  18.021  0.00  0.00    +0.000 C 
BRANCH  23  24
ATOM     24  C   UNL     1       9.365  10.552  18.656  0.00  0.00    +0.000 A 
ATOM     25  C   UNL     1       9.356  10.795  20.036  0.00  0.00    +0.000 A 
ATOM     26  C   UNL     1      10.344  11.589  20.621  0.00  0.00    +0.000 A 
ATOM     27  C   UNL     1      11.346  12.151  19.833  0.00  0.00    +0.000 A 
ATOM     28  C   UNL     1      11.360  11.920  18.458  0.00  0.00    +0.000 A 
ATOM     29  C   UNL     1      10.373  11.127  17.872  0.00  0.00    +0.000 A 
ENDBRANCH  23  24
ENDBRANCH  22  23
ENDBRANCH  21  22
ENDBRANCH  20  21
ENDBRANCH   2  20
TORSDOF 11
ENDMDL
MODEL 4
REMARK VINA RESULT:      -7.1      0.941      1.373
REMARK  Name = 
REMARK  14 active torsions:
REMARK  status: ('A' for Active; 'I' for Inactive)
REMARK    1  A    between atoms: C_1  and  C_2
REMARK    2  A    between atoms: C_2  and  N_3
REMARK    3  A    between atoms: N_3  and  C_4
REMARK    4  A    between atoms: C_4  and  C_5
REMARK    5  A    between atoms: C_5  and  C_6
REMARK    6  A    between atoms: C_9  and  S_10
REMARK    7  A    between atoms: S_10  and  N_13
REMARK    8  A    between atoms: N_13  and  C_14
REMARK    9  A    between atoms: N_13  and  C_15
REMARK   10  A    between atoms: C_18  and  C_20
REMARK   11  A    between atoms: C_20  and  C_21
REMARK   12  A    between atoms: C_21  and  C_22
REMARK   13  A    between atoms: C_22  and  C_23
REMARK   14  A    between atoms: C_23  and  C_24
REMARK                            x       y       z     vdW  Elec       q    Type
REMARK                         _______ _______ _______ _____ _____    ______ ____
ROOT
ATOM      1  N   UNL     1       6.161   6.124  17.605  0.00  0.00    +0.000 N 
ATOM      2  C   UNL     1       6.578   5.008  16.877  0.00  0.00    +0.000 C 
ATOM      3  O   UNL     1       7.525   5.040  16.096  0.00  0.00    +0.000 OA
ENDROOT
BRANCH   1   5
ATOM      4  C   UNL     1       8.069   7.765  18.184  0.00  0.00    +0.000 C 
ATOM      5  C   UNL     1       6.850   7.411  17.324  0.00  0.00    +0.000 C 
ENDBRANCH   1   5
BRANCH   1   6
ATOM      6  C   UNL     1       4.906   6.130  18.397  0.00  0.00    +0.000 C 
BRANCH   6   7
ATOM      7  C   UNL     1       3.640   6.565  17.649  0.00  0.00    +0.000 C 
BRANCH   7   8
ATOM      8  C   UNL     1       2.747   7.501  18.421  0.00  0.00    +0.000 A 
ATOM      9  C   UNL     1       2.323   8.684  17.807  0.00  0.00    +0.000 A 
ATOM     10  C   UNL     1       1.565   9.617  18.499  0.00  0.00    +0.000 A 
ATOM     11  C   UNL     1       1.156   9.333  19.799  0.00  0.00    +0.000 A 
ATOM     12  C   UNL     1       1.540   8.142  20.425  0.00  0.00    +0.000 A 
ATOM     13  C   UNL     1       2.345   7.229  19.735  0.00  0.00    +0.000 A 
BRANCH  11  14
ATOM     14  S   UNL     1       0.258  10.582  20.673  0.00  0.00    +0.000 S 
ATOM     15  O   UNL     1      -0.827   9.926  21.398  0.00  0.00    +0.000 OA
ATOM     16  O   UNL     1       1.220  11.405  21.367  0.00  0.00    +0.000 OA
BRANCH  14  17
ATOM     17  N   UNL     1      -0.457  11.532  19.438  0.00  0.00    +0.000 NA
ATOM     18  C   UNL     1      -1.813  11.112  19.009  0.00  0.00    +0.000 C 
ATOM     19  C   UNL     1      -0.448  12.973  19.790  0.00  0.00    +0.000 C 
ENDBRANCH  14  17
ENDBRANCH  11  14
ENDBRANCH   7   8
ENDBRANCH   6   7
ENDBRANCH   1   6
BRANCH   2  20
ATOM     20  C   UNL     1       5.795   3.704  17.038  0.00  0.00    +0.000 C 
BRANCH  20  21
ATOM     21  C   UNL     1       4.693   3.582  15.986  0.00  0.00    +0.000 C 
BRANCH  21  22
ATOM     22  C   UNL     1       3.349   3.242  16.636  0.00  0.00    +0.000 C 
BRANCH  22  23
ATOM     23  C   UNL     1       3.525   2.264  17.799  0.00  0.00    +0.000 C 
BRANCH  23  24
ATOM     24  C   UNL     1       2.810   2.724  19.045  0.00  0.00    +0.000 A 
ATOM     25  C   UNL     1       3.332   2.436  20.313  0.00  0.00    +0.000 A 
ATOM     26  C   UNL     1       2.668   2.860  21.466  0.00  0.00    +0.000 A 
ATOM     27  C   UNL     1       1.473   3.570  21.362  0.00  0.00    +0.000 A 
ATOM     28  C   UNL     1       0.942   3.856  20.106  0.00  0.00    +0.000 A 
ATOM     29  C   UNL     1       1.605   3.433  18.953  0.00  0.00    +0.000 A 
ENDBRANCH  23  24
ENDBRANCH  22  23
ENDBRANCH  21  22
ENDBRANCH  20  21
ENDBRANCH   2  20
TORSDOF 11
ENDMDL
MODEL 5
REMARK VINA RESULT:      -7.1      1.884      4.405
REMARK  Name = 
REMARK  14 active torsions:
REMARK  status: ('A' for Active; 'I' for Inactive)
REMARK    1  A    between atoms: C_1  and  C_2
REMARK    2  A    between atoms: C_2  and  N_3
REMARK    3  A    between atoms: N_3  and  C_4
REMARK    4  A    between atoms: C_4  and  C_5
REMARK    5  A    between atoms: C_5  and  C_6
REMARK    6  A    between atoms: C_9  and  S_10
REMARK    7  A    between atoms: S_10  and  N_13
REMARK    8  A    between atoms: N_13  and  C_14
REMARK    9  A    between atoms: N_13  and  C_15
REMARK   10  A    between atoms: C_18  and  C_20
REMARK   11  A    between atoms: C_20  and  C_21
REMARK   12  A    between atoms: C_21  and  C_22
REMARK   13  A    between atoms: C_22  and  C_23
REMARK   14  A    between atoms: C_23  and  C_24
REMARK                            x       y       z     vdW  Elec       q    Type
REMARK                         _______ _______ _______ _____ _____    ______ ____
ROOT
ATOM      1  N   UNL     1       2.571   4.102  18.698  0.00  0.00    +0.000 N 
ATOM      2  C   UNL     1       2.907   3.214  17.676  0.00  0.00    +0.000 C 
ATOM      3  O   UNL     1       2.151   2.326  17.291  0.00  0.00    +0.000 OA
ENDROOT
BRANCH   1   5
ATOM      4  C   UNL     1       1.318   3.701  20.921  0.00  0.00    +0.000 C 
ATOM      5  C   UNL     1       1.279   3.872  19.396  0.00  0.00    +0.000 C 
ENDBRANCH   1   5
BRANCH   1   6
ATOM      6  C   UNL     1       3.556   5.044  19.287  0.00  0.00    +0.000 C 
BRANCH   6   7
ATOM      7  C   UNL     1       3.807   6.336  18.499  0.00  0.00    +0.000 C 
BRANCH   7   8
ATOM      8  C   UNL     1       2.806   7.432  18.759  0.00  0.00    +0.000 A 
ATOM      9  C   UNL     1       2.585   8.389  17.765  0.00  0.00    +0.000 A 
ATOM     10  C   UNL     1       1.733   9.463  17.982  0.00  0.00    +0.000 A 
ATOM     11  C   UNL     1       1.029   9.541  19.181  0.00  0.00    +0.000 A 
ATOM     12  C   UNL     1       1.209   8.577  20.179  0.00  0.00    +0.000 A 
ATOM     13  C   UNL     1       2.106   7.525  19.969  0.00  0.00    +0.000 A 
BRANCH  11  14
ATOM     14  S   UNL     1       0.014  10.965  19.450  0.00  0.00    +0.000 S 
ATOM     15  O   UNL     1       0.399  11.978  18.472  0.00  0.00    +0.000 OA
ATOM     16  O   UNL     1      -1.354  10.512  19.547  0.00  0.00    +0.000 OA
BRANCH  14  17
ATOM     17  N   UNL     1       0.492  11.539  20.993  0.00  0.00    +0.000 NA
ATOM     18  C   UNL     1       1.018  12.925  21.027  0.00  0.00    +0.000 C 
ATOM     19  C   UNL     1      -0.593  11.371  21.991  0.00  0.00    +0.000 C 
ENDBRANCH  14  17
ENDBRANCH  11  14
ENDBRANCH   7   8
ENDBRANCH   6   7
ENDBRANCH   1   6
BRANCH   2  20
ATOM     20  C   UNL     1       4.292   3.335  17.037  0.00  0.00    +0.000 C 
BRANCH  20  21
ATOM     21  C   UNL     1       4.293   4.355  15.899  0.00  0.00    +0.000 C 
BRANCH  21  22
ATOM     22  C   UNL     1       5.601   4.289  15.104  0.00  0.00    +0.000 C 
BRANCH  22  23
ATOM     23  C   UNL     1       6.778   3.904  16.001  0.00  0.00    +0.000 C 
BRANCH  23  24
ATOM     24  C   UNL     1       7.186   5.029  16.921  0.00  0.00    +0.000 A 
ATOM     25  C   UNL     1       7.672   4.757  18.207  0.00  0.00    +0.000 A 
ATOM     26  C   UNL     1       8.045   5.798  19.058  0.00  0.00    +0.000 A 
ATOM     27  C   UNL     1       7.932   7.121  18.634  0.00  0.00    +0.000 A 
ATOM     28  C   UNL     1       7.445   7.403  17.358  0.00  0.00    +0.000 A 
ATOM     29  C   UNL     1       7.070   6.362  16.507  0.00  0.00    +0.000 A 
ENDBRANCH  23  24
ENDBRANCH  22  23
ENDBRANCH  21  22
ENDBRANCH  20  21
ENDBRANCH   2  20
TORSDOF 11
ENDMDL
MODEL 6
REMARK VINA RESULT:      -7.0      2.032      4.744
REMARK  Name = 
REMARK  14 active torsions:
REMARK  status: ('A' for Active; 'I' for Inactive)
REMARK    1  A    between atoms: C_1  and  C_2
REMARK    2  A    between atoms: C_2  and  N_3
REMARK    3  A    between atoms: N_3  and  C_4
REMARK    4  A    between atoms: C_4  and  C_5
REMARK    5  A    between atoms: C_5  and  C_6
REMARK    6  A    between atoms: C_9  and  S_10
REMARK    7  A    between atoms: S_10  and  N_13
REMARK    8  A    between atoms: N_13  and  C_14
REMARK    9  A    between atoms: N_13  and  C_15
REMARK   10  A    between atoms: C_18  and  C_20
REMARK   11  A    between atoms: C_20  and  C_21
REMARK   12  A    between atoms: C_21  and  C_22
REMARK   13  A    between atoms: C_22  and  C_23
REMARK   14  A    between atoms: C_23  and  C_24
REMARK                            x       y       z     vdW  Elec       q    Type
REMARK                         _______ _______ _______ _____ _____    ______ ____
ROOT
ATOM      1  N   UNL     1       2.204   3.947  19.499  0.00  0.00    +0.000 N 
ATOM      2  C   UNL     1       2.964   2.996  18.818  0.00  0.00    +0.000 C 
ATOM      3  O   UNL     1       2.662   1.806  18.778  0.00  0.00    +0.000 OA
ENDROOT
BRANCH   1   5
ATOM      4  C   UNL     1       1.331   2.817  21.651  0.00  0.00    +0.000 C 
ATOM      5  C   UNL     1       1.043   3.449  20.283  0.00  0.00    +0.000 C 
ENDBRANCH   1   5
BRANCH   1   6
ATOM      6  C   UNL     1       2.674   5.340  19.703  0.00  0.00    +0.000 C 
BRANCH   6   7
ATOM      7  C   UNL     1       2.488   6.294  18.518  0.00  0.00    +0.000 C 
BRANCH   7   8
ATOM      8  C   UNL     1       2.047   7.684  18.896  0.00  0.00    +0.000 A 
ATOM      9  C   UNL     1       1.660   7.930  20.217  0.00  0.00    +0.000 A 
ATOM     10  C   UNL     1       1.172   9.171  20.601  0.00  0.00    +0.000 A 
ATOM     11  C   UNL     1       1.143  10.207  19.672  0.00  0.00    +0.000 A 
ATOM     12  C   UNL     1       1.556   9.996  18.352  0.00  0.00    +0.000 A 
ATOM     13  C   UNL     1       2.000   8.728  17.963  0.00  0.00    +0.000 A 
BRANCH  11  14
ATOM     14  S   UNL     1       0.441  11.750  20.180  0.00  0.00    +0.000 S 
ATOM     15  O   UNL     1       0.494  11.806  21.637  0.00  0.00    +0.000 OA
ATOM     16  O   UNL     1       1.045  12.788  19.376  0.00  0.00    +0.000 OA
BRANCH  14  17
ATOM     17  N   UNL     1      -1.210  11.631  19.734  0.00  0.00    +0.000 NA
ATOM     18  C   UNL     1      -2.171  12.286  20.655  0.00  0.00    +0.000 C 
ATOM     19  C   UNL     1      -1.429  12.092  18.342  0.00  0.00    +0.000 C 
ENDBRANCH  14  17
ENDBRANCH  11  14
ENDBRANCH   7   8
ENDBRANCH   6   7
ENDBRANCH   1   6
BRANCH   2  20
ATOM     20  C   UNL     1       4.246   3.456  18.121  0.00  0.00    +0.000 C 
BRANCH  20  21
ATOM     21  C   UNL     1       4.107   3.398  16.601  0.00  0.00    +0.000 C 
BRANCH  21  22
ATOM     22  C   UNL     1       4.856   4.557  15.936  0.00  0.00    +0.000 C 
BRANCH  22  23
ATOM     23  C   UNL     1       6.372   4.373  16.042  0.00  0.00    +0.000 C 
BRANCH  23  24
ATOM     24  C   UNL     1       7.000   5.357  16.998  0.00  0.00    +0.000 A 
ATOM     25  C   UNL     1       7.465   4.936  18.251  0.00  0.00    +0.000 A 
ATOM     26  C   UNL     1       8.043   5.848  19.135  0.00  0.00    +0.000 A 
ATOM     27  C   UNL     1       8.157   7.190  18.778  0.00  0.00    +0.000 A 
ATOM     28  C   UNL     1       7.693   7.621  17.536  0.00  0.00    +0.000 A 
ATOM     29  C   UNL     1       7.114   6.710  16.651  0.00  0.00    +0.000 A 
ENDBRANCH  23  24
ENDBRANCH  22  23
ENDBRANCH  21  22
ENDBRANCH  20  21
ENDBRANCH   2  20
TORSDOF 11
ENDMDL
MODEL 7
REMARK VINA RESULT:      -7.0      1.341      2.285
REMARK  Name = 
REMARK  14 active torsions:
REMARK  status: ('A' for Active; 'I' for Inactive)
REMARK    1  A    between atoms: C_1  and  C_2
REMARK    2  A    between atoms: C_2  and  N_3
REMARK    3  A    between atoms: N_3  and  C_4
REMARK    4  A    between atoms: C_4  and  C_5
REMARK    5  A    between atoms: C_5  and  C_6
REMARK    6  A    between atoms: C_9  and  S_10
REMARK    7  A    between atoms: S_10  and  N_13
REMARK    8  A    between atoms: N_13  and  C_14
REMARK    9  A    between atoms: N_13  and  C_15
REMARK   10  A    between atoms: C_18  and  C_20
REMARK   11  A    between atoms: C_20  and  C_21
REMARK   12  A    between atoms: C_21  and  C_22
REMARK   13  A    between atoms: C_22  and  C_23
REMARK   14  A    between atoms: C_23  and  C_24
REMARK                            x       y       z     vdW  Elec       q    Type
REMARK                         _______ _______ _______ _____ _____    ______ ____
ROOT
ATOM      1  N   UNL     1       6.075   5.999  16.369  0.00  0.00    +0.000 N 
ATOM      2  C   UNL     1       7.160   5.481  17.076  0.00  0.00    +0.000 C 
ATOM      3  O   UNL     1       7.823   4.529  16.672  0.00  0.00    +0.000 OA
ENDROOT
BRANCH   1   5
ATOM      4  C   UNL     1       6.758   4.981  14.097  0.00  0.00    +0.000 C 
ATOM      5  C   UNL     1       5.667   5.282  15.132  0.00  0.00    +0.000 C 
ENDBRANCH   1   5
BRANCH   1   6
ATOM      6  C   UNL     1       5.165   7.019  16.949  0.00  0.00    +0.000 C 
BRANCH   6   7
ATOM      7  C   UNL     1       3.670   6.679  16.929  0.00  0.00    +0.000 C 
BRANCH   7   8
ATOM      8  C   UNL     1       2.854   7.380  17.984  0.00  0.00    +0.000 A 
ATOM      9  C   UNL     1       2.352   8.655  17.708  0.00  0.00    +0.000 A 
ATOM     10  C   UNL     1       1.661   9.376  18.671  0.00  0.00    +0.000 A 
ATOM     11  C   UNL     1       1.398   8.786  19.904  0.00  0.00    +0.000 A 
ATOM     12  C   UNL     1       1.862   7.498  20.193  0.00  0.00    +0.000 A 
ATOM     13  C   UNL     1       2.599   6.798  19.232  0.00  0.00    +0.000 A 
BRANCH  11  14
ATOM     14  S   UNL     1       0.583   9.766  21.131  0.00  0.00    +0.000 S 
ATOM     15  O   UNL     1      -0.645   9.075  21.511  0.00  0.00    +0.000 OA
ATOM     16  O   UNL     1       1.568  10.126  22.124  0.00  0.00    +0.000 OA
BRANCH  14  17
ATOM     17  N   UNL     1       0.127  11.193  20.297  0.00  0.00    +0.000 NA
ATOM     18  C   UNL     1      -1.220  11.171  19.677  0.00  0.00    +0.000 C 
ATOM     19  C   UNL     1       0.283  12.394  21.155  0.00  0.00    +0.000 C 
ENDBRANCH  14  17
ENDBRANCH  11  14
ENDBRANCH   7   8
ENDBRANCH   6   7
ENDBRANCH   1   6
BRANCH   2  20
ATOM     20  C   UNL     1       7.513   6.108  18.426  0.00  0.00    +0.000 C 
BRANCH  20  21
ATOM     21  C   UNL     1       7.060   5.223  19.587  0.00  0.00    +0.000 C 
BRANCH  21  22
ATOM     22  C   UNL     1       5.535   5.086  19.610  0.00  0.00    +0.000 C 
BRANCH  22  23
ATOM     23  C   UNL     1       5.093   3.709  19.110  0.00  0.00    +0.000 C 
BRANCH  23  24
ATOM     24  C   UNL     1       3.613   3.483  19.295  0.00  0.00    +0.000 A 
ATOM     25  C   UNL     1       3.057   3.420  20.580  0.00  0.00    +0.000 A 
ATOM     26  C   UNL     1       1.688   3.206  20.750  0.00  0.00    +0.000 A 
ATOM     27  C   UNL     1       0.863   3.049  19.639  0.00  0.00    +0.000 A 
ATOM     28  C   UNL     1       1.406   3.105  18.356  0.00  0.00    +0.000 A 
ATOM     29  C   UNL     1       2.774   3.317  18.185  0.00  0.00    +0.000 A 
ENDBRANCH  23  24
ENDBRANCH  22  23
ENDBRANCH  21  22
ENDBRANCH  20  21
ENDBRANCH   2  20
TORSDOF 11
ENDMDL
MODEL 8
REMARK VINA RESULT:      -7.0      2.217      5.045
REMARK  Name = 
REMARK  14 active torsions:
REMARK  status: ('A' for Active; 'I' for Inactive)
REMARK    1  A    between atoms: C_1  and  C_2
REMARK    2  A    between atoms: C_2  and  N_3
REMARK    3  A    between atoms: N_3  and  C_4
REMARK    4  A    between atoms: C_4  and  C_5
REMARK    5  A    between atoms: C_5  and  C_6
REMARK    6  A    between atoms: C_9  and  S_10
REMARK    7  A    between atoms: S_10  and  N_13
REMARK    8  A    between atoms: N_13  and  C_14
REMARK    9  A    between atoms: N_13  and  C_15
REMARK   10  A    between atoms: C_18  and  C_20
REMARK   11  A    between atoms: C_20  and  C_21
REMARK   12  A    between atoms: C_21  and  C_22
REMARK   13  A    between atoms: C_22  and  C_23
REMARK   14  A    between atoms: C_23  and  C_24
REMARK                            x       y       z     vdW  Elec       q    Type
REMARK                         _______ _______ _______ _____ _____    ______ ____
ROOT
ATOM      1  N   UNL     1       3.485   4.480  19.729  0.00  0.00    +0.000 N 
ATOM      2  C   UNL     1       4.796   4.060  19.498  0.00  0.00    +0.000 C 
ATOM      3  O   UNL     1       5.136   2.882  19.549  0.00  0.00    +0.000 OA
ENDROOT
BRANCH   1   5
ATOM      4  C   UNL     1       1.045   3.873  20.317  0.00  0.00    +0.000 C 
ATOM      5  C   UNL     1       2.508   3.442  20.152  0.00  0.00    +0.000 C 
ENDBRANCH   1   5
BRANCH   1   6
ATOM      6  C   UNL     1       3.121   5.914  19.854  0.00  0.00    +0.000 C 
BRANCH   6   7
ATOM      7  C   UNL     1       2.537   6.572  18.598  0.00  0.00    +0.000 C 
BRANCH   7   8
ATOM      8  C   UNL     1       2.084   7.996  18.792  0.00  0.00    +0.000 A 
ATOM      9  C   UNL     1       1.485   8.351  20.004  0.00  0.00    +0.000 A 
ATOM     10  C   UNL     1       0.979   9.628  20.206  0.00  0.00    +0.000 A 
ATOM     11  C   UNL     1       1.144  10.589  19.213  0.00  0.00    +0.000 A 
ATOM     12  C   UNL     1       1.770  10.268  18.003  0.00  0.00    +0.000 A 
ATOM     13  C   UNL     1       2.233   8.965  17.791  0.00  0.00    +0.000 A 
BRANCH  11  14
ATOM     14  S   UNL     1       0.418  12.181  19.476  0.00  0.00    +0.000 S 
ATOM     15  O   UNL     1       0.854  13.055  18.393  0.00  0.00    +0.000 OA
ATOM     16  O   UNL     1      -0.987  11.979  19.744  0.00  0.00    +0.000 OA
BRANCH  14  17
ATOM     17  N   UNL     1       1.154  12.748  20.917  0.00  0.00    +0.000 NA
ATOM     18  C   UNL     1       2.383  13.558  20.733  0.00  0.00    +0.000 C 
ATOM     19  C   UNL     1       0.181  13.470  21.773  0.00  0.00    +0.000 C 
ENDBRANCH  14  17
ENDBRANCH  11  14
ENDBRANCH   7   8
ENDBRANCH   6   7
ENDBRANCH   1   6
BRANCH   2  20
ATOM     20  C   UNL     1       5.856   5.123  19.203  0.00  0.00    +0.000 C 
BRANCH  20  21
ATOM     21  C   UNL     1       6.568   4.849  17.879  0.00  0.00    +0.000 C 
BRANCH  21  22
ATOM     22  C   UNL     1       5.752   5.379  16.696  0.00  0.00    +0.000 C 
BRANCH  22  23
ATOM     23  C   UNL     1       5.287   4.241  15.786  0.00  0.00    +0.000 C 
BRANCH  23  24
ATOM     24  C   UNL     1       5.970   4.269  14.441  0.00  0.00    +0.000 A 
ATOM     25  C   UNL     1       5.492   3.485  13.383  0.00  0.00    +0.000 A 
ATOM     26  C   UNL     1       6.127   3.510  12.140  0.00  0.00    +0.000 A 
ATOM     27  C   UNL     1       7.249   4.314  11.945  0.00  0.00    +0.000 A 
ATOM     28  C   UNL     1       7.736   5.093  12.993  0.00  0.00    +0.000 A 
ATOM     29  C   UNL     1       7.102   5.069  14.236  0.00  0.00    +0.000 A 
ENDBRANCH  23  24
ENDBRANCH  22  23
ENDBRANCH  21  22
ENDBRANCH  20  21
ENDBRANCH   2  20
TORSDOF 11
ENDMDL
MODEL 9
REMARK VINA RESULT:      -7.0      2.584      6.684
REMARK  Name = 
REMARK  14 active torsions:
REMARK  status: ('A' for Active; 'I' for Inactive)
REMARK    1  A    between atoms: C_1  and  C_2
REMARK    2  A    between atoms: C_2  and  N_3
REMARK    3  A    between atoms: N_3  and  C_4
REMARK    4  A    between atoms: C_4  and  C_5
REMARK    5  A    between atoms: C_5  and  C_6
REMARK    6  A    between atoms: C_9  and  S_10
REMARK    7  A    between atoms: S_10  and  N_13
REMARK    8  A    between atoms: N_13  and  C_14
REMARK    9  A    between atoms: N_13  and  C_15
REMARK   10  A    between atoms: C_18  and  C_20
REMARK   11  A    between atoms: C_20  and  C_21
REMARK   12  A    between atoms: C_21  and  C_22
REMARK   13  A    between atoms: C_22  and  C_23
REMARK   14  A    between atoms: C_23  and  C_24
REMARK                            x       y       z     vdW  Elec       q    Type
REMARK                         _______ _______ _______ _____ _____    ______ ____
ROOT
ATOM      1  N   UNL     1       5.643   5.700  16.723  0.00  0.00    +0.000 N 
ATOM      2  C   UNL     1       6.835   6.293  17.142  0.00  0.00    +0.000 C 
ATOM      3  O   UNL     1       7.887   5.668  17.245  0.00  0.00    +0.000 OA
ENDROOT
BRANCH   1   5
ATOM      4  C   UNL     1       6.008   3.733  15.090  0.00  0.00    +0.000 C 
ATOM      5  C   UNL     1       5.659   4.231  16.499  0.00  0.00    +0.000 C 
ENDBRANCH   1   5
BRANCH   1   6
ATOM      6  C   UNL     1       4.340   6.410  16.784  0.00  0.00    +0.000 C 
BRANCH   6   7
ATOM      7  C   UNL     1       3.498   6.166  18.042  0.00  0.00    +0.000 C 
BRANCH   7   8
ATOM      8  C   UNL     1       2.684   7.352  18.491  0.00  0.00    +0.000 A 
ATOM      9  C   UNL     1       2.204   7.379  19.803  0.00  0.00    +0.000 A 
ATOM     10  C   UNL     1       1.385   8.409  20.245  0.00  0.00    +0.000 A 
ATOM     11  C   UNL     1       1.104   9.470  19.388  0.00  0.00    +0.000 A 
ATOM     12  C   UNL     1       1.600   9.482  18.079  0.00  0.00    +0.000 A 
ATOM     13  C   UNL     1       2.385   8.415  17.629  0.00  0.00    +0.000 A 
BRANCH  11  14
ATOM     14  S   UNL     1      -0.006  10.722  19.962  0.00  0.00    +0.000 S 
ATOM     15  O   UNL     1      -1.280  10.536  19.276  0.00  0.00    +0.000 OA
ATOM     16  O   UNL     1       0.064  10.738  21.404  0.00  0.00    +0.000 OA
BRANCH  14  17
ATOM     17  N   UNL     1       0.674  12.186  19.384  0.00  0.00    +0.000 NA
ATOM     18  C   UNL     1      -0.260  13.089  18.668  0.00  0.00    +0.000 C 
ATOM     19  C   UNL     1       1.377  12.919  20.465  0.00  0.00    +0.000 C 
ENDBRANCH  14  17
ENDBRANCH  11  14
ENDBRANCH   7   8
ENDBRANCH   6   7
ENDBRANCH   1   6
BRANCH   2  20
ATOM     20  C   UNL     1       6.814   7.775  17.521  0.00  0.00    +0.000 C 
BRANCH  20  21
ATOM     21  C   UNL     1       8.189   8.250  17.990  0.00  0.00    +0.000 C 
BRANCH  21  22
ATOM     22  C   UNL     1       8.237   9.777  18.088  0.00  0.00    +0.000 C 
BRANCH  22  23
ATOM     23  C   UNL     1       9.435  10.243  18.919  0.00  0.00    +0.000 C 
BRANCH  23  24
ATOM     24  C   UNL     1      10.035  11.522  18.388  0.00  0.00    +0.000 A 
ATOM     25  C   UNL     1       9.235  12.655  18.192  0.00  0.00    +0.000 A 
ATOM     26  C   UNL     1       9.790  13.837  17.697  0.00  0.00    +0.000 A 
ATOM     27  C   UNL     1      11.148  13.895  17.390  0.00  0.00    +0.000 A 
ATOM     28  C   UNL     1      11.952  12.771  17.576  0.00  0.00    +0.000 A 
ATOM     29  C   UNL     1      11.397  11.589  18.070  0.00  0.00    +0.000 A 
ENDBRANCH  23  24
ENDBRANCH  22  23
ENDBRANCH  21  22
ENDBRANCH  20  21
ENDBRANCH   2  20
TORSDOF 11
ENDMDL
