MODEL 1
REMARK VINA RESULT:      -8.6      0.000      0.000
REMARK  Name = 
REMARK  8 active torsions:
REMARK  status: ('A' for Active; 'I' for Inactive)
REMARK    1  A    between atoms: C_1  and  C_2
REMARK    2  A    between atoms: C_6  and  C_7
REMARK    3  A    between atoms: C_7  and  N_8
REMARK    4  A    between atoms: C_9  and  C_11
REMARK    5  A    between atoms: N_16  and  C_17
REMARK    6  A    between atoms: C_17  and  C_18
REMARK    7  A    between atoms: C_18  and  C_19
REMARK    8  A    between atoms: C_19  and  C_20
REMARK                            x       y       z     vdW  Elec       q    Type
REMARK                         _______ _______ _______ _____ _____    ______ ____
ROOT
ATOM      1  C   UNL     1       4.817   6.381  16.544  0.00  0.00    +0.000 C 
ATOM      2  C   UNL     1       5.446   5.243  15.750  0.00  0.00    +0.000 C 
ATOM      3  C   UNL     1       6.222   4.338  16.689  0.00  0.00    +0.000 C 
ATOM      4  C   UNL     1       7.261   5.074  17.509  0.00  0.00    +0.000 C 
ATOM      5  O   UNL     1       8.201   4.449  18.000  0.00  0.00    +0.000 OA
ATOM      6  N   UNL     1       7.079   6.436  17.702  0.00  0.00    +0.000 N 
ATOM      7  C   UNL     1       5.954   7.207  17.154  0.00  0.00    +0.000 C 
ENDROOT
BRANCH   1   9
ATOM      8  N   UNL     1       3.502   6.839  18.563  0.00  0.00    +0.000 N 
ATOM      9  C   UNL     1       3.811   5.903  17.599  0.00  0.00    +0.000 C 
ATOM     10  O   UNL     1       3.351   4.766  17.612  0.00  0.00    +0.000 OA
ATOM     11  H   UNL     1       3.832   7.790  18.477  0.00  0.00    +0.000 HD
BRANCH   8  12
ATOM     12  C   UNL     1       2.495   6.591  19.578  0.00  0.00    +0.000 C 
BRANCH  12  18
ATOM     13  C   UNL     1       0.039   9.478  22.936  0.00  0.00    +0.000 C 
ATOM     14  C   UNL     1       0.561   9.257  21.547  0.00  0.00    +0.000 A 
ATOM     15  C   UNL     1       0.424  10.249  20.570  0.00  0.00    +0.000 A 
ATOM     16  C   UNL     1       0.936  10.053  19.289  0.00  0.00    +0.000 A 
ATOM     17  C   UNL     1       1.589   8.863  18.971  0.00  0.00    +0.000 A 
ATOM     18  C   UNL     1       1.737   7.848  19.930  0.00  0.00    +0.000 A 
ATOM     19  C   UNL     1       1.219   8.056  21.220  0.00  0.00    +0.000 A 
ENDBRANCH  12  18
ENDBRANCH   8  12
ENDBRANCH   1   9
BRANCH   6  20
ATOM     20  C   UNL     1       8.118   7.179  18.424  0.00  0.00    +0.000 C 
BRANCH  20  21
ATOM     21  C   UNL     1       8.202   8.673  18.060  0.00  0.00    +0.000 C 
BRANCH  21  22
ATOM     22  C   UNL     1       9.097   9.470  19.014  0.00  0.00    +0.000 C 
BRANCH  22  23
ATOM     23  C   UNL     1       9.477  10.851  18.531  0.00  0.00    +0.000 A 
ATOM     24  C   UNL     1      10.807  11.291  18.574  0.00  0.00    +0.000 A 
ATOM     25  C   UNL     1      11.167  12.531  18.040  0.00  0.00    +0.000 A 
ATOM     26  C   UNL     1      10.202  13.345  17.450  0.00  0.00    +0.000 A 
ATOM     27  C   UNL     1       8.876  12.923  17.404  0.00  0.00    +0.000 A 
ATOM     28  C   UNL     1       8.515  11.683  17.939  0.00  0.00    +0.000 A 
ENDBRANCH  22  23
ENDBRANCH  21  22
ENDBRANCH  20  21
ENDBRANCH   6  20
TORSDOF 7
ENDMDL
MODEL 2
REMARK VINA RESULT:      -8.5      4.346      8.058
REMARK  Name = 
REMARK  8 active torsions:
REMARK  status: ('A' for Active; 'I' for Inactive)
REMARK    1  A    between atoms: C_1  and  C_2
REMARK    2  A    between atoms: C_6  and  C_7
REMARK    3  A    between atoms: C_7  and  N_8
REMARK    4  A    between atoms: C_9  and  C_11
REMARK    5  A    between atoms: N_16  and  C_17
REMARK    6  A    between atoms: C_17  and  C_18
REMARK    7  A    between atoms: C_18  and  C_19
REMARK    8  A    between atoms: C_19  and  C_20
REMARK                            x       y       z     vdW  Elec       q    Type
REMARK                         _______ _______ _______ _____ _____    ______ ____
ROOT
ATOM      1  C   UNL     1       4.605   3.024  18.755  0.00  0.00    +0.000 C 
ATOM      2  C   UNL     1       3.894   2.223  17.671  0.00  0.00    +0.000 C 
ATOM      3  C   UNL     1       2.870   3.104  16.980  0.00  0.00    +0.000 C 
ATOM      4  C   UNL     1       1.878   3.734  17.935  0.00  0.00    +0.000 C 
ATOM      5  O   UNL     1       0.795   4.134  17.508  0.00  0.00    +0.000 OA
ATOM      6  N   UNL     1       2.261   3.868  19.262  0.00  0.00    +0.000 N 
ATOM      7  C   UNL     1       3.557   3.428  19.797  0.00  0.00    +0.000 C 
ENDROOT
BRANCH   1   9
ATOM      8  N   UNL     1       5.913   4.047  16.950  0.00  0.00    +0.000 N 
ATOM      9  C   UNL     1       5.382   4.229  18.210  0.00  0.00    +0.000 C 
ATOM     10  O   UNL     1       5.557   5.256  18.857  0.00  0.00    +0.000 OA
ATOM     11  H   UNL     1       5.682   3.224  16.411  0.00  0.00    +0.000 HD
BRANCH   8  12
ATOM     12  C   UNL     1       6.591   5.117  16.242  0.00  0.00    +0.000 C 
BRANCH  12  18
ATOM     13  C   UNL     1       5.128   2.707  12.035  0.00  0.00    +0.000 C 
ATOM     14  C   UNL     1       6.068   3.641  12.739  0.00  0.00    +0.000 A 
ATOM     15  C   UNL     1       7.087   4.290  12.032  0.00  0.00    +0.000 A 
ATOM     16  C   UNL     1       7.941   5.179  12.681  0.00  0.00    +0.000 A 
ATOM     17  C   UNL     1       7.785   5.430  14.045  0.00  0.00    +0.000 A 
ATOM     18  C   UNL     1       6.774   4.789  14.780  0.00  0.00    +0.000 A 
ATOM     19  C   UNL     1       5.918   3.895  14.115  0.00  0.00    +0.000 A 
ENDBRANCH  12  18
ENDBRANCH   8  12
ENDBRANCH   1   9
BRANCH   6  20
ATOM     20  C   UNL     1       1.282   4.401  20.216  0.00  0.00    +0.000 C 
BRANCH  20  21
ATOM     21  C   UNL     1       1.616   5.803  20.756  0.00  0.00    +0.000 C 
BRANCH  21  22
ATOM     22  C   UNL     1       2.422   6.648  19.764  0.00  0.00    +0.000 C 
BRANCH  22  23
ATOM     23  C   UNL     1       1.877   8.036  19.515  0.00  0.00    +0.000 A 
ATOM     24  C   UNL     1       1.975   8.634  18.251  0.00  0.00    +0.000 A 
ATOM     25  C   UNL     1       1.387   9.876  18.001  0.00  0.00    +0.000 A 
ATOM     26  C   UNL     1       0.689  10.535  19.012  0.00  0.00    +0.000 A 
ATOM     27  C   UNL     1       0.588   9.955  20.273  0.00  0.00    +0.000 A 
ATOM     28  C   UNL     1       1.176   8.713  20.524  0.00  0.00    +0.000 A 
ENDBRANCH  22  23
ENDBRANCH  21  22
ENDBRANCH  20  21
ENDBRANCH   6  20
TORSDOF 7
ENDMDL
MODEL 3
REMARK VINA RESULT:      -8.5      0.803      1.113
REMARK  Name = 
REMARK  8 active torsions:
REMARK  status: ('A' for Active; 'I' for Inactive)
REMARK    1  A    between atoms: C_1  and  C_2
REMARK    2  A    between atoms: C_6  and  C_7
REMARK    3  A    between atoms: C_7  and  N_8
REMARK    4  A    between atoms: C_9  and  C_11
REMARK    5  A    between atoms: N_16  and  C_17
REMARK    6  A    between atoms: C_17  and  C_18
REMARK    7  A    between atoms: C_18  and  C_19
REMARK    8  A    between atoms: C_19  and  C_20
REMARK                            x       y       z     vdW  Elec       q    Type
REMARK                         _______ _______ _______ _____ _____    ______ ____
ROOT
ATOM      1  C   UNL     1       4.844   6.229  16.361  0.00  0.00    +0.000 C 
ATOM      2  C   UNL     1       5.533   5.076  15.642  0.00  0.00    +0.000 C 
ATOM      3  C   UNL     1       6.307   4.243  16.648  0.00  0.00    +0.000 C 
ATOM      4  C   UNL     1       7.297   5.051  17.461  0.00  0.00    +0.000 C 
ATOM      5  O   UNL     1       8.239   4.480  18.010  0.00  0.00    +0.000 OA
ATOM      6  N   UNL     1       7.067   6.414  17.582  0.00  0.00    +0.000 N 
ATOM      7  C   UNL     1       5.936   7.120  16.963  0.00  0.00    +0.000 C 
ENDROOT
BRANCH   1   9
ATOM      8  N   UNL     1       3.521   6.713  18.368  0.00  0.00    +0.000 N 
ATOM      9  C   UNL     1       3.821   5.770  17.407  0.00  0.00    +0.000 C 
ATOM     10  O   UNL     1       3.341   4.642  17.418  0.00  0.00    +0.000 OA
ATOM     11  H   UNL     1       3.869   7.657  18.284  0.00  0.00    +0.000 HD
BRANCH   8  12
ATOM     12  C   UNL     1       2.501   6.483  19.375  0.00  0.00    +0.000 C 
BRANCH  12  18
ATOM     13  C   UNL     1       0.366   9.436  22.892  0.00  0.00    +0.000 C 
ATOM     14  C   UNL     1       0.799   9.207  21.474  0.00  0.00    +0.000 A 
ATOM     15  C   UNL     1       0.650  10.215  20.515  0.00  0.00    +0.000 A 
ATOM     16  C   UNL     1       1.079  10.012  19.205  0.00  0.00    +0.000 A 
ATOM     17  C   UNL     1       1.662   8.798  18.840  0.00  0.00    +0.000 A 
ATOM     18  C   UNL     1       1.819   7.767  19.780  0.00  0.00    +0.000 A 
ATOM     19  C   UNL     1       1.384   7.983  21.099  0.00  0.00    +0.000 A 
ENDBRANCH  12  18
ENDBRANCH   8  12
ENDBRANCH   1   9
BRANCH   6  20
ATOM     20  C   UNL     1       8.059   7.224  18.296  0.00  0.00    +0.000 C 
BRANCH  20  21
ATOM     21  C   UNL     1       8.390   8.568  17.622  0.00  0.00    +0.000 C 
BRANCH  21  22
ATOM     22  C   UNL     1       8.171   9.769  18.545  0.00  0.00    +0.000 C 
BRANCH  22  23
ATOM     23  C   UNL     1       9.420  10.548  18.890  0.00  0.00    +0.000 A 
ATOM     24  C   UNL     1      10.306  10.973  17.890  0.00  0.00    +0.000 A 
ATOM     25  C   UNL     1      11.407  11.773  18.204  0.00  0.00    +0.000 A 
ATOM     26  C   UNL     1      11.636  12.161  19.524  0.00  0.00    +0.000 A 
ATOM     27  C   UNL     1      10.767  11.742  20.527  0.00  0.00    +0.000 A 
ATOM     28  C   UNL     1       9.665  10.942  20.214  0.00  0.00    +0.000 A 
ENDBRANCH  22  23
ENDBRANCH  21  22
ENDBRANCH  20  21
ENDBRANCH   6  20
TORSDOF 7
ENDMDL
MODEL 4
REMARK VINA RESULT:      -8.4      1.581      7.226
REMARK  Name = 
REMARK  8 active torsions:
REMARK  status: ('A' for Active; 'I' for Inactive)
REMARK    1  A    between atoms: C_1  and  C_2
REMARK    2  A    between atoms: C_6  and  C_7
REMARK    3  A    between atoms: C_7  and  N_8
REMARK    4  A    between atoms: C_9  and  C_11
REMARK    5  A    between atoms: N_16  and  C_17
REMARK    6  A    between atoms: C_17  and  C_18
REMARK    7  A    between atoms: C_18  and  C_19
REMARK    8  A    between atoms: C_19  and  C_20
REMARK                            x       y       z     vdW  Elec       q    Type
REMARK                         _______ _______ _______ _____ _____    ______ ____
ROOT
ATOM      1  C   UNL     1       7.437   5.802  18.559  0.00  0.00    +0.000 C 
ATOM      2  C   UNL     1       7.869   4.631  17.686  0.00  0.00    +0.000 C 
ATOM      3  C   UNL     1       6.833   4.398  16.602  0.00  0.00    +0.000 C 
ATOM      4  C   UNL     1       5.434   4.189  17.144  0.00  0.00    +0.000 C 
ATOM      5  O   UNL     1       4.594   3.616  16.451  0.00  0.00    +0.000 OA
ATOM      6  N   UNL     1       5.152   4.696  18.404  0.00  0.00    +0.000 N 
ATOM      7  C   UNL     1       6.123   5.410  19.246  0.00  0.00    +0.000 C 
ENDROOT
BRANCH   1   9
ATOM      8  N   UNL     1       8.201   8.105  18.200  0.00  0.00    +0.000 N 
ATOM      9  C   UNL     1       7.322   7.124  17.791  0.00  0.00    +0.000 C 
ATOM     10  O   UNL     1       6.486   7.313  16.913  0.00  0.00    +0.000 OA
ATOM     11  H   UNL     1       8.930   7.891  18.866  0.00  0.00    +0.000 HD
BRANCH   8  12
ATOM     12  C   UNL     1       8.298   9.382  17.518  0.00  0.00    +0.000 C 
BRANCH  12  18
ATOM     13  C   UNL     1      10.112  14.062  18.189  0.00  0.00    +0.000 C 
ATOM     14  C   UNL     1       9.826  12.689  18.722  0.00  0.00    +0.000 A 
ATOM     15  C   UNL     1      10.096  12.375  20.059  0.00  0.00    +0.000 A 
ATOM     16  C   UNL     1       9.803  11.109  20.560  0.00  0.00    +0.000 A 
ATOM     17  C   UNL     1       9.237  10.141  19.729  0.00  0.00    +0.000 A 
ATOM     18  C   UNL     1       8.960  10.427  18.382  0.00  0.00    +0.000 A 
ATOM     19  C   UNL     1       9.258  11.708  17.887  0.00  0.00    +0.000 A 
ENDBRANCH  12  18
ENDBRANCH   8  12
ENDBRANCH   1   9
BRANCH   6  20
ATOM     20  C   UNL     1       3.828   4.431  18.978  0.00  0.00    +0.000 C 
BRANCH  20  21
ATOM     21  C   UNL     1       2.700   5.313  18.413  0.00  0.00    +0.000 C 
BRANCH  21  22
ATOM     22  C   UNL     1       3.158   6.741  18.103  0.00  0.00    +0.000 C 
BRANCH  22  23
ATOM     23  C   UNL     1       2.277   7.833  18.669  0.00  0.00    +0.000 A 
ATOM     24  C   UNL     1       1.846   7.794  20.002  0.00  0.00    +0.000 A 
ATOM     25  C   UNL     1       1.112   8.851  20.546  0.00  0.00    +0.000 A 
ATOM     26  C   UNL     1       0.804   9.964  19.764  0.00  0.00    +0.000 A 
ATOM     27  C   UNL     1       1.223  10.013  18.438  0.00  0.00    +0.000 A 
ATOM     28  C   UNL     1       1.956   8.956  17.893  0.00  0.00    +0.000 A 
ENDBRANCH  22  23
ENDBRANCH  21  22
ENDBRANCH  20  21
ENDBRANCH   6  20
TORSDOF 7
ENDMDL
MODEL 5
REMARK VINA RESULT:      -8.3      3.185      5.078
REMARK  Name = 
REMARK  8 active torsions:
REMARK  status: ('A' for Active; 'I' for Inactive)
REMARK    1  A    between atoms: C_1  and  C_2
REMARK    2  A    between atoms: C_6  and  C_7
REMARK    3  A    between atoms: C_7  and  N_8
REMARK    4  A    between atoms: C_9  and  C_11
REMARK    5  A    between atoms: N_16  and  C_17
REMARK    6  A    between atoms: C_17  and  C_18
REMARK    7  A    between atoms: C_18  and  C_19
REMARK    8  A    between atoms: C_19  and  C_20
REMARK                            x       y       z     vdW  Elec       q    Type
REMARK                         _______ _______ _______ _____ _____    ______ ____
ROOT
ATOM      1  C   UNL     1       1.343   4.828  19.628  0.00  0.00    +0.000 C 
ATOM      2  C   UNL     1       1.375   3.765  20.718  0.00  0.00    +0.000 C 
ATOM      3  C   UNL     1       2.816   3.421  21.048  0.00  0.00    +0.000 C 
ATOM      4  C   UNL     1       3.621   2.990  19.840  0.00  0.00    +0.000 C 
ATOM      5  O   UNL     1       4.645   2.325  19.999  0.00  0.00    +0.000 OA
ATOM      6  N   UNL     1       3.179   3.406  18.593  0.00  0.00    +0.000 N 
ATOM      7  C   UNL     1       1.978   4.224  18.370  0.00  0.00    +0.000 C 
ENDROOT
BRANCH   1   9
ATOM      8  N   UNL     1       1.331   6.850  21.016  0.00  0.00    +0.000 N 
ATOM      9  C   UNL     1       2.009   6.146  20.043  0.00  0.00    +0.000 C 
ATOM     10  O   UNL     1       3.038   6.564  19.522  0.00  0.00    +0.000 OA
ATOM     11  H   UNL     1       0.535   6.440  21.482  0.00  0.00    +0.000 HD
BRANCH   8  12
ATOM     12  C   UNL     1       1.869   8.066  21.598  0.00  0.00    +0.000 C 
BRANCH  12  18
ATOM     13  C   UNL     1      -1.048  11.576  19.404  0.00  0.00    +0.000 C 
ATOM     14  C   UNL     1      -0.600  10.840  20.631  0.00  0.00    +0.000 A 
ATOM     15  C   UNL     1      -1.200  11.092  21.870  0.00  0.00    +0.000 A 
ATOM     16  C   UNL     1      -0.803  10.387  23.004  0.00  0.00    +0.000 A 
ATOM     17  C   UNL     1       0.201   9.422  22.912  0.00  0.00    +0.000 A 
ATOM     18  C   UNL     1       0.824   9.152  21.683  0.00  0.00    +0.000 A 
ATOM     19  C   UNL     1       0.415   9.867  20.545  0.00  0.00    +0.000 A 
ENDBRANCH  12  18
ENDBRANCH   8  12
ENDBRANCH   1   9
BRANCH   6  20
ATOM     20  C   UNL     1       3.900   2.930  17.407  0.00  0.00    +0.000 C 
BRANCH  20  21
ATOM     21  C   UNL     1       4.491   4.048  16.529  0.00  0.00    +0.000 C 
BRANCH  21  22
ATOM     22  C   UNL     1       6.016   3.969  16.407  0.00  0.00    +0.000 C 
BRANCH  22  23
ATOM     23  C   UNL     1       6.773   5.067  17.119  0.00  0.00    +0.000 A 
ATOM     24  C   UNL     1       6.779   6.378  16.624  0.00  0.00    +0.000 A 
ATOM     25  C   UNL     1       7.401   7.407  17.335  0.00  0.00    +0.000 A 
ATOM     26  C   UNL     1       8.023   7.138  18.554  0.00  0.00    +0.000 A 
ATOM     27  C   UNL     1       8.029   5.839  19.055  0.00  0.00    +0.000 A 
ATOM     28  C   UNL     1       7.407   4.809  18.344  0.00  0.00    +0.000 A 
ENDBRANCH  22  23
ENDBRANCH  21  22
ENDBRANCH  20  21
ENDBRANCH   6  20
TORSDOF 7
ENDMDL
MODEL 6
REMARK VINA RESULT:      -8.2      3.321      5.134
REMARK  Name = 
REMARK  8 active torsions:
REMARK  status: ('A' for Active; 'I' for Inactive)
REMARK    1  A    between atoms: C_1  and  C_2
REMARK    2  A    between atoms: C_6  and  C_7
REMARK    3  A    between atoms: C_7  and  N_8
REMARK    4  A    between atoms: C_9  and  C_11
REMARK    5  A    between atoms: N_16  and  C_17
REMARK    6  A    between atoms: C_17  and  C_18
REMARK    7  A    between atoms: C_18  and  C_19
REMARK    8  A    between atoms: C_19  and  C_20
REMARK                            x       y       z     vdW  Elec       q    Type
REMARK                         _______ _______ _______ _____ _____    ______ ____
ROOT
ATOM      1  C   UNL     1       1.279   4.410  19.889  0.00  0.00    +0.000 C 
ATOM      2  C   UNL     1       1.419   3.367  20.990  0.00  0.00    +0.000 C 
ATOM      3  C   UNL     1       2.890   3.135  21.284  0.00  0.00    +0.000 C 
ATOM      4  C   UNL     1       3.694   2.751  20.059  0.00  0.00    +0.000 C 
ATOM      5  O   UNL     1       4.769   2.167  20.197  0.00  0.00    +0.000 OA
ATOM      6  N   UNL     1       3.189   3.117  18.819  0.00  0.00    +0.000 N 
ATOM      7  C   UNL     1       1.924   3.839  18.621  0.00  0.00    +0.000 C 
ENDROOT
BRANCH   1   9
ATOM      8  N   UNL     1       0.949   6.640  20.857  0.00  0.00    +0.000 N 
ATOM      9  C   UNL     1       1.855   5.779  20.272  0.00  0.00    +0.000 C 
ATOM     10  O   UNL     1       3.014   6.102  20.038  0.00  0.00    +0.000 OA
ATOM     11  H   UNL     1       0.027   6.315  21.111  0.00  0.00    +0.000 HD
BRANCH   8  12
ATOM     12  C   UNL     1       1.346   7.937  21.371  0.00  0.00    +0.000 C 
BRANCH  12  18
ATOM     13  C   UNL     1      -1.483  12.080  20.679  0.00  0.00    +0.000 C 
ATOM     14  C   UNL     1      -0.505  11.070  20.155  0.00  0.00    +0.000 A 
ATOM     15  C   UNL     1       0.025  11.198  18.866  0.00  0.00    +0.000 A 
ATOM     16  C   UNL     1       0.956  10.275  18.391  0.00  0.00    +0.000 A 
ATOM     17  C   UNL     1       1.366   9.215  19.200  0.00  0.00    +0.000 A 
ATOM     18  C   UNL     1       0.847   9.060  20.496  0.00  0.00    +0.000 A 
ATOM     19  C   UNL     1      -0.090   9.997  20.966  0.00  0.00    +0.000 A 
ENDBRANCH  12  18
ENDBRANCH   8  12
ENDBRANCH   1   9
BRANCH   6  20
ATOM     20  C   UNL     1       3.913   2.681  17.620  0.00  0.00    +0.000 C 
BRANCH  20  21
ATOM     21  C   UNL     1       4.181   3.800  16.596  0.00  0.00    +0.000 C 
BRANCH  21  22
ATOM     22  C   UNL     1       5.653   3.890  16.184  0.00  0.00    +0.000 C 
BRANCH  22  23
ATOM     23  C   UNL     1       6.459   4.941  16.913  0.00  0.00    +0.000 A 
ATOM     24  C   UNL     1       6.373   6.294  16.556  0.00  0.00    +0.000 A 
ATOM     25  C   UNL     1       7.047   7.271  17.293  0.00  0.00    +0.000 A 
ATOM     26  C   UNL     1       7.812   6.908  18.401  0.00  0.00    +0.000 A 
ATOM     27  C   UNL     1       7.910   5.567  18.763  0.00  0.00    +0.000 A 
ATOM     28  C   UNL     1       7.237   4.589  18.026  0.00  0.00    +0.000 A 
ENDBRANCH  22  23
ENDBRANCH  21  22
ENDBRANCH  20  21
ENDBRANCH   6  20
TORSDOF 7
ENDMDL
MODEL 7
REMARK VINA RESULT:      -8.0      1.131      1.461
REMARK  Name = 
REMARK  8 active torsions:
REMARK  status: ('A' for Active; 'I' for Inactive)
REMARK    1  A    between atoms: C_1  and  C_2
REMARK    2  A    between atoms: C_6  and  C_7
REMARK    3  A    between atoms: C_7  and  N_8
REMARK    4  A    between atoms: C_9  and  C_11
REMARK    5  A    between atoms: N_16  and  C_17
REMARK    6  A    between atoms: C_17  and  C_18
REMARK    7  A    between atoms: C_18  and  C_19
REMARK    8  A    between atoms: C_19  and  C_20
REMARK                            x       y       z     vdW  Elec       q    Type
REMARK                         _______ _______ _______ _____ _____    ______ ____
ROOT
ATOM      1  C   UNL     1       4.074   5.938  17.337  0.00  0.00    +0.000 C 
ATOM      2  C   UNL     1       4.432   4.518  16.920  0.00  0.00    +0.000 C 
ATOM      3  C   UNL     1       5.632   4.042  17.717  0.00  0.00    +0.000 C 
ATOM      4  C   UNL     1       6.829   4.964  17.607  0.00  0.00    +0.000 C 
ATOM      5  O   UNL     1       7.954   4.530  17.858  0.00  0.00    +0.000 OA
ATOM      6  N   UNL     1       6.592   6.285  17.258  0.00  0.00    +0.000 N 
ATOM      7  C   UNL     1       5.260   6.841  16.979  0.00  0.00    +0.000 C 
ENDROOT
BRANCH   1   9
ATOM      8  N   UNL     1       2.588   6.871  19.052  0.00  0.00    +0.000 N 
ATOM      9  C   UNL     1       3.675   6.056  18.814  0.00  0.00    +0.000 C 
ATOM     10  O   UNL     1       4.297   5.507  19.717  0.00  0.00    +0.000 OA
ATOM     11  H   UNL     1       2.049   7.241  18.282  0.00  0.00    +0.000 HD
BRANCH   8  12
ATOM     12  C   UNL     1       2.015   7.017  20.376  0.00  0.00    +0.000 C 
BRANCH  12  18
ATOM     13  C   UNL     1      -0.738  10.256  23.129  0.00  0.00    +0.000 C 
ATOM     14  C   UNL     1      -0.071   9.888  21.837  0.00  0.00    +0.000 A 
ATOM     15  C   UNL     1      -0.081  10.775  20.755  0.00  0.00    +0.000 A 
ATOM     16  C   UNL     1       0.564  10.443  19.564  0.00  0.00    +0.000 A 
ATOM     17  C   UNL     1       1.225   9.221  19.444  0.00  0.00    +0.000 A 
ATOM     18  C   UNL     1       1.247   8.310  20.512  0.00  0.00    +0.000 A 
ATOM     19  C   UNL     1       0.595   8.654  21.708  0.00  0.00    +0.000 A 
ENDBRANCH  12  18
ENDBRANCH   8  12
ENDBRANCH   1   9
BRANCH   6  20
ATOM     20  C   UNL     1       7.746   7.170  17.066  0.00  0.00    +0.000 C 
BRANCH  20  21
ATOM     21  C   UNL     1       8.042   8.099  18.258  0.00  0.00    +0.000 C 
BRANCH  21  22
ATOM     22  C   UNL     1       8.128   9.574  17.858  0.00  0.00    +0.000 C 
BRANCH  22  23
ATOM     23  C   UNL     1       9.210  10.366  18.558  0.00  0.00    +0.000 A 
ATOM     24  C   UNL     1      10.172  11.076  17.828  0.00  0.00    +0.000 A 
ATOM     25  C   UNL     1      11.111  11.881  18.478  0.00  0.00    +0.000 A 
ATOM     26  C   UNL     1      11.096  11.990  19.868  0.00  0.00    +0.000 A 
ATOM     27  C   UNL     1      10.148  11.287  20.606  0.00  0.00    +0.000 A 
ATOM     28  C   UNL     1       9.209  10.480  19.956  0.00  0.00    +0.000 A 
ENDBRANCH  22  23
ENDBRANCH  21  22
ENDBRANCH  20  21
ENDBRANCH   6  20
TORSDOF 7
ENDMDL
MODEL 8
REMARK VINA RESULT:      -8.0      1.575      7.229
REMARK  Name = 
REMARK  8 active torsions:
REMARK  status: ('A' for Active; 'I' for Inactive)
REMARK    1  A    between atoms: C_1  and  C_2
REMARK    2  A    between atoms: C_6  and  C_7
REMARK    3  A    between atoms: C_7  and  N_8
REMARK    4  A    between atoms: C_9  and  C_11
REMARK    5  A    between atoms: N_16  and  C_17
REMARK    6  A    between atoms: C_17  and  C_18
REMARK    7  A    between atoms: C_18  and  C_19
REMARK    8  A    between atoms: C_19  and  C_20
REMARK                            x       y       z     vdW  Elec       q    Type
REMARK                         _______ _______ _______ _____ _____    ______ ____
ROOT
ATOM      1  C   UNL     1       7.195   5.657  18.421  0.00  0.00    +0.000 C 
ATOM      2  C   UNL     1       7.591   4.566  17.434  0.00  0.00    +0.000 C 
ATOM      3  C   UNL     1       6.497   4.401  16.395  0.00  0.00    +0.000 C 
ATOM      4  C   UNL     1       5.135   4.126  16.996  0.00  0.00    +0.000 C 
ATOM      5  O   UNL     1       4.263   3.595  16.307  0.00  0.00    +0.000 OA
ATOM      6  N   UNL     1       4.919   4.528  18.306  0.00  0.00    +0.000 N 
ATOM      7  C   UNL     1       5.928   5.189  19.146  0.00  0.00    +0.000 C 
ENDROOT
BRANCH   1   9
ATOM      8  N   UNL     1       8.011   7.943  18.070  0.00  0.00    +0.000 N 
ATOM      9  C   UNL     1       7.019   7.034  17.768  0.00  0.00    +0.000 C 
ATOM     10  O   UNL     1       6.053   7.320  17.069  0.00  0.00    +0.000 OA
ATOM     11  H   UNL     1       8.833   7.651  18.579  0.00  0.00    +0.000 HD
BRANCH   8  12
ATOM     12  C   UNL     1       8.057   9.259  17.461  0.00  0.00    +0.000 C 
BRANCH  12  18
ATOM     13  C   UNL     1      10.121  13.827  18.182  0.00  0.00    +0.000 C 
ATOM     14  C   UNL     1       9.780  12.458  18.693  0.00  0.00    +0.000 A 
ATOM     15  C   UNL     1      10.069  12.101  20.015  0.00  0.00    +0.000 A 
ATOM     16  C   UNL     1       9.726  10.839  20.497  0.00  0.00    +0.000 A 
ATOM     17  C   UNL     1       9.091   9.921  19.661  0.00  0.00    +0.000 A 
ATOM     18  C   UNL     1       8.793  10.250  18.329  0.00  0.00    +0.000 A 
ATOM     19  C   UNL     1       9.142  11.525  17.853  0.00  0.00    +0.000 A 
ENDBRANCH  12  18
ENDBRANCH   8  12
ENDBRANCH   1   9
BRANCH   6  20
ATOM     20  C   UNL     1       3.633   4.196  18.931  0.00  0.00    +0.000 C 
BRANCH  20  21
ATOM     21  C   UNL     1       2.567   5.301  18.821  0.00  0.00    +0.000 C 
BRANCH  21  22
ATOM     22  C   UNL     1       2.739   6.402  19.872  0.00  0.00    +0.000 C 
BRANCH  22  23
ATOM     23  C   UNL     1       2.080   7.720  19.533  0.00  0.00    +0.000 A 
ATOM     24  C   UNL     1       2.171   8.263  18.244  0.00  0.00    +0.000 A 
ATOM     25  C   UNL     1       1.482   9.432  17.911  0.00  0.00    +0.000 A 
ATOM     26  C   UNL     1       0.688  10.070  18.862  0.00  0.00    +0.000 A 
ATOM     27  C   UNL     1       0.591   9.544  20.147  0.00  0.00    +0.000 A 
ATOM     28  C   UNL     1       1.281   8.376  20.482  0.00  0.00    +0.000 A 
ENDBRANCH  22  23
ENDBRANCH  21  22
ENDBRANCH  20  21
ENDBRANCH   6  20
TORSDOF 7
ENDMDL
MODEL 9
REMARK VINA RESULT:      -8.0      1.691      7.266
REMARK  Name = 
REMARK  8 active torsions:
REMARK  status: ('A' for Active; 'I' for Inactive)
REMARK    1  A    between atoms: C_1  and  C_2
REMARK    2  A    between atoms: C_6  and  C_7
REMARK    3  A    between atoms: C_7  and  N_8
REMARK    4  A    between atoms: C_9  and  C_11
REMARK    5  A    between atoms: N_16  and  C_17
REMARK    6  A    between atoms: C_17  and  C_18
REMARK    7  A    between atoms: C_18  and  C_19
REMARK    8  A    between atoms: C_19  and  C_20
REMARK                            x       y       z     vdW  Elec       q    Type
REMARK                         _______ _______ _______ _____ _____    ______ ____
ROOT
ATOM      1  C   UNL     1       7.588   6.023  18.746  0.00  0.00    +0.000 C 
ATOM      2  C   UNL     1       8.125   4.808  18.000  0.00  0.00    +0.000 C 
ATOM      3  C   UNL     1       7.269   4.547  16.773  0.00  0.00    +0.000 C 
ATOM      4  C   UNL     1       5.797   4.388  17.092  0.00  0.00    +0.000 C 
ATOM      5  O   UNL     1       5.064   3.802  16.295  0.00  0.00    +0.000 OA
ATOM      6  N   UNL     1       5.330   4.955  18.269  0.00  0.00    +0.000 N 
ATOM      7  C   UNL     1       6.172   5.685  19.227  0.00  0.00    +0.000 C 
ENDROOT
BRANCH   1   9
ATOM      8  N   UNL     1       8.282   8.365  18.526  0.00  0.00    +0.000 N 
ATOM      9  C   UNL     1       7.631   7.313  17.917  0.00  0.00    +0.000 C 
ATOM     10  O   UNL     1       7.093   7.417  16.820  0.00  0.00    +0.000 OA
ATOM     11  H   UNL     1       8.784   8.223  19.391  0.00  0.00    +0.000 HD
BRANCH   8  12
ATOM     12  C   UNL     1       8.503   9.627  17.846  0.00  0.00    +0.000 C 
BRANCH  12  18
ATOM     13  C   UNL     1       9.495  12.261  22.056  0.00  0.00    +0.000 C 
ATOM     14  C   UNL     1       9.892  11.807  20.682  0.00  0.00    +0.000 A 
ATOM     15  C   UNL     1      11.136  12.161  20.148  0.00  0.00    +0.000 A 
ATOM     16  C   UNL     1      11.514  11.715  18.884  0.00  0.00    +0.000 A 
ATOM     17  C   UNL     1      10.652  10.910  18.139  0.00  0.00    +0.000 A 
ATOM     18  C   UNL     1       9.396  10.543  18.647  0.00  0.00    +0.000 A 
ATOM     19  C   UNL     1       9.024  10.997  19.925  0.00  0.00    +0.000 A 
ENDBRANCH  12  18
ENDBRANCH   8  12
ENDBRANCH   1   9
BRANCH   6  20
ATOM     20  C   UNL     1       3.925   4.740  18.632  0.00  0.00    +0.000 C 
BRANCH  20  21
ATOM     21  C   UNL     1       3.236   5.963  19.266  0.00  0.00    +0.000 C 
BRANCH  21  22
ATOM     22  C   UNL     1       2.782   6.995  18.230  0.00  0.00    +0.000 C 
BRANCH  22  23
ATOM     23  C   UNL     1       2.008   8.167  18.791  0.00  0.00    +0.000 A 
ATOM     24  C   UNL     1       1.579   8.177  20.125  0.00  0.00    +0.000 A 
ATOM     25  C   UNL     1       0.948   9.301  20.663  0.00  0.00    +0.000 A 
ATOM     26  C   UNL     1       0.742  10.432  19.874  0.00  0.00    +0.000 A 
ATOM     27  C   UNL     1       1.159  10.434  18.546  0.00  0.00    +0.000 A 
ATOM     28  C   UNL     1       1.790   9.310  18.007  0.00  0.00    +0.000 A 
ENDBRANCH  22  23
ENDBRANCH  21  22
ENDBRANCH  20  21
ENDBRANCH   6  20
TORSDOF 7
ENDMDL
